TITL C-112729-620-5 -0.0044569187055961 125000 -742.141616767973 0 0 107 (C1) n - 1
REM
REM in /rds/project/t2_vol4/rds-t2-cs072/BORA/CARBON/from-Arr/AIRSS/Generating-Clusters/GAP-ML-2020/Only-C1/SD-CG/HFTN-CG
REM
REM
REM
REM
REM
REM ./C.cell (11c1c37f851c82e70ff6c80c92926a4b)
REM AIRSS Version 0.9.1 bugfix July 2018 build 013d7b7c2542+ Fri, 06 Jul 2018 19:26:36 +0100
REM compiler GCC version 9.3.0
REM options -cpp -mtune=generic -march=x86-64 -g -O0
REM seed 374643677 -532264601 1353651674 331490480 1320807706 -985306383 2130222452 938975912 -220738451 -1740956073 -1211380793 257812009 -572734766 513780055 2121860995 1713952564 205568076 -121084633 1283541842 -801441275 -1379423108 -749519408 2002724242 -2035430841 910308669 -1651665257 1325084155 722318352 884718209 1999431984 -481151041 1282117535 1268095811
REM
CELL 1.54180   50.00000   50.00000   50.00000   90.00000   90.00000   90.00000
LATT -1
SFAC C  
C      1  0.4812140000000  0.5160810000000  0.5887750000000 1.0
C      1  0.4208760000000  0.5449080000000  0.5176690000000 1.0
C      1  0.4118530000000  0.5182760000000  0.5250820000000 1.0
C      1  0.5268980000000  0.5134960000000  0.5980430000000 1.0
C      1  0.5837830000000  0.4895840000000  0.5200830000000 1.0
C      1  0.5000450000000  0.5777210000000  0.5090240000000 1.0
C      1  0.4669180000000  0.4270360000000  0.4364580000000 1.0
C      1  0.4669660000000  0.5613030000000  0.4640000000000 1.0
C      1  0.5397940000000  0.5245810000000  0.4242320000000 1.0
C      1  0.4111690000000  0.5017870000000  0.4810340000000 1.0
C      1  0.4182020000000  0.4726050000000  0.5160250000000 1.0
C      1  0.4231390000000  0.5127830000000  0.4340620000000 1.0
C      1  0.4551660000000  0.5102770000000  0.4957290000000 1.0
C      1  0.5494140000000  0.4400400000000  0.5121390000000 1.0
C      1  0.5083090000000  0.5613490000000  0.5560000000000 1.0
C      1  0.4721290000000  0.4521250000000  0.4248290000000 1.0
C      1  0.4977780000000  0.4645010000000  0.4170400000000 1.0
C      1  0.4843090000000  0.4804500000000  0.5126190000000 1.0
C      1  0.5738030000000  0.5326660000000  0.5397200000000 1.0
C      1  0.4415360000000  0.4351220000000  0.4880320000000 1.0
C      1  0.4945260000000  0.5719450000000  0.4595290000000 1.0
C      1  0.5279570000000  0.4509050000000  0.5672490000000 1.0
C      1  0.4370290000000  0.5319670000000  0.4500540000000 1.0
C      1  0.4619380000000  0.4791510000000  0.4345770000000 1.0
C      1  0.4616440000000  0.5668230000000  0.5379530000000 1.0
C      1  0.4521550000000  0.4605860000000  0.5553300000000 1.0
C      1  0.4845350000000  0.4903430000000  0.4148740000000 1.0
C      1  0.4659700000000  0.4848230000000  0.4906580000000 1.0
C      1  0.5277930000000  0.4216610000000  0.4742540000000 1.0
C      1  0.5186770000000  0.4871630000000  0.5937950000000 1.0
C      1  0.5011650000000  0.4582600000000  0.5546090000000 1.0
C      1  0.4870290000000  0.5400120000000  0.4255930000000 1.0
C      1  0.4888090000000  0.5274930000000  0.5280300000000 1.0
C      1  0.4320070000000  0.4870140000000  0.4410530000000 1.0
C      1  0.5567530000000  0.5035140000000  0.4337080000000 1.0
C      1  0.5096980000000  0.4927850000000  0.5027500000000 1.0
C      1  0.4935730000000  0.4197610000000  0.4433320000000 1.0
C      1  0.5192260000000  0.4713890000000  0.4846800000000 1.0
C      1  0.5715410000000  0.4383300000000  0.4655080000000 1.0
C      1  0.5878480000000  0.5172060000000  0.5202830000000 1.0
C      1  0.5341450000000  0.5490410000000  0.4401580000000 1.0
C      1  0.5489010000000  0.5085830000000  0.4853740000000 1.0
C      1  0.4808090000000  0.5507480000000  0.5524090000000 1.0
C      1  0.5360830000000  0.5141090000000  0.5368010000000 1.0
C      1  0.4404380000000  0.5298940000000  0.5580960000000 1.0
C      1  0.5722520000000  0.4629070000000  0.4535200000000 1.0
C      1  0.5195790000000  0.4584810000000  0.4380650000000 1.0
C      1  0.4253590000000  0.5071830000000  0.5475380000000 1.0
C      1  0.4236350000000  0.4582420000000  0.4897640000000 1.0
C      1  0.4193330000000  0.4780490000000  0.4680630000000 1.0
C      1  0.4773720000000  0.4656370000000  0.5712500000000 1.0
C      1  0.4518700000000  0.4405360000000  0.5366360000000 1.0
C      1  0.5536820000000  0.4292230000000  0.4849200000000 1.0
C      1  0.5186420000000  0.5330420000000  0.5233760000000 1.0
C      1  0.5560970000000  0.5171800000000  0.5589160000000 1.0
C      1  0.5768210000000  0.5100890000000  0.4527130000000 1.0
C      1  0.5400000000000  0.4735470000000  0.5797390000000 1.0
C      1  0.4680800000000  0.5349890000000  0.4470590000000 1.0
C      1  0.4578200000000  0.4319810000000  0.4653900000000 1.0
C      1  0.5816770000000  0.5369480000000  0.4987110000000 1.0
C      1  0.4985930000000  0.4517920000000  0.5244390000000 1.0
C      1  0.5384180000000  0.5710560000000  0.4839950000000 1.0
C      1  0.4325440000000  0.5218000000000  0.4787500000000 1.0
C      1  0.5202310000000  0.4284830000000  0.4448590000000 1.0
C      1  0.5456080000000  0.5682900000000  0.5120480000000 1.0
C      1  0.5066420000000  0.5576610000000  0.4379570000000 1.0
C      1  0.5845200000000  0.4860130000000  0.4665360000000 1.0
C      1  0.5426910000000  0.5300730000000  0.5812010000000 1.0
C      1  0.5196000000000  0.5642980000000  0.5270190000000 1.0
C      1  0.5274910000000  0.4876280000000  0.5272930000000 1.0
C      1  0.5683890000000  0.5531810000000  0.5182420000000 1.0
C      1  0.4654550000000  0.5329140000000  0.5717870000000 1.0
C      1  0.4857840000000  0.4993320000000  0.5343600000000 1.0
C      1  0.4870860000000  0.4351970000000  0.4695390000000 1.0
C      1  0.5737480000000  0.4736100000000  0.5422930000000 1.0
C      1  0.5670450000000  0.5310490000000  0.4731290000000 1.0
C      1  0.4871710000000  0.4272870000000  0.5121790000000 1.0
C      1  0.5217510000000  0.5187950000000  0.4040760000000 1.0
C      1  0.5625890000000  0.4461180000000  0.5369860000000 1.0
C      1  0.4951710000000  0.5165650000000  0.4095790000000 1.0
C      1  0.4578740000000  0.4293920000000  0.5125810000000 1.0
C      1  0.5086730000000  0.4891450000000  0.5489430000000 1.0
C      1  0.4303060000000  0.4780500000000  0.5433590000000 1.0
C      1  0.4781750000000  0.4845370000000  0.4621820000000 1.0
C      1  0.4876200000000  0.5123730000000  0.4592160000000 1.0
C      1  0.5024520000000  0.4195890000000  0.4886710000000 1.0
C      1  0.5199910000000  0.5493100000000  0.5780630000000 1.0
C      1  0.4979310000000  0.5230290000000  0.4827440000000 1.0
C      1  0.5258330000000  0.4573980000000  0.5124750000000 1.0
C      1  0.4721790000000  0.5758530000000  0.5130380000000 1.0
C      1  0.5734880000000  0.4887520000000  0.4931900000000 1.0
C      1  0.5000750000000  0.4634630000000  0.4636360000000 1.0
C      1  0.4318310000000  0.5497460000000  0.4909870000000 1.0
C      1  0.4058450000000  0.4972080000000  0.5081360000000 1.0
C      1  0.5105510000000  0.5783190000000  0.4825380000000 1.0
C      1  0.5496980000000  0.5543950000000  0.4636910000000 1.0
C      1  0.5619720000000  0.4872180000000  0.5646420000000 1.0
C      1  0.4621360000000  0.5567740000000  0.4934350000000 1.0
C      1  0.5480580000000  0.4357650000000  0.5580130000000 1.0
C      1  0.5459260000000  0.4759060000000  0.4429840000000 1.0
C      1  0.5388900000000  0.4856020000000  0.4703920000000 1.0
C      1  0.4755280000000  0.5296390000000  0.5011280000000 1.0
C      1  0.5045130000000  0.5311470000000  0.5948720000000 1.0
C      1  0.4364060000000  0.5598370000000  0.4631220000000 1.0
C      1  0.5218810000000  0.5190380000000  0.4965150000000 1.0
C      1  0.4882200000000  0.4870740000000  0.5886600000000 1.0
C      1  0.4376550000000  0.5520710000000  0.5396090000000 1.0
END
