TITL C-111145-7598-8 0.0654890596011204 125000 -440.124914191931 0 0 64 (C1) n - 1
REM
REM in /rds/project/t2_vol4/rds-t2-cs072/BORA/CARBON/from-Arr/AIRSS/Generating-Clusters/GAP-ML-2020/Only-C1/SD-CG/HFTN-CG
REM
REM
REM
REM
REM
REM ./C.cell (11c1c37f851c82e70ff6c80c92926a4b)
REM AIRSS Version 0.9.1 bugfix July 2018 build 013d7b7c2542+ Fri, 06 Jul 2018 19:26:36 +0100
REM compiler GCC version 9.3.0
REM options -cpp -mtune=generic -march=x86-64 -g -O0
REM seed -1333224459 -185396475 -1091321954 -1397875534 1735428502 -111554394 -854734550 -1694811587 1923732562 -586232444 -1883632596 -1654063658 -1860461560 -1030713619 -1679286628 1989375074 -230741616 1607078937 735184599 202186043 1960032412 1680942137 -1964479751 1472259017 -1192520791 -1732193542 -1288072182 1201554952 -1670191970 957865956 1304715252 -647396475 1914045575
REM
CELL 1.54180   50.00000   50.00000   50.00000   90.00000   90.00000   90.00000
LATT -1
SFAC C  
C      1  0.4612960000000  0.5468750000000  0.5004850000000 1.0
C      1  0.4791970000000  0.5629900000000  0.5183970000000 1.0
C      1  0.5069310000000  0.5385910000000  0.5513100000000 1.0
C      1  0.5583750000000  0.4990660000000  0.5354150000000 1.0
C      1  0.5453710000000  0.5529670000000  0.4901760000000 1.0
C      1  0.5418360000000  0.4430460000000  0.4931870000000 1.0
C      1  0.4739280000000  0.5305650000000  0.4277580000000 1.0
C      1  0.5435870000000  0.5295010000000  0.4445150000000 1.0
C      1  0.4355080000000  0.4646860000000  0.5364180000000 1.0
C      1  0.4322130000000  0.5079990000000  0.5134950000000 1.0
C      1  0.4329650000000  0.4975600000000  0.4866530000000 1.0
C      1  0.4802520000000  0.5062790000000  0.4731890000000 1.0
C      1  0.4983520000000  0.5250810000000  0.4187020000000 1.0
C      1  0.5003050000000  0.4522050000000  0.4432260000000 1.0
C      1  0.5358810000000  0.4583410000000  0.5416850000000 1.0
C      1  0.4906990000000  0.5691220000000  0.4751140000000 1.0
C      1  0.5513970000000  0.4554150000000  0.5175550000000 1.0
C      1  0.4774070000000  0.4584740000000  0.4606130000000 1.0
C      1  0.4648230000000  0.5548260000000  0.4725270000000 1.0
C      1  0.4700950000000  0.4385920000000  0.4825100000000 1.0
C      1  0.5092830000000  0.5522780000000  0.4632870000000 1.0
C      1  0.5130840000000  0.4926820000000  0.5156980000000 1.0
C      1  0.5378980000000  0.5526010000000  0.4631960000000 1.0
C      1  0.4556590000000  0.5069580000000  0.5557550000000 1.0
C      1  0.4873110000000  0.5034550000000  0.5183240000000 1.0
C      1  0.4730230000000  0.4796480000000  0.5078820000000 1.0
C      1  0.4398980000000  0.4450790000000  0.5187060000000 1.0
C      1  0.5472890000000  0.4557080000000  0.4655770000000 1.0
C      1  0.5297310000000  0.5431220000000  0.5335670000000 1.0
C      1  0.4349990000000  0.4696260000000  0.4776510000000 1.0
C      1  0.5253300000000  0.4524070000000  0.4476260000000 1.0
C      1  0.4365280000000  0.4925210000000  0.5379470000000 1.0
C      1  0.5759160000000  0.4873700000000  0.4907020000000 1.0
C      1  0.5264740000000  0.5083330000000  0.4794150000000 1.0
C      1  0.5671010000000  0.4793270000000  0.5157980000000 1.0
C      1  0.4442290000000  0.4454900000000  0.4911250000000 1.0
C      1  0.5234480000000  0.5249130000000  0.4262330000000 1.0
C      1  0.4521980000000  0.4758540000000  0.4562540000000 1.0
C      1  0.5631470000000  0.5341170000000  0.5024060000000 1.0
C      1  0.5431030000000  0.4837600000000  0.5537170000000 1.0
C      1  0.4847670000000  0.5237640000000  0.4973220000000 1.0
C      1  0.4645640000000  0.4567940000000  0.5299800000000 1.0
C      1  0.5725380000000  0.5153130000000  0.4842870000000 1.0
C      1  0.5532840000000  0.5264910000000  0.5284400000000 1.0
C      1  0.5166110000000  0.4844170000000  0.4896260000000 1.0
C      1  0.4996330000000  0.4745930000000  0.5664600000000 1.0
C      1  0.5219050000000  0.4931530000000  0.5689820000000 1.0
C      1  0.5537000000000  0.5082770000000  0.4620530000000 1.0
C      1  0.4601150000000  0.5328050000000  0.4520200000000 1.0
C      1  0.4815230000000  0.5486380000000  0.5425110000000 1.0
C      1  0.5259270000000  0.5599520000000  0.5102060000000 1.0
C      1  0.5005360000000  0.5710680000000  0.5024290000000 1.0
C      1  0.4520580000000  0.5062400000000  0.4644650000000 1.0
C      1  0.5080580000000  0.4531950000000  0.5480630000000 1.0
C      1  0.4434230000000  0.5333610000000  0.5189300000000 1.0
C      1  0.5627640000000  0.4787820000000  0.4664080000000 1.0
C      1  0.4923450000000  0.4328680000000  0.5027270000000 1.0
C      1  0.4883680000000  0.4412310000000  0.5303460000000 1.0
C      1  0.5043570000000  0.5249390000000  0.4754720000000 1.0
C      1  0.4879560000000  0.4786630000000  0.4811310000000 1.0
C      1  0.4576540000000  0.5329050000000  0.5441230000000 1.0
C      1  0.4803320000000  0.4977680000000  0.5677680000000 1.0
C      1  0.5174290000000  0.4315810000000  0.4945730000000 1.0
C      1  0.5040870000000  0.5157700000000  0.5678830000000 1.0
END
