TITL C-117346-2944-8 168.781557598217 125000 -814.328742364797 0 0 115 (C1) n - 1
REM
REM in /rds/project/t2_vol4/rds-t2-cs072/BORA/CARBON/from-Arr/AIRSS/Generating-Clusters/GAP-ML-2020/Only-C1/SD-CG/HFTN-CG
REM
REM
REM
REM
REM
REM ./C.cell (11c1c37f851c82e70ff6c80c92926a4b)
REM AIRSS Version 0.9.1 bugfix July 2018 build 013d7b7c2542+ Fri, 06 Jul 2018 19:26:36 +0100
REM compiler GCC version 9.3.0
REM options -cpp -mtune=generic -march=x86-64 -g -O0
REM seed 179019670 -1468999085 -1407471142 -485131036 650193538 1269311599 -366499164 -630118468 -579753920 -17070696 1389138914 111009012 2112875264 -1757528600 1526819278 -9337017 -1432526652 -1639081107 1297758281 1779345506 493188540 792354578 -1540348726 1837919295 -1996367999 1725529121 1828289973 520639019 1777001294 -1655298790 -1287125105 -844989410 1270369319
REM
CELL 1.54180   50.00000   50.00000   50.00000   90.00000   90.00000   90.00000
LATT -1
SFAC C  
C      1  0.5742520000000  0.4442070000000  0.5080530000000 1.0
C      1  0.4749190000000  0.4913580000000  0.5883490000000 1.0
C      1  0.4397690000000  0.4427530000000  0.5382710000000 1.0
C      1  0.5741880000000  0.5495950000000  0.5192730000000 1.0
C      1  0.5622560000000  0.5298740000000  0.4374310000000 1.0
C      1  0.4962660000000  0.5132340000000  0.4553090000000 1.0
C      1  0.4738660000000  0.5212500000000  0.5876040000000 1.0
C      1  0.4791100000000  0.4631160000000  0.5067550000000 1.0
C      1  0.5033780000000  0.5226360000000  0.5893550000000 1.0
C      1  0.4169260000000  0.5205040000000  0.4700780000000 1.0
C      1  0.5722980000000  0.5418950000000  0.4610760000000 1.0
C      1  0.4543520000000  0.4760260000000  0.5744880000000 1.0
C      1  0.5253140000000  0.4876110000000  0.4096320000000 1.0
C      1  0.4126800000000  0.4556390000000  0.5029770000000 1.0
C      1  0.5513550000000  0.5476690000000  0.5014410000000 1.0
C      1  0.5367060000000  0.5425050000000  0.4299860000000 1.0
C      1  0.5035360000000  0.5573750000000  0.5580160000000 1.0
C      1  0.5272120000000  0.4220400000000  0.4991520000000 1.0
C      1  0.5132920000000  0.5358000000000  0.4140770000000 1.0
C      1  0.4757020000000  0.5311840000000  0.5295440000000 1.0
C      1  0.5060710000000  0.5083800000000  0.4068840000000 1.0
C      1  0.5756590000000  0.4475040000000  0.4797330000000 1.0
C      1  0.4359390000000  0.5241110000000  0.5598750000000 1.0
C      1  0.4587470000000  0.5714910000000  0.5320530000000 1.0
C      1  0.4448160000000  0.5337710000000  0.4347960000000 1.0
C      1  0.4667480000000  0.5311640000000  0.4173220000000 1.0
C      1  0.4935210000000  0.4555390000000  0.5304070000000 1.0
C      1  0.4820160000000  0.4403950000000  0.5533000000000 1.0
C      1  0.5083750000000  0.5314350000000  0.4945090000000 1.0
C      1  0.4182870000000  0.4601810000000  0.5302200000000 1.0
C      1  0.5603920000000  0.4549040000000  0.5621430000000 1.0
C      1  0.5873630000000  0.4707980000000  0.5116100000000 1.0
C      1  0.5720150000000  0.5360670000000  0.5454070000000 1.0
C      1  0.4762510000000  0.5051750000000  0.4107030000000 1.0
C      1  0.5274000000000  0.4301320000000  0.5659790000000 1.0
C      1  0.5697220000000  0.5017970000000  0.4386100000000 1.0
C      1  0.4801190000000  0.4599750000000  0.4254200000000 1.0
C      1  0.4615280000000  0.4819370000000  0.4216610000000 1.0
C      1  0.5298920000000  0.5591030000000  0.4533390000000 1.0
C      1  0.5371750000000  0.4722980000000  0.5145140000000 1.0
C      1  0.4092470000000  0.5034960000000  0.4920290000000 1.0
C      1  0.4646370000000  0.5739030000000  0.4565740000000 1.0
C      1  0.5200560000000  0.4665350000000  0.4448180000000 1.0
C      1  0.5475760000000  0.4603850000000  0.4410210000000 1.0
C      1  0.5298430000000  0.4310800000000  0.4727150000000 1.0
C      1  0.4296410000000  0.5117510000000  0.4452190000000 1.0
C      1  0.4377390000000  0.4948210000000  0.5579350000000 1.0
C      1  0.4732890000000  0.5553940000000  0.5528000000000 1.0
C      1  0.5061720000000  0.4473400000000  0.4620510000000 1.0
C      1  0.4749350000000  0.5838820000000  0.5112970000000 1.0
C      1  0.4278340000000  0.4667660000000  0.4600720000000 1.0
C      1  0.4258700000000  0.5475280000000  0.4745700000000 1.0
C      1  0.5800480000000  0.4905590000000  0.5330110000000 1.0
C      1  0.5184870000000  0.5908660000000  0.4956070000000 1.0
C      1  0.5075200000000  0.4672380000000  0.4193900000000 1.0
C      1  0.5850530000000  0.4967130000000  0.4642330000000 1.0
C      1  0.5873390000000  0.4742860000000  0.4826640000000 1.0
C      1  0.5095870000000  0.5003000000000  0.5365740000000 1.0
C      1  0.5453940000000  0.5255370000000  0.5602460000000 1.0
C      1  0.4720960000000  0.4189600000000  0.4951620000000 1.0
C      1  0.4275920000000  0.5597470000000  0.4983390000000 1.0
C      1  0.5103940000000  0.5807150000000  0.4496580000000 1.0
C      1  0.5032320000000  0.5394080000000  0.4676710000000 1.0
C      1  0.5547560000000  0.5159820000000  0.4943350000000 1.0
C      1  0.4125330000000  0.4763160000000  0.4833920000000 1.0
C      1  0.5907610000000  0.5176150000000  0.5334270000000 1.0
C      1  0.4961110000000  0.4702200000000  0.4834650000000 1.0
C      1  0.5505110000000  0.4978540000000  0.5725950000000 1.0
C      1  0.4847140000000  0.5087370000000  0.5421840000000 1.0
C      1  0.4663600000000  0.5058350000000  0.4920210000000 1.0
C      1  0.5688450000000  0.4811340000000  0.5586170000000 1.0
C      1  0.5520530000000  0.4835550000000  0.4243970000000 1.0
C      1  0.4337050000000  0.5578170000000  0.5242310000000 1.0
C      1  0.5003580000000  0.4076040000000  0.5337020000000 1.0
C      1  0.5212700000000  0.4996390000000  0.4561160000000 1.0
C      1  0.4815110000000  0.4945490000000  0.4709650000000 1.0
C      1  0.4380730000000  0.4399620000000  0.4682800000000 1.0
C      1  0.5491870000000  0.4332260000000  0.5465650000000 1.0
C      1  0.4624540000000  0.4926620000000  0.5381940000000 1.0
C      1  0.5024630000000  0.5924120000000  0.4740790000000 1.0
C      1  0.4887170000000  0.5496210000000  0.4193790000000 1.0
C      1  0.4128840000000  0.5089350000000  0.5209830000000 1.0
C      1  0.5543060000000  0.4421030000000  0.4621870000000 1.0
C      1  0.4751910000000  0.5862290000000  0.4813100000000 1.0
C      1  0.4560740000000  0.4490460000000  0.5613550000000 1.0
C      1  0.4283920000000  0.4340980000000  0.4940460000000 1.0
C      1  0.5526750000000  0.5581440000000  0.4728380000000 1.0
C      1  0.5148140000000  0.4737320000000  0.5318450000000 1.0
C      1  0.4478620000000  0.4257540000000  0.5127320000000 1.0
C      1  0.5046020000000  0.4932770000000  0.5931650000000 1.0
C      1  0.4166590000000  0.4868480000000  0.5390110000000 1.0
C      1  0.5329930000000  0.5175610000000  0.5334900000000 1.0
C      1  0.5219610000000  0.4808010000000  0.4925950000000 1.0
C      1  0.4577210000000  0.5380690000000  0.5718600000000 1.0
C      1  0.5370090000000  0.4540720000000  0.5799650000000 1.0
C      1  0.4435170000000  0.5553680000000  0.4533620000000 1.0
C      1  0.5928730000000  0.5309990000000  0.5072470000000 1.0
C      1  0.4241440000000  0.5323900000000  0.5353270000000 1.0
C      1  0.5195940000000  0.5393400000000  0.5732110000000 1.0
C      1  0.5534420000000  0.4990280000000  0.5191810000000 1.0
C      1  0.5285360000000  0.5069050000000  0.4838020000000 1.0
C      1  0.4996230000000  0.4120720000000  0.5068090000000 1.0
C      1  0.5827510000000  0.5213200000000  0.4800680000000 1.0
C      1  0.4864460000000  0.5715620000000  0.4372380000000 1.0
C      1  0.5017010000000  0.4199990000000  0.5586940000000 1.0
C      1  0.4640750000000  0.4278690000000  0.4665710000000 1.0
C      1  0.4818430000000  0.4392150000000  0.4470000000000 1.0
C      1  0.5301580000000  0.4816140000000  0.5863720000000 1.0
C      1  0.5151540000000  0.5654310000000  0.5338700000000 1.0
C      1  0.5261940000000  0.5433130000000  0.5166890000000 1.0
C      1  0.5470280000000  0.4375790000000  0.5177690000000 1.0
C      1  0.4804920000000  0.5283220000000  0.5022790000000 1.0
C      1  0.5032960000000  0.5850340000000  0.5179930000000 1.0
C      1  0.4611820000000  0.4846530000000  0.5110820000000 1.0
C      1  0.4374310000000  0.4849420000000  0.4391040000000 1.0
END
