TITL C-112716-668-3 -0.10634144012863 125000 -329.954511562334 0 0 49 (C1) n - 1
REM
REM in /rds/project/t2_vol4/rds-t2-cs072/BORA/CARBON/from-Arr/AIRSS/Generating-Clusters/GAP-ML-2020/Only-C1/SD-CG/HFTN-CG
REM
REM
REM
REM
REM
REM ./C.cell (11c1c37f851c82e70ff6c80c92926a4b)
REM AIRSS Version 0.9.1 bugfix July 2018 build 013d7b7c2542+ Fri, 06 Jul 2018 19:26:36 +0100
REM compiler GCC version 9.3.0
REM options -cpp -mtune=generic -march=x86-64 -g -O0
REM seed 116405702 518019566 -1800610103 225234509 -1678899474 -1823595661 -748908171 1598924016 1715072323 -720702409 -1434869108 -700502705 1729807524 -937400037 838254819 -817364369 -2026811811 1713430749 -399414927 1372796663 -1308197973 -1788421704 2029972716 315855686 75592387 -500608230 -1494854162 -29164071 632868126 392327477 1730764047 1050332928 602060119
REM
CELL 1.54180   50.00000   50.00000   50.00000   90.00000   90.00000   90.00000
LATT -1
SFAC C  
C      1  0.4577500000000  0.4466090000000  0.4768050000000 1.0
C      1  0.5730490000000  0.4962230000000  0.4826700000000 1.0
C      1  0.5208260000000  0.4795730000000  0.4613420000000 1.0
C      1  0.5530010000000  0.5300100000000  0.5076100000000 1.0
C      1  0.4859620000000  0.5331770000000  0.5341770000000 1.0
C      1  0.4738910000000  0.4719010000000  0.4433750000000 1.0
C      1  0.5011110000000  0.5058880000000  0.4633660000000 1.0
C      1  0.4470860000000  0.5237320000000  0.4742590000000 1.0
C      1  0.4864130000000  0.4961840000000  0.4391340000000 1.0
C      1  0.5113270000000  0.4388530000000  0.5254540000000 1.0
C      1  0.5154900000000  0.5617230000000  0.4987490000000 1.0
C      1  0.5642780000000  0.4850400000000  0.5070990000000 1.0
C      1  0.5177900000000  0.5301330000000  0.4602350000000 1.0
C      1  0.4781090000000  0.5247090000000  0.5051450000000 1.0
C      1  0.5014940000000  0.4700630000000  0.4396580000000 1.0
C      1  0.4523910000000  0.4939400000000  0.4809850000000 1.0
C      1  0.4842230000000  0.5004620000000  0.4885980000000 1.0
C      1  0.4913620000000  0.4712700000000  0.5518940000000 1.0
C      1  0.5051200000000  0.4392570000000  0.4976780000000 1.0
C      1  0.4404570000000  0.4901050000000  0.5074450000000 1.0
C      1  0.5435190000000  0.4662460000000  0.5077110000000 1.0
C      1  0.4809570000000  0.5617050000000  0.4743500000000 1.0
C      1  0.4649780000000  0.5158110000000  0.5476030000000 1.0
C      1  0.5150910000000  0.5300960000000  0.5367820000000 1.0
C      1  0.4370600000000  0.5160470000000  0.5193280000000 1.0
C      1  0.4656870000000  0.4475170000000  0.5215260000000 1.0
C      1  0.5602730000000  0.5077590000000  0.5245660000000 1.0
C      1  0.4681810000000  0.4869100000000  0.5466120000000 1.0
C      1  0.5294680000000  0.5438020000000  0.5160680000000 1.0
C      1  0.5460290000000  0.4927150000000  0.4519300000000 1.0
C      1  0.5569270000000  0.5081850000000  0.5511120000000 1.0
C      1  0.4773170000000  0.5617640000000  0.5271070000000 1.0
C      1  0.5311870000000  0.4587410000000  0.5322050000000 1.0
C      1  0.5186080000000  0.4791220000000  0.5485610000000 1.0
C      1  0.4534120000000  0.4728110000000  0.5256050000000 1.0
C      1  0.5446010000000  0.5221370000000  0.4592370000000 1.0
C      1  0.5289130000000  0.5066300000000  0.5481840000000 1.0
C      1  0.4630230000000  0.5437630000000  0.4645640000000 1.0
C      1  0.5715930000000  0.4844350000000  0.4582120000000 1.0
C      1  0.5200590000000  0.4648720000000  0.4883850000000 1.0
C      1  0.4388760000000  0.5239160000000  0.5447980000000 1.0
C      1  0.4879470000000  0.4457210000000  0.5391960000000 1.0
C      1  0.4491850000000  0.5331490000000  0.5012870000000 1.0
C      1  0.5095010000000  0.5544930000000  0.4715420000000 1.0
C      1  0.4879940000000  0.5697800000000  0.5036840000000 1.0
C      1  0.5617700000000  0.5238230000000  0.4817350000000 1.0
C      1  0.4545000000000  0.4701670000000  0.4637170000000 1.0
C      1  0.4973970000000  0.4800960000000  0.5029830000000 1.0
C      1  0.4748200000000  0.4389340000000  0.4957330000000 1.0
END
