TITL C-111139-5635-2 0.0277722550990263 125000 -132.566020614619 0 0 21 (Cs) n - 1
REM
REM in /rds/project/t2_vol4/rds-t2-cs072/BORA/CARBON/from-Arr/AIRSS/Generating-Clusters/GAP-ML-2020/Only-C1/SD-CG/HFTN-CG
REM
REM
REM
REM
REM
REM ./C.cell (11c1c37f851c82e70ff6c80c92926a4b)
REM AIRSS Version 0.9.1 bugfix July 2018 build 013d7b7c2542+ Fri, 06 Jul 2018 19:26:36 +0100
REM compiler GCC version 9.3.0
REM options -cpp -mtune=generic -march=x86-64 -g -O0
REM seed -1420145842 -1548456977 966584429 1887450248 2146587034 -1393260977 2129496009 621081309 -506807630 2069008911 -2118590691 -1963886788 -1936728182 1210841037 -1952995871 -172717016 -1772963090 -1254285989 1919322095 1649254701 1730586990 -1326297157 1159398336 1529676146 1050597463 -1896501891 420971771 392185424 682405233 -1082429873 1841566999 819023736 -593164445
REM
CELL 1.54180   50.00000   50.00000   50.00000   90.00000   90.00000   90.00000
LATT -1
SFAC C  
C      1  0.5104600000000  0.5377900000000  0.5198110000000 1.0
C      1  0.5096020000000  0.4944020000000  0.5332290000000 1.0
C      1  0.4727780000000  0.5298490000000  0.4827390000000 1.0
C      1  0.4509830000000  0.4704670000000  0.5372810000000 1.0
C      1  0.5276160000000  0.4434340000000  0.4840460000000 1.0
C      1  0.5031880000000  0.5622550000000  0.5207400000000 1.0
C      1  0.4694330000000  0.4743560000000  0.5554320000000 1.0
C      1  0.5104400000000  0.4429730000000  0.4634710000000 1.0
C      1  0.5124560000000  0.5053530000000  0.4861930000000 1.0
C      1  0.5160610000000  0.4684860000000  0.4571510000000 1.0
C      1  0.4687400000000  0.4857910000000  0.4930280000000 1.0
C      1  0.5131440000000  0.5701000000000  0.4716240000000 1.0
C      1  0.4667000000000  0.5545660000000  0.4848440000000 1.0
C      1  0.4843450000000  0.5054520000000  0.4820600000000 1.0
C      1  0.5287540000000  0.4879480000000  0.4733540000000 1.0
C      1  0.4925360000000  0.4858920000000  0.5492860000000 1.0
C      1  0.4954190000000  0.5646030000000  0.4908180000000 1.0
C      1  0.4547170000000  0.4779220000000  0.5120800000000 1.0
C      1  0.5485960000000  0.4753420000000  0.4891600000000 1.0
C      1  0.5477260000000  0.4508310000000  0.5001530000000 1.0
C      1  0.5163040000000  0.5121870000000  0.5135010000000 1.0
END
