TITL C-111140-5675-9 0.0292457307579984 125000 -269.024155472658 0 0 41 (C1) n - 1
REM
REM in /rds/project/t2_vol4/rds-t2-cs072/BORA/CARBON/from-Arr/AIRSS/Generating-Clusters/GAP-ML-2020/Only-C1/SD-CG/HFTN-CG
REM
REM
REM
REM
REM
REM ./C.cell (11c1c37f851c82e70ff6c80c92926a4b)
REM AIRSS Version 0.9.1 bugfix July 2018 build 013d7b7c2542+ Fri, 06 Jul 2018 19:26:36 +0100
REM compiler GCC version 9.3.0
REM options -cpp -mtune=generic -march=x86-64 -g -O0
REM seed -648647376 1862361748 -1267624776 -109968333 385768551 -1891500088 -365701152 1802428880 -1888269092 39209114 -1938982269 -1782382774 375071437 1602208115 -235982633 -1010744943 32163735 -1827627510 -1000689859 1792956517 396945921 -278939274 735620178 -545095239 -855411811 942132083 -948900887 500813110 218970628 1976181480 481305477 1895448027 -2959211
REM
CELL 1.54180   50.00000   50.00000   50.00000   90.00000   90.00000   90.00000
LATT -1
SFAC C  
C      1  0.4958210000000  0.5581660000000  0.5014100000000 1.0
C      1  0.4423370000000  0.5253920000000  0.4848490000000 1.0
C      1  0.4511020000000  0.4768610000000  0.4961860000000 1.0
C      1  0.4688820000000  0.5254060000000  0.5404250000000 1.0
C      1  0.4749990000000  0.4402090000000  0.4737110000000 1.0
C      1  0.4977290000000  0.4313970000000  0.4858740000000 1.0
C      1  0.5048820000000  0.4885890000000  0.5410170000000 1.0
C      1  0.5186700000000  0.5012200000000  0.4360920000000 1.0
C      1  0.4687380000000  0.5295590000000  0.4755460000000 1.0
C      1  0.4468960000000  0.5096050000000  0.5294250000000 1.0
C      1  0.4984240000000  0.4752580000000  0.5166060000000 1.0
C      1  0.4657440000000  0.4667730000000  0.4730610000000 1.0
C      1  0.4856070000000  0.5199550000000  0.5002500000000 1.0
C      1  0.5169220000000  0.5417150000000  0.5335080000000 1.0
C      1  0.4575840000000  0.4861040000000  0.5412740000000 1.0
C      1  0.4402170000000  0.5035870000000  0.5015670000000 1.0
C      1  0.4790130000000  0.4842540000000  0.4543980000000 1.0
C      1  0.5664780000000  0.5150020000000  0.5208840000000 1.0
C      1  0.5137550000000  0.4841360000000  0.4934020000000 1.0
C      1  0.5094380000000  0.4781860000000  0.4482570000000 1.0
C      1  0.5339750000000  0.5331250000000  0.5520980000000 1.0
C      1  0.4875810000000  0.5390520000000  0.5237360000000 1.0
C      1  0.5333780000000  0.4854450000000  0.5429590000000 1.0
C      1  0.5231110000000  0.5571490000000  0.5091950000000 1.0
C      1  0.4607410000000  0.4661920000000  0.5215450000000 1.0
C      1  0.5224820000000  0.4678930000000  0.4716930000000 1.0
C      1  0.5022530000000  0.5223210000000  0.4424810000000 1.0
C      1  0.5096050000000  0.5109420000000  0.4901850000000 1.0
C      1  0.5432800000000  0.5486850000000  0.4902570000000 1.0
C      1  0.5298520000000  0.4424810000000  0.5128540000000 1.0
C      1  0.5398380000000  0.4612930000000  0.5285450000000 1.0
C      1  0.5008910000000  0.4298940000000  0.5152370000000 1.0
C      1  0.5607110000000  0.5294750000000  0.5012900000000 1.0
C      1  0.4879300000000  0.5525280000000  0.4750890000000 1.0
C      1  0.4810780000000  0.4993620000000  0.5516820000000 1.0
C      1  0.5091790000000  0.5463000000000  0.4566640000000 1.0
C      1  0.5245910000000  0.4426210000000  0.4830350000000 1.0
C      1  0.4775550000000  0.5120620000000  0.4534460000000 1.0
C      1  0.5489200000000  0.5100060000000  0.5428610000000 1.0
C      1  0.5348660000000  0.5508610000000  0.4638230000000 1.0
C      1  0.4849460000000  0.4509380000000  0.5235790000000 1.0
END
