TITL C-112713-699-4 527.59881883965 125000 -727.809313449764 0 0 103 (C1) n - 1
REM
REM in /rds/project/t2_vol4/rds-t2-cs072/BORA/CARBON/from-Arr/AIRSS/Generating-Clusters/GAP-ML-2020/Only-C1/SD-CG/HFTN-CG
REM
REM
REM
REM
REM
REM ./C.cell (11c1c37f851c82e70ff6c80c92926a4b)
REM AIRSS Version 0.9.1 bugfix July 2018 build 013d7b7c2542+ Fri, 06 Jul 2018 19:26:36 +0100
REM compiler GCC version 9.3.0
REM options -cpp -mtune=generic -march=x86-64 -g -O0
REM seed -1809979486 1823834450 -1579670409 1950902017 1001863668 1031845271 1417237487 -1570389364 -2059089533 1332207310 -1899768896 771337133 2067286254 -1393193627 465972821 2111452082 306246210 -445856108 -210050786 -1874644804 -356871148 -2090492397 -1257415363 -1778873186 -1862779193 606101031 1359277483 1656188347 220578523 -1947206395 762137821 -132165279 1337134755
REM
CELL 1.54180   50.00000   50.00000   50.00000   90.00000   90.00000   90.00000
LATT -1
SFAC C  
C      1  0.4793590000000  0.5515170000000  0.4358140000000 1.0
C      1  0.4809610000000  0.4885050000000  0.5239740000000 1.0
C      1  0.4659510000000  0.5136270000000  0.5173050000000 1.0
C      1  0.5347600000000  0.4431060000000  0.4550540000000 1.0
C      1  0.4748810000000  0.5717360000000  0.4562790000000 1.0
C      1  0.4992450000000  0.4516430000000  0.5706040000000 1.0
C      1  0.5553980000000  0.4472350000000  0.5602160000000 1.0
C      1  0.5321550000000  0.5547300000000  0.5597680000000 1.0
C      1  0.4384520000000  0.4594790000000  0.4517250000000 1.0
C      1  0.4560460000000  0.4992880000000  0.5707780000000 1.0
C      1  0.5215270000000  0.5330140000000  0.4747070000000 1.0
C      1  0.5503760000000  0.5318820000000  0.5603250000000 1.0
C      1  0.4909770000000  0.5317650000000  0.5104680000000 1.0
C      1  0.4384680000000  0.5444670000000  0.4593170000000 1.0
C      1  0.4665460000000  0.4625610000000  0.4838950000000 1.0
C      1  0.4659000000000  0.4224790000000  0.4575720000000 1.0
C      1  0.4804880000000  0.5912570000000  0.4976410000000 1.0
C      1  0.4750190000000  0.4809160000000  0.5824760000000 1.0
C      1  0.4131580000000  0.4767770000000  0.5129250000000 1.0
C      1  0.5193330000000  0.5185960000000  0.4226570000000 1.0
C      1  0.5515000000000  0.4742830000000  0.5730000000000 1.0
C      1  0.5070660000000  0.4972590000000  0.5319610000000 1.0
C      1  0.4181530000000  0.5197330000000  0.4990750000000 1.0
C      1  0.4146490000000  0.5006020000000  0.4634630000000 1.0
C      1  0.4070360000000  0.4935810000000  0.4907480000000 1.0
C      1  0.5296060000000  0.4895830000000  0.5844370000000 1.0
C      1  0.5305910000000  0.5063050000000  0.4684270000000 1.0
C      1  0.5322590000000  0.4774440000000  0.5060340000000 1.0
C      1  0.4201210000000  0.4932570000000  0.5359070000000 1.0
C      1  0.5791550000000  0.5208730000000  0.4715980000000 1.0
C      1  0.4932940000000  0.4417610000000  0.5238960000000 1.0
C      1  0.5074950000000  0.5440640000000  0.4306730000000 1.0
C      1  0.4378670000000  0.4822760000000  0.5547660000000 1.0
C      1  0.5115050000000  0.5240080000000  0.5265340000000 1.0
C      1  0.5096850000000  0.4683930000000  0.4900560000000 1.0
C      1  0.4567610000000  0.5612200000000  0.5283070000000 1.0
C      1  0.5067870000000  0.4888000000000  0.4691510000000 1.0
C      1  0.4932030000000  0.6025360000000  0.5188310000000 1.0
C      1  0.4433950000000  0.4390360000000  0.5261230000000 1.0
C      1  0.4790940000000  0.5660230000000  0.5461090000000 1.0
C      1  0.5784080000000  0.5003590000000  0.5339560000000 1.0
C      1  0.5333340000000  0.4609330000000  0.4325010000000 1.0
C      1  0.4262350000000  0.4525700000000  0.5077080000000 1.0
C      1  0.5661760000000  0.5473110000000  0.5167610000000 1.0
C      1  0.4611510000000  0.4463660000000  0.4399410000000 1.0
C      1  0.5463850000000  0.5687400000000  0.5164790000000 1.0
C      1  0.4596290000000  0.4191560000000  0.5088130000000 1.0
C      1  0.4598880000000  0.4912970000000  0.4759290000000 1.0
C      1  0.5410590000000  0.4227200000000  0.5168610000000 1.0
C      1  0.4483630000000  0.4545460000000  0.5510520000000 1.0
C      1  0.4498940000000  0.4214570000000  0.4813930000000 1.0
C      1  0.5160550000000  0.4095940000000  0.5128590000000 1.0
C      1  0.4381170000000  0.4482510000000  0.4805850000000 1.0
C      1  0.5763680000000  0.4931370000000  0.4821000000000 1.0
C      1  0.5128850000000  0.4493540000000  0.5444750000000 1.0
C      1  0.5206160000000  0.5793510000000  0.4686570000000 1.0
C      1  0.5738480000000  0.4825270000000  0.5554940000000 1.0
C      1  0.5765590000000  0.4558170000000  0.5438780000000 1.0
C      1  0.5839720000000  0.4840930000000  0.5096630000000 1.0
C      1  0.5617190000000  0.4379070000000  0.4990120000000 1.0
C      1  0.5285840000000  0.5730960000000  0.5389750000000 1.0
C      1  0.4605790000000  0.5266190000000  0.5624960000000 1.0
C      1  0.4486620000000  0.5070200000000  0.4964900000000 1.0
C      1  0.4847840000000  0.5050430000000  0.4723310000000 1.0
C      1  0.5449790000000  0.5084110000000  0.4380530000000 1.0
C      1  0.5370180000000  0.4331850000000  0.5437560000000 1.0
C      1  0.5425500000000  0.5763650000000  0.4880720000000 1.0
C      1  0.5690470000000  0.4717760000000  0.4615810000000 1.0
C      1  0.5086100000000  0.4694400000000  0.4204560000000 1.0
C      1  0.5654460000000  0.5274430000000  0.4466040000000 1.0
C      1  0.4472780000000  0.5336500000000  0.5365310000000 1.0
C      1  0.5586510000000  0.4466750000000  0.4713920000000 1.0
C      1  0.5110060000000  0.4463220000000  0.4703930000000 1.0
C      1  0.5549590000000  0.5537220000000  0.4487430000000 1.0
C      1  0.4553590000000  0.5345230000000  0.4375010000000 1.0
C      1  0.4936640000000  0.5865120000000  0.4718540000000 1.0
C      1  0.5538230000000  0.4799650000000  0.4379600000000 1.0
C      1  0.5760150000000  0.5439340000000  0.4892630000000 1.0
C      1  0.5312550000000  0.5177020000000  0.5775650000000 1.0
C      1  0.4836060000000  0.5442510000000  0.5650680000000 1.0
C      1  0.4381340000000  0.4890270000000  0.4508970000000 1.0
C      1  0.4736670000000  0.4922740000000  0.4175120000000 1.0
C      1  0.4829830000000  0.4433700000000  0.4653500000000 1.0
C      1  0.4890660000000  0.4154970000000  0.5135080000000 1.0
C      1  0.5467560000000  0.4956920000000  0.4896050000000 1.0
C      1  0.5261440000000  0.5576120000000  0.4486970000000 1.0
C      1  0.4184890000000  0.5287370000000  0.4708500000000 1.0
C      1  0.5039210000000  0.4760260000000  0.5859100000000 1.0
C      1  0.4578750000000  0.5736030000000  0.5012650000000 1.0
C      1  0.5114450000000  0.5397970000000  0.5738960000000 1.0
C      1  0.4847140000000  0.4653290000000  0.5070300000000 1.0
C      1  0.5788290000000  0.4561210000000  0.5156780000000 1.0
C      1  0.5632700000000  0.5637890000000  0.4737640000000 1.0
C      1  0.4215630000000  0.5209560000000  0.5282590000000 1.0
C      1  0.4524070000000  0.5066790000000  0.4298340000000 1.0
C      1  0.4791690000000  0.4640340000000  0.4232720000000 1.0
C      1  0.5029730000000  0.4973730000000  0.4141450000000 1.0
C      1  0.5263440000000  0.4776460000000  0.5331200000000 1.0
C      1  0.4526210000000  0.5653000000000  0.4735850000000 1.0
C      1  0.4703560000000  0.4549080000000  0.5697110000000 1.0
C      1  0.4952830000000  0.5292920000000  0.4836650000000 1.0
C      1  0.5009020000000  0.5828470000000  0.5368680000000 1.0
C      1  0.5683320000000  0.5273330000000  0.5377860000000 1.0
END
