TITL C-119454-4388-8 28.8343521758219 125000 -727.51328766203 0 0 103 (C1) n - 1
REM
REM in /rds/project/t2_vol4/rds-t2-cs072/BORA/CARBON/from-Arr/AIRSS/Generating-Clusters/GAP-ML-2020/Only-C1/SD-CG/HFTN-CG
REM
REM
REM
REM
REM
REM ./C.cell (11c1c37f851c82e70ff6c80c92926a4b)
REM AIRSS Version 0.9.1 bugfix July 2018 build 013d7b7c2542+ Fri, 06 Jul 2018 19:26:36 +0100
REM compiler GCC version 9.3.0
REM options -cpp -mtune=generic -march=x86-64 -g -O0
REM seed 764875622 295376283 1553893664 -1489627673 1833578398 545854665 145301108 1816958741 -2005607353 2116832487 -965942553 934328089 1442008402 1325568434 -291076387 311470426 -796262859 1860224799 1591742801 1535788268 83591862 -654168148 418712270 -796376486 -265630733 -1834945643 1913615550 1995866385 -191999173 178117485 1376262420 1735807894 1784210905
REM
CELL 1.54180   50.00000   50.00000   50.00000   90.00000   90.00000   90.00000
LATT -1
SFAC C  
C      1  0.5137540000000  0.5708570000000  0.4880710000000 1.0
C      1  0.4498930000000  0.5794840000000  0.5070240000000 1.0
C      1  0.5658050000000  0.5311860000000  0.5475670000000 1.0
C      1  0.5563470000000  0.4923360000000  0.5721490000000 1.0
C      1  0.4778730000000  0.4696130000000  0.4173340000000 1.0
C      1  0.5913330000000  0.4874440000000  0.4930090000000 1.0
C      1  0.4483860000000  0.4326350000000  0.4987160000000 1.0
C      1  0.5565920000000  0.5282920000000  0.4456800000000 1.0
C      1  0.5897390000000  0.5112960000000  0.5094330000000 1.0
C      1  0.5031320000000  0.5142190000000  0.4569540000000 1.0
C      1  0.4225580000000  0.4627170000000  0.5445600000000 1.0
C      1  0.5016770000000  0.5427450000000  0.4999870000000 1.0
C      1  0.5313750000000  0.4316740000000  0.5448380000000 1.0
C      1  0.5017100000000  0.4765290000000  0.5115970000000 1.0
C      1  0.4986270000000  0.5233510000000  0.4106050000000 1.0
C      1  0.5078690000000  0.5183310000000  0.4845270000000 1.0
C      1  0.4659950000000  0.4899930000000  0.4848500000000 1.0
C      1  0.5012420000000  0.5734160000000  0.4614260000000 1.0
C      1  0.4230220000000  0.4615210000000  0.4682440000000 1.0
C      1  0.4713640000000  0.5889350000000  0.4914080000000 1.0
C      1  0.5592660000000  0.5539200000000  0.5308160000000 1.0
C      1  0.4211840000000  0.5125230000000  0.5666790000000 1.0
C      1  0.5803330000000  0.4599400000000  0.4944260000000 1.0
C      1  0.4761170000000  0.5064510000000  0.5679650000000 1.0
C      1  0.4888020000000  0.4453470000000  0.4310830000000 1.0
C      1  0.4322350000000  0.4685610000000  0.4455750000000 1.0
C      1  0.5193990000000  0.5226090000000  0.5718450000000 1.0
C      1  0.4790270000000  0.4613090000000  0.5225290000000 1.0
C      1  0.5484410000000  0.4489040000000  0.5599810000000 1.0
C      1  0.5100880000000  0.4726560000000  0.5783960000000 1.0
C      1  0.5097500000000  0.5691160000000  0.5480590000000 1.0
C      1  0.4847330000000  0.4283670000000  0.5260400000000 1.0
C      1  0.4762910000000  0.5295970000000  0.5504830000000 1.0
C      1  0.4547100000000  0.4269770000000  0.5260430000000 1.0
C      1  0.5450060000000  0.5061160000000  0.4275390000000 1.0
C      1  0.4189920000000  0.5412110000000  0.5006080000000 1.0
C      1  0.5188830000000  0.4745160000000  0.4808950000000 1.0
C      1  0.4518490000000  0.5165460000000  0.4792510000000 1.0
C      1  0.5049110000000  0.4778410000000  0.4097420000000 1.0
C      1  0.4956780000000  0.5882280000000  0.5054860000000 1.0
C      1  0.5760440000000  0.4859760000000  0.5522620000000 1.0
C      1  0.5431830000000  0.5623440000000  0.4824210000000 1.0
C      1  0.5884340000000  0.4965270000000  0.4658940000000 1.0
C      1  0.5045450000000  0.5399010000000  0.5533680000000 1.0
C      1  0.5565360000000  0.4802550000000  0.4314020000000 1.0
C      1  0.4565590000000  0.4874110000000  0.5582440000000 1.0
C      1  0.4883050000000  0.5006590000000  0.5011380000000 1.0
C      1  0.5017150000000  0.5002670000000  0.5778620000000 1.0
C      1  0.5632780000000  0.5535280000000  0.5014870000000 1.0
C      1  0.5734790000000  0.4538750000000  0.4669280000000 1.0
C      1  0.4498010000000  0.4964270000000  0.5270440000000 1.0
C      1  0.4133360000000  0.5284510000000  0.5256550000000 1.0
C      1  0.5172990000000  0.5585920000000  0.4434290000000 1.0
C      1  0.5385600000000  0.4698900000000  0.5764690000000 1.0
C      1  0.4948560000000  0.4214520000000  0.5000390000000 1.0
C      1  0.5333490000000  0.5078670000000  0.5177340000000 1.0
C      1  0.4300180000000  0.4567430000000  0.4960830000000 1.0
C      1  0.4492170000000  0.5582130000000  0.4641480000000 1.0
C      1  0.5033990000000  0.4318700000000  0.5492590000000 1.0
C      1  0.4146380000000  0.4707920000000  0.5186480000000 1.0
C      1  0.5189590000000  0.5028980000000  0.4117940000000 1.0
C      1  0.4731580000000  0.4300780000000  0.4821500000000 1.0
C      1  0.5288440000000  0.4450830000000  0.4761380000000 1.0
C      1  0.4445220000000  0.4446470000000  0.5462160000000 1.0
C      1  0.5494290000000  0.4427940000000  0.4568530000000 1.0
C      1  0.4527900000000  0.5493750000000  0.5494670000000 1.0
C      1  0.5211900000000  0.4859840000000  0.5283950000000 1.0
C      1  0.4713130000000  0.5165840000000  0.5223170000000 1.0
C      1  0.5778070000000  0.4764420000000  0.4501880000000 1.0
C      1  0.5229280000000  0.4267500000000  0.4966790000000 1.0
C      1  0.5430220000000  0.5523320000000  0.4551020000000 1.0
C      1  0.4766560000000  0.4451780000000  0.4577930000000 1.0
C      1  0.4727390000000  0.5760870000000  0.4660290000000 1.0
C      1  0.4933780000000  0.4523310000000  0.5666900000000 1.0
C      1  0.4205860000000  0.5007340000000  0.5158280000000 1.0
C      1  0.4888480000000  0.5803370000000  0.5328100000000 1.0
C      1  0.4707670000000  0.5363220000000  0.5012870000000 1.0
C      1  0.4544520000000  0.5140420000000  0.4300800000000 1.0
C      1  0.5828830000000  0.5103950000000  0.5374870000000 1.0
C      1  0.5323390000000  0.5014250000000  0.4895490000000 1.0
C      1  0.5802440000000  0.5329130000000  0.4916470000000 1.0
C      1  0.5699790000000  0.4587240000000  0.5437990000000 1.0
C      1  0.5421720000000  0.4304730000000  0.5178530000000 1.0
C      1  0.5477610000000  0.5193110000000  0.5683340000000 1.0
C      1  0.5022630000000  0.4857130000000  0.4568870000000 1.0
C      1  0.5157030000000  0.4526890000000  0.4216180000000 1.0
C      1  0.4340470000000  0.5624050000000  0.4894510000000 1.0
C      1  0.5781150000000  0.5227000000000  0.4643220000000 1.0
C      1  0.5416440000000  0.4552560000000  0.4317060000000 1.0
C      1  0.4744990000000  0.4757820000000  0.4603780000000 1.0
C      1  0.4255890000000  0.5155050000000  0.4906660000000 1.0
C      1  0.4606350000000  0.5724650000000  0.5337420000000 1.0
C      1  0.5330940000000  0.5612820000000  0.5339060000000 1.0
C      1  0.4275480000000  0.5348190000000  0.5506930000000 1.0
C      1  0.5181200000000  0.5354730000000  0.5244080000000 1.0
C      1  0.4559130000000  0.4737390000000  0.5074100000000 1.0
C      1  0.5048840000000  0.5348280000000  0.4355120000000 1.0
C      1  0.4276380000000  0.4862820000000  0.5640540000000 1.0
C      1  0.4718640000000  0.5188510000000  0.4096520000000 1.0
C      1  0.4568670000000  0.4833670000000  0.4350500000000 1.0
C      1  0.5671750000000  0.4473880000000  0.5172110000000 1.0
C      1  0.4491490000000  0.5308410000000  0.4536210000000 1.0
C      1  0.4679530000000  0.4610320000000  0.5542920000000 1.0
END
