TITL C-112700-3883-1 13.3568243836897 125000 -524.191877168067 0 0 76 (C1) n - 1
REM
REM in /rds/project/t2_vol4/rds-t2-cs072/BORA/CARBON/from-Arr/AIRSS/Generating-Clusters/GAP-ML-2020/Only-C1/SD-CG/HFTN-CG
REM
REM
REM
REM
REM
REM ./C.cell (11c1c37f851c82e70ff6c80c92926a4b)
REM AIRSS Version 0.9.1 bugfix July 2018 build 013d7b7c2542+ Fri, 06 Jul 2018 19:26:36 +0100
REM compiler GCC version 9.3.0
REM options -cpp -mtune=generic -march=x86-64 -g -O0
REM seed -1924106159 -1577632102 -552178669 -104623697 -1347146205 855085917 -1005620599 614133636 -1186711381 -546250642 -898617132 -2002302192 -1218230197 1148390149 -921765761 157505770 39990966 -1365514435 2005396669 -1426201767 759847213 458273989 -594289380 -524416653 64484631 2098703414 1310549408 626035971 261472679 381408535 -422941845 163016258 1165781133
REM
CELL 1.54180   50.00000   50.00000   50.00000   90.00000   90.00000   90.00000
LATT -1
SFAC C  
C      1  0.5153180000000  0.5233710000000  0.4405550000000 1.0
C      1  0.5694850000000  0.4821940000000  0.4681390000000 1.0
C      1  0.5502530000000  0.5395730000000  0.5544480000000 1.0
C      1  0.5804310000000  0.5217320000000  0.5224720000000 1.0
C      1  0.5095940000000  0.4739880000000  0.5697050000000 1.0
C      1  0.4792640000000  0.4840730000000  0.4376930000000 1.0
C      1  0.5089330000000  0.5600220000000  0.4781620000000 1.0
C      1  0.4636500000000  0.5387140000000  0.4429810000000 1.0
C      1  0.4469080000000  0.5162500000000  0.4357250000000 1.0
C      1  0.5774380000000  0.5093600000000  0.4703820000000 1.0
C      1  0.5302010000000  0.4731940000000  0.5303190000000 1.0
C      1  0.4593950000000  0.5439050000000  0.5303300000000 1.0
C      1  0.4905540000000  0.4367750000000  0.5334310000000 1.0
C      1  0.5573910000000  0.4684620000000  0.4932390000000 1.0
C      1  0.4974080000000  0.4366800000000  0.4745940000000 1.0
C      1  0.5247370000000  0.5114150000000  0.4918380000000 1.0
C      1  0.5247120000000  0.5485190000000  0.4571660000000 1.0
C      1  0.5000180000000  0.5414900000000  0.5574670000000 1.0
C      1  0.4698140000000  0.5055600000000  0.4222940000000 1.0
C      1  0.5283170000000  0.4296790000000  0.5109560000000 1.0
C      1  0.5083650000000  0.5226180000000  0.5763760000000 1.0
C      1  0.5808990000000  0.5264180000000  0.4935610000000 1.0
C      1  0.4351510000000  0.4389430000000  0.4899020000000 1.0
C      1  0.4221510000000  0.5136200000000  0.4772680000000 1.0
C      1  0.5248650000000  0.4744680000000  0.4587160000000 1.0
C      1  0.5492980000000  0.4835060000000  0.4463640000000 1.0
C      1  0.5235310000000  0.4456970000000  0.4667660000000 1.0
C      1  0.5015840000000  0.5345010000000  0.5281330000000 1.0
C      1  0.5633850000000  0.5253720000000  0.4501280000000 1.0
C      1  0.4825140000000  0.4767200000000  0.5607100000000 1.0
C      1  0.5693950000000  0.5454290000000  0.5340900000000 1.0
C      1  0.5279880000000  0.5215550000000  0.5175350000000 1.0
C      1  0.4284730000000  0.4535710000000  0.5152680000000 1.0
C      1  0.5233590000000  0.4557140000000  0.5528230000000 1.0
C      1  0.4605870000000  0.4844960000000  0.4956000000000 1.0
C      1  0.4851430000000  0.5432080000000  0.4851720000000 1.0
C      1  0.4879340000000  0.5286390000000  0.4285780000000 1.0
C      1  0.4710830000000  0.4552190000000  0.5454950000000 1.0
C      1  0.4599000000000  0.5443780000000  0.4705400000000 1.0
C      1  0.4820570000000  0.5497520000000  0.5138570000000 1.0
C      1  0.4425460000000  0.4924730000000  0.5411790000000 1.0
C      1  0.4213580000000  0.4592710000000  0.4744110000000 1.0
C      1  0.5513960000000  0.5107020000000  0.5585880000000 1.0
C      1  0.4144720000000  0.4987120000000  0.5003890000000 1.0
C      1  0.5592240000000  0.4764850000000  0.5219670000000 1.0
C      1  0.4620880000000  0.4640210000000  0.4480840000000 1.0
C      1  0.4908580000000  0.5046080000000  0.5301190000000 1.0
C      1  0.5661210000000  0.5513070000000  0.4883140000000 1.0
C      1  0.5177220000000  0.4315850000000  0.5407620000000 1.0
C      1  0.4385510000000  0.5339850000000  0.5152000000000 1.0
C      1  0.4696460000000  0.5333180000000  0.5551970000000 1.0
C      1  0.5099090000000  0.4697460000000  0.5060630000000 1.0
C      1  0.4861880000000  0.4917240000000  0.5033160000000 1.0
C      1  0.5428290000000  0.4417880000000  0.4898020000000 1.0
C      1  0.5685780000000  0.4992390000000  0.5360980000000 1.0
C      1  0.5526810000000  0.5485720000000  0.4625640000000 1.0
C      1  0.4444770000000  0.4639060000000  0.5365300000000 1.0
C      1  0.4276520000000  0.5089420000000  0.5235700000000 1.0
C      1  0.4301170000000  0.5015070000000  0.4527990000000 1.0
C      1  0.5188040000000  0.5729900000000  0.4999050000000 1.0
C      1  0.4718710000000  0.4399040000000  0.4624040000000 1.0
C      1  0.4356180000000  0.4732100000000  0.4548210000000 1.0
C      1  0.5435850000000  0.5105610000000  0.4366910000000 1.0
C      1  0.4374160000000  0.5356910000000  0.4861610000000 1.0
C      1  0.5006080000000  0.4395460000000  0.5041290000000 1.0
C      1  0.5240500000000  0.5011940000000  0.5674700000000 1.0
C      1  0.5203350000000  0.4990040000000  0.5371740000000 1.0
C      1  0.4685190000000  0.5032930000000  0.5516620000000 1.0
C      1  0.5261450000000  0.5557420000000  0.5492700000000 1.0
C      1  0.5586480000000  0.5624300000000  0.5140640000000 1.0
C      1  0.4125410000000  0.4716040000000  0.4987520000000 1.0
C      1  0.4527910000000  0.4246250000000  0.4763210000000 1.0
C      1  0.4968560000000  0.5114520000000  0.4824080000000 1.0
C      1  0.5324860000000  0.5708320000000  0.5231970000000 1.0
C      1  0.5298950000000  0.4819090000000  0.4879060000000 1.0
C      1  0.5019340000000  0.4953410000000  0.4539310000000 1.0
END
