TITL C-117364-2011-5 29.3583852716712 125000 -892.364809304908 0 0 128 (C1) n - 1
REM
REM in /rds/project/t2_vol4/rds-t2-cs072/BORA/CARBON/from-Arr/AIRSS/Generating-Clusters/GAP-ML-2020/Only-C1/SD-CG/HFTN-CG
REM
REM
REM
REM
REM
REM ./C.cell (11c1c37f851c82e70ff6c80c92926a4b)
REM AIRSS Version 0.9.1 bugfix July 2018 build 013d7b7c2542+ Fri, 06 Jul 2018 19:26:36 +0100
REM compiler GCC version 9.3.0
REM options -cpp -mtune=generic -march=x86-64 -g -O0
REM seed -1415270134 -513323145 -1566053612 480333046 415533659 -617852699 -1338822711 -567991746 -969652627 -1104456034 781699519 1675735521 1302082512 -1830126695 1921947825 844384871 -1783307958 261126404 -694959630 481060034 -477150161 1280015595 -1094840299 727191851 1434983404 721080303 -2068756964 -843555487 -1818414021 1192089596 1944323753 1124197829 -1670165640
REM
CELL 1.54180   50.00000   50.00000   50.00000   90.00000   90.00000   90.00000
LATT -1
SFAC C  
C      1  0.4971450000000  0.5185770000000  0.5958050000000 1.0
C      1  0.4683020000000  0.4421220000000  0.4342150000000 1.0
C      1  0.5612190000000  0.5166090000000  0.4244090000000 1.0
C      1  0.5131630000000  0.4226500000000  0.5483490000000 1.0
C      1  0.4905740000000  0.5445640000000  0.5842990000000 1.0
C      1  0.5657970000000  0.5719390000000  0.5374800000000 1.0
C      1  0.5028430000000  0.5761710000000  0.5497480000000 1.0
C      1  0.4749210000000  0.5824120000000  0.5427960000000 1.0
C      1  0.5211780000000  0.4749800000000  0.4816960000000 1.0
C      1  0.4126470000000  0.5228920000000  0.5299590000000 1.0
C      1  0.4146630000000  0.5001910000000  0.5484100000000 1.0
C      1  0.4757910000000  0.4526430000000  0.5353600000000 1.0
C      1  0.4393410000000  0.4993090000000  0.4915810000000 1.0
C      1  0.4636320000000  0.4381920000000  0.4616090000000 1.0
C      1  0.4431270000000  0.4800120000000  0.5802880000000 1.0
C      1  0.5800660000000  0.4389000000000  0.4716640000000 1.0
C      1  0.5227850000000  0.4839240000000  0.5275350000000 1.0
C      1  0.4977520000000  0.4587700000000  0.4938700000000 1.0
C      1  0.4722110000000  0.5472100000000  0.5134800000000 1.0
C      1  0.5693900000000  0.4682670000000  0.5520220000000 1.0
C      1  0.4276630000000  0.5612350000000  0.5074070000000 1.0
C      1  0.4191990000000  0.4577790000000  0.4994700000000 1.0
C      1  0.5632010000000  0.4435660000000  0.4501270000000 1.0
C      1  0.4749380000000  0.5751840000000  0.4495740000000 1.0
C      1  0.4088330000000  0.4712340000000  0.4756620000000 1.0
C      1  0.4581020000000  0.5569290000000  0.5438250000000 1.0
C      1  0.5366280000000  0.4868140000000  0.5025030000000 1.0
C      1  0.4911810000000  0.4094730000000  0.5362690000000 1.0
C      1  0.4966050000000  0.4711750000000  0.5214200000000 1.0
C      1  0.4770330000000  0.4181870000000  0.4757930000000 1.0
C      1  0.5187380000000  0.4253880000000  0.4366130000000 1.0
C      1  0.5258960000000  0.4581050000000  0.5743780000000 1.0
C      1  0.5779390000000  0.5586710000000  0.5143740000000 1.0
C      1  0.4451110000000  0.4381260000000  0.5636030000000 1.0
C      1  0.4675550000000  0.5328990000000  0.4612800000000 1.0
C      1  0.5482840000000  0.4513430000000  0.5556650000000 1.0
C      1  0.5824670000000  0.4890760000000  0.5395930000000 1.0
C      1  0.5172570000000  0.5789610000000  0.5254350000000 1.0
C      1  0.5247550000000  0.5110640000000  0.5972000000000 1.0
C      1  0.5322920000000  0.4225760000000  0.4835870000000 1.0
C      1  0.5260200000000  0.5543060000000  0.4280780000000 1.0
C      1  0.5481230000000  0.4276780000000  0.5080880000000 1.0
C      1  0.5427140000000  0.5453610000000  0.5703610000000 1.0
C      1  0.4159270000000  0.4482920000000  0.5260520000000 1.0
C      1  0.4919400000000  0.4851760000000  0.4456860000000 1.0
C      1  0.5565130000000  0.5711760000000  0.4969440000000 1.0
C      1  0.5390910000000  0.5287400000000  0.4775950000000 1.0
C      1  0.4369120000000  0.4294310000000  0.5380360000000 1.0
C      1  0.5384690000000  0.4298470000000  0.5364440000000 1.0
C      1  0.4713980000000  0.5169950000000  0.5069900000000 1.0
C      1  0.5932410000000  0.4607630000000  0.5022630000000 1.0
C      1  0.4868960000000  0.4822350000000  0.4145970000000 1.0
C      1  0.4692440000000  0.4084240000000  0.5006820000000 1.0
C      1  0.5374160000000  0.5311890000000  0.4148250000000 1.0
C      1  0.5061180000000  0.5243910000000  0.5475010000000 1.0
C      1  0.4808750000000  0.5333250000000  0.4171910000000 1.0
C      1  0.4436180000000  0.4813060000000  0.4394040000000 1.0
C      1  0.4878450000000  0.5863850000000  0.4722150000000 1.0
C      1  0.4340640000000  0.5045420000000  0.5691040000000 1.0
C      1  0.5617560000000  0.5660390000000  0.5628890000000 1.0
C      1  0.4131750000000  0.4696890000000  0.5469320000000 1.0
C      1  0.4900850000000  0.4940600000000  0.5796140000000 1.0
C      1  0.4115330000000  0.5469440000000  0.4896290000000 1.0
C      1  0.5113990000000  0.4674830000000  0.4052620000000 1.0
C      1  0.4762260000000  0.4955940000000  0.5271120000000 1.0
C      1  0.5141820000000  0.4920380000000  0.4606050000000 1.0
C      1  0.4811120000000  0.5083790000000  0.5540710000000 1.0
C      1  0.5069120000000  0.5633260000000  0.4801670000000 1.0
C      1  0.5393590000000  0.4278540000000  0.4559040000000 1.0
C      1  0.5040070000000  0.4259150000000  0.4897760000000 1.0
C      1  0.5901880000000  0.4816510000000  0.4570720000000 1.0
C      1  0.4929770000000  0.5107830000000  0.4054240000000 1.0
C      1  0.5901880000000  0.5085930000000  0.4659260000000 1.0
C      1  0.4720170000000  0.5994760000000  0.5207580000000 1.0
C      1  0.4181780000000  0.5196600000000  0.4544450000000 1.0
C      1  0.5980000000000  0.4611660000000  0.4743000000000 1.0
C      1  0.5699180000000  0.5515450000000  0.4453110000000 1.0
C      1  0.4283140000000  0.4595220000000  0.5689510000000 1.0
C      1  0.5044530000000  0.4399660000000  0.5696620000000 1.0
C      1  0.5167170000000  0.5191560000000  0.4651030000000 1.0
C      1  0.5846160000000  0.5105960000000  0.4961020000000 1.0
C      1  0.4633180000000  0.5102100000000  0.4801170000000 1.0
C      1  0.5505000000000  0.5226220000000  0.5486950000000 1.0
C      1  0.5379820000000  0.5605790000000  0.4762120000000 1.0
C      1  0.4691260000000  0.4855810000000  0.4624840000000 1.0
C      1  0.5875580000000  0.5321450000000  0.5176690000000 1.0
C      1  0.5140690000000  0.5318650000000  0.5197660000000 1.0
C      1  0.4227650000000  0.5461820000000  0.4638150000000 1.0
C      1  0.5785000000000  0.5172540000000  0.5421040000000 1.0
C      1  0.4291350000000  0.5477720000000  0.5322330000000 1.0
C      1  0.4120830000000  0.5024560000000  0.4787670000000 1.0
C      1  0.4701370000000  0.5918340000000  0.4951250000000 1.0
C      1  0.5790020000000  0.5261750000000  0.4452350000000 1.0
C      1  0.5110780000000  0.5513770000000  0.5644820000000 1.0
C      1  0.4230940000000  0.4669100000000  0.4530000000000 1.0
C      1  0.5920240000000  0.4863970000000  0.5127290000000 1.0
C      1  0.5431560000000  0.5302170000000  0.5957630000000 1.0
C      1  0.5125780000000  0.4407330000000  0.4137030000000 1.0
C      1  0.4590390000000  0.5259390000000  0.4330570000000 1.0
C      1  0.5445840000000  0.5827870000000  0.5199990000000 1.0
C      1  0.4459750000000  0.4711730000000  0.5001250000000 1.0
C      1  0.4360120000000  0.5096530000000  0.4349350000000 1.0
C      1  0.5328350000000  0.4861030000000  0.4049520000000 1.0
C      1  0.5709650000000  0.4701790000000  0.4382680000000 1.0
C      1  0.4618310000000  0.4664080000000  0.4209890000000 1.0
C      1  0.4060710000000  0.5217090000000  0.5010440000000 1.0
C      1  0.5455860000000  0.5630080000000  0.4472410000000 1.0
C      1  0.4518180000000  0.5577900000000  0.4653800000000 1.0
C      1  0.4683140000000  0.4621200000000  0.4800220000000 1.0
C      1  0.5735820000000  0.4372530000000  0.4994160000000 1.0
C      1  0.4701650000000  0.4729160000000  0.5823400000000 1.0
C      1  0.4969150000000  0.4040820000000  0.5093450000000 1.0
C      1  0.4649280000000  0.5469420000000  0.5708210000000 1.0
C      1  0.5199950000000  0.4872710000000  0.5774540000000 1.0
C      1  0.5209420000000  0.5118570000000  0.4023390000000 1.0
C      1  0.4970600000000  0.5402140000000  0.4614300000000 1.0
C      1  0.4567540000000  0.4737960000000  0.5276000000000 1.0
C      1  0.4919760000000  0.4290410000000  0.4275550000000 1.0
C      1  0.4640850000000  0.4228180000000  0.5267140000000 1.0
C      1  0.4961410000000  0.5540330000000  0.4335510000000 1.0
C      1  0.4560070000000  0.5211840000000  0.5670680000000 1.0
C      1  0.4537930000000  0.5662750000000  0.4948770000000 1.0
C      1  0.5576880000000  0.4883500000000  0.4199330000000 1.0
C      1  0.5020770000000  0.5562020000000  0.5089820000000 1.0
C      1  0.4755470000000  0.4490050000000  0.5667300000000 1.0
C      1  0.5275960000000  0.5018700000000  0.5515330000000 1.0
C      1  0.5419490000000  0.5302040000000  0.5207380000000 1.0
C      1  0.5516990000000  0.5123900000000  0.4982380000000 1.0
END
