TITL C-112728-661-9 -35.5025248449496 125000 -425.78452643779 0 0 64 (C1) n - 1
REM
REM in /rds/project/t2_vol4/rds-t2-cs072/BORA/CARBON/from-Arr/AIRSS/Generating-Clusters/GAP-ML-2020/Only-C1/SD-CG/HFTN-CG
REM
REM
REM
REM
REM
REM ./C.cell (11c1c37f851c82e70ff6c80c92926a4b)
REM AIRSS Version 0.9.1 bugfix July 2018 build 013d7b7c2542+ Fri, 06 Jul 2018 19:26:36 +0100
REM compiler GCC version 9.3.0
REM options -cpp -mtune=generic -march=x86-64 -g -O0
REM seed -381096127 -809405763 -1165205925 1520477796 1919026656 1125935039 -1962596146 -104956405 -1935345425 1188386973 -442579541 -268295602 784294682 -990315525 77413952 -1903872034 1964092787 1939996575 1824740509 -775741191 -968726488 522880677 603686692 -54109206 -1331600918 762641902 -1900898598 2052239957 773425963 1007388880 386804182 268314930 779837824
REM
CELL 1.54180   50.00000   50.00000   50.00000   90.00000   90.00000   90.00000
LATT -1
SFAC C  
C      1  0.4662520000000  0.5359090000000  0.5044130000000 1.0
C      1  0.4973570000000  0.5292870000000  0.5634400000000 1.0
C      1  0.5559290000000  0.4892850000000  0.5369580000000 1.0
C      1  0.5088570000000  0.5537560000000  0.4722760000000 1.0
C      1  0.5205570000000  0.4553730000000  0.5488210000000 1.0
C      1  0.4473670000000  0.4546530000000  0.4643630000000 1.0
C      1  0.5448980000000  0.5132070000000  0.5485700000000 1.0
C      1  0.5018170000000  0.5793870000000  0.5086720000000 1.0
C      1  0.4934380000000  0.4947310000000  0.5145790000000 1.0
C      1  0.4526960000000  0.5454560000000  0.4659930000000 1.0
C      1  0.5131030000000  0.5080420000000  0.4708770000000 1.0
C      1  0.5156160000000  0.5170540000000  0.4413460000000 1.0
C      1  0.5226080000000  0.5137180000000  0.5684350000000 1.0
C      1  0.5583320000000  0.5522440000000  0.4863770000000 1.0
C      1  0.5304850000000  0.4898780000000  0.4406480000000 1.0
C      1  0.5090850000000  0.5208290000000  0.5153300000000 1.0
C      1  0.4552500000000  0.4282340000000  0.4676280000000 1.0
C      1  0.5005750000000  0.4704310000000  0.5015610000000 1.0
C      1  0.4639130000000  0.4763320000000  0.4547430000000 1.0
C      1  0.4871150000000  0.4453860000000  0.5118340000000 1.0
C      1  0.4389180000000  0.5395170000000  0.4909970000000 1.0
C      1  0.5190230000000  0.4281430000000  0.4778350000000 1.0
C      1  0.4589900000000  0.4547140000000  0.5228410000000 1.0
C      1  0.4798810000000  0.5456400000000  0.4775880000000 1.0
C      1  0.5184620000000  0.5780330000000  0.4865390000000 1.0
C      1  0.5174160000000  0.4909790000000  0.5833170000000 1.0
C      1  0.4909680000000  0.5527030000000  0.5480110000000 1.0
C      1  0.5344850000000  0.5601090000000  0.5261470000000 1.0
C      1  0.5148100000000  0.4495840000000  0.4594790000000 1.0
C      1  0.4394390000000  0.4974670000000  0.5194340000000 1.0
C      1  0.5535720000000  0.5408190000000  0.4597280000000 1.0
C      1  0.4585220000000  0.4994130000000  0.4723590000000 1.0
C      1  0.5055010000000  0.4393980000000  0.5331130000000 1.0
C      1  0.5482970000000  0.5279280000000  0.4989110000000 1.0
C      1  0.5226630000000  0.4663120000000  0.4841610000000 1.0
C      1  0.5428910000000  0.5712310000000  0.5005260000000 1.0
C      1  0.4625300000000  0.4715610000000  0.5451790000000 1.0
C      1  0.5376840000000  0.5307640000000  0.5272610000000 1.0
C      1  0.5584450000000  0.5018550000000  0.4861520000000 1.0
C      1  0.5111930000000  0.4686970000000  0.4385330000000 1.0
C      1  0.4688300000000  0.5231560000000  0.4576670000000 1.0
C      1  0.5355350000000  0.4887820000000  0.4710570000000 1.0
C      1  0.4278040000000  0.4969340000000  0.4768280000000 1.0
C      1  0.5382660000000  0.4424260000000  0.4950840000000 1.0
C      1  0.5062620000000  0.4764020000000  0.5631100000000 1.0
C      1  0.4936270000000  0.4239140000000  0.4903020000000 1.0
C      1  0.4863970000000  0.4882950000000  0.5444810000000 1.0
C      1  0.4486040000000  0.4966890000000  0.5471250000000 1.0
C      1  0.5178410000000  0.5293910000000  0.4889510000000 1.0
C      1  0.4371570000000  0.4682390000000  0.5103220000000 1.0
C      1  0.5265850000000  0.5425950000000  0.4496110000000 1.0
C      1  0.5561840000000  0.4547580000000  0.5119520000000 1.0
C      1  0.4723010000000  0.5147980000000  0.5523500000000 1.0
C      1  0.4856810000000  0.4821510000000  0.4382060000000 1.0
C      1  0.5083140000000  0.5694670000000  0.5331680000000 1.0
C      1  0.4244450000000  0.5161330000000  0.4979560000000 1.0
C      1  0.5652610000000  0.4833830000000  0.5094730000000 1.0
C      1  0.4292060000000  0.4683190000000  0.4833630000000 1.0
C      1  0.5467370000000  0.4615720000000  0.5395710000000 1.0
C      1  0.4700120000000  0.5393090000000  0.5340060000000 1.0
C      1  0.5683630000000  0.5170920000000  0.4629110000000 1.0
C      1  0.4727520000000  0.4116900000000  0.4764650000000 1.0
C      1  0.4668620000000  0.5049480000000  0.5026660000000 1.0
C      1  0.4880320000000  0.5114960000000  0.4384030000000 1.0
END
