TITL C-111157-5680-6 -30.8569850615278 125000 -868.254628868208 0 0 124 (C1) n - 1
REM
REM in /rds/project/t2_vol4/rds-t2-cs072/BORA/CARBON/from-Arr/AIRSS/Generating-Clusters/GAP-ML-2020/Only-C1/SD-CG/HFTN-CG
REM
REM
REM
REM
REM
REM ./C.cell (11c1c37f851c82e70ff6c80c92926a4b)
REM AIRSS Version 0.9.1 bugfix July 2018 build 013d7b7c2542+ Fri, 06 Jul 2018 19:26:36 +0100
REM compiler GCC version 9.3.0
REM options -cpp -mtune=generic -march=x86-64 -g -O0
REM seed 586321931 -286208911 -1254688011 -1626769421 -1528440214 -317965622 -2146101247 1505891155 1609242279 -734555557 85948253 -134186975 -330448408 1342064493 -858436813 -3392156 -1127004815 -1525440246 713667459 805564922 -916789102 -1735803717 -740874905 -571808359 2114507091 1628204036 1735122361 -1986672861 2017051662 -1750867576 1038653349 841423172 -1647728568
REM
CELL 1.54180   50.00000   50.00000   50.00000   90.00000   90.00000   90.00000
LATT -1
SFAC C  
C      1  0.4863450000000  0.5967110000000  0.5034920000000 1.0
C      1  0.5134160000000  0.5506580000000  0.5678760000000 1.0
C      1  0.4753540000000  0.4066650000000  0.4744780000000 1.0
C      1  0.5044980000000  0.4106370000000  0.5165740000000 1.0
C      1  0.5358480000000  0.4411610000000  0.5584420000000 1.0
C      1  0.5469720000000  0.4751530000000  0.4959040000000 1.0
C      1  0.4720030000000  0.4175180000000  0.5484270000000 1.0
C      1  0.4707740000000  0.5599050000000  0.4496500000000 1.0
C      1  0.4639190000000  0.4790360000000  0.4691270000000 1.0
C      1  0.6010420000000  0.4740390000000  0.4919110000000 1.0
C      1  0.5771320000000  0.5530790000000  0.4907760000000 1.0
C      1  0.4768120000000  0.4708730000000  0.5159000000000 1.0
C      1  0.4738180000000  0.4936190000000  0.4169130000000 1.0
C      1  0.4205040000000  0.5418170000000  0.4624690000000 1.0
C      1  0.4504250000000  0.4766200000000  0.4251180000000 1.0
C      1  0.5619230000000  0.4543040000000  0.5186670000000 1.0
C      1  0.5239270000000  0.5038020000000  0.5918620000000 1.0
C      1  0.5567470000000  0.5711910000000  0.4981190000000 1.0
C      1  0.4211020000000  0.4492300000000  0.4918450000000 1.0
C      1  0.5479000000000  0.4642610000000  0.5708150000000 1.0
C      1  0.4870990000000  0.4490460000000  0.4104040000000 1.0
C      1  0.4890010000000  0.4748170000000  0.4588420000000 1.0
C      1  0.5313990000000  0.5767910000000  0.4851960000000 1.0
C      1  0.5889930000000  0.4495510000000  0.4806360000000 1.0
C      1  0.5053090000000  0.5301620000000  0.4364110000000 1.0
C      1  0.5484380000000  0.5192870000000  0.5870570000000 1.0
C      1  0.4784840000000  0.5312260000000  0.5068770000000 1.0
C      1  0.4315760000000  0.4842100000000  0.5579850000000 1.0
C      1  0.4732010000000  0.5911920000000  0.4807470000000 1.0
C      1  0.5713550000000  0.4773230000000  0.5620090000000 1.0
C      1  0.4694430000000  0.5914440000000  0.5257280000000 1.0
C      1  0.4982690000000  0.5372890000000  0.4860090000000 1.0
C      1  0.5332840000000  0.5058230000000  0.5460360000000 1.0
C      1  0.4529920000000  0.4544690000000  0.5272140000000 1.0
C      1  0.4893550000000  0.5365520000000  0.5819250000000 1.0
C      1  0.4691440000000  0.4610840000000  0.5725300000000 1.0
C      1  0.5284420000000  0.5165710000000  0.4546700000000 1.0
C      1  0.5104420000000  0.4295150000000  0.5631100000000 1.0
C      1  0.4632040000000  0.5454910000000  0.5752750000000 1.0
C      1  0.4353550000000  0.4756800000000  0.4531230000000 1.0
C      1  0.4975770000000  0.5513990000000  0.4569450000000 1.0
C      1  0.5233170000000  0.4321060000000  0.5086050000000 1.0
C      1  0.4870330000000  0.4269520000000  0.4531950000000 1.0
C      1  0.5942780000000  0.4871740000000  0.4664960000000 1.0
C      1  0.4795080000000  0.4079660000000  0.5029300000000 1.0
C      1  0.5736380000000  0.5085080000000  0.4660850000000 1.0
C      1  0.4884420000000  0.4911190000000  0.5372710000000 1.0
C      1  0.5533160000000  0.4667370000000  0.4475850000000 1.0
C      1  0.5817080000000  0.5101580000000  0.5181390000000 1.0
C      1  0.4588790000000  0.5388740000000  0.4343830000000 1.0
C      1  0.4828070000000  0.4369520000000  0.5691380000000 1.0
C      1  0.5614810000000  0.5028660000000  0.4949250000000 1.0
C      1  0.4320790000000  0.5366720000000  0.4382320000000 1.0
C      1  0.5702010000000  0.5066070000000  0.5699930000000 1.0
C      1  0.5284430000000  0.4310940000000  0.4245640000000 1.0
C      1  0.4992920000000  0.4104550000000  0.5442340000000 1.0
C      1  0.4593900000000  0.5148010000000  0.4980400000000 1.0
C      1  0.4587250000000  0.4181500000000  0.5215640000000 1.0
C      1  0.5700180000000  0.5475700000000  0.5367860000000 1.0
C      1  0.4263160000000  0.5646040000000  0.5072650000000 1.0
C      1  0.5727710000000  0.5382390000000  0.4668340000000 1.0
C      1  0.4597960000000  0.4503920000000  0.4192880000000 1.0
C      1  0.4389640000000  0.4236970000000  0.4556100000000 1.0
C      1  0.4479570000000  0.4007340000000  0.4698710000000 1.0
C      1  0.5231290000000  0.5685360000000  0.4580720000000 1.0
C      1  0.4600810000000  0.5708360000000  0.5643010000000 1.0
C      1  0.5435380000000  0.4312050000000  0.4859720000000 1.0
C      1  0.5417760000000  0.4386680000000  0.5310970000000 1.0
C      1  0.5384010000000  0.5431920000000  0.5797500000000 1.0
C      1  0.4136540000000  0.4911070000000  0.4689650000000 1.0
C      1  0.4141090000000  0.5417710000000  0.5198760000000 1.0
C      1  0.4962430000000  0.4757630000000  0.4082250000000 1.0
C      1  0.5822750000000  0.4631850000000  0.4560760000000 1.0
C      1  0.5306060000000  0.5428220000000  0.5194760000000 1.0
C      1  0.4090350000000  0.4761400000000  0.4933880000000 1.0
C      1  0.5180100000000  0.5129670000000  0.4830250000000 1.0
C      1  0.5391890000000  0.4562710000000  0.4235890000000 1.0
C      1  0.5019120000000  0.4291860000000  0.4267160000000 1.0
C      1  0.4307130000000  0.5633990000000  0.4789970000000 1.0
C      1  0.4042860000000  0.4955320000000  0.5145960000000 1.0
C      1  0.4421230000000  0.5279210000000  0.5666650000000 1.0
C      1  0.4494920000000  0.5015180000000  0.5709960000000 1.0
C      1  0.4035030000000  0.5213970000000  0.5024980000000 1.0
C      1  0.4816080000000  0.5837850000000  0.5501730000000 1.0
C      1  0.4554740000000  0.5750300000000  0.4686330000000 1.0
C      1  0.4958340000000  0.5093310000000  0.5869530000000 1.0
C      1  0.5370960000000  0.4554080000000  0.4708960000000 1.0
C      1  0.4789930000000  0.5203860000000  0.4248660000000 1.0
C      1  0.5304230000000  0.4864940000000  0.5713460000000 1.0
C      1  0.4601410000000  0.4306310000000  0.4386700000000 1.0
C      1  0.5503800000000  0.4981150000000  0.4451460000000 1.0
C      1  0.5264770000000  0.5839530000000  0.5331050000000 1.0
C      1  0.4775150000000  0.4901450000000  0.5710810000000 1.0
C      1  0.5142090000000  0.5882100000000  0.5069870000000 1.0
C      1  0.4374440000000  0.4367730000000  0.5118300000000 1.0
C      1  0.5398500000000  0.5219960000000  0.4993990000000 1.0
C      1  0.5247450000000  0.5451300000000  0.4164880000000 1.0
C      1  0.5648410000000  0.5177010000000  0.5440680000000 1.0
C      1  0.5042480000000  0.4547030000000  0.4697020000000 1.0
C      1  0.5196320000000  0.4837600000000  0.5015030000000 1.0
C      1  0.5168260000000  0.4889720000000  0.5295530000000 1.0
C      1  0.5252880000000  0.4779950000000  0.4112500000000 1.0
C      1  0.4078800000000  0.5189720000000  0.4745150000000 1.0
C      1  0.4647700000000  0.4885780000000  0.4955140000000 1.0
C      1  0.5022520000000  0.4580700000000  0.4998820000000 1.0
C      1  0.5856490000000  0.5395480000000  0.5143660000000 1.0
C      1  0.5130210000000  0.5572440000000  0.5016060000000 1.0
C      1  0.5408860000000  0.5014540000000  0.4153630000000 1.0
C      1  0.4217430000000  0.5277800000000  0.5449010000000 1.0
C      1  0.5806470000000  0.4691070000000  0.5360480000000 1.0
C      1  0.5495620000000  0.5658540000000  0.5263210000000 1.0
C      1  0.4414040000000  0.5812670000000  0.5254660000000 1.0
C      1  0.4348530000000  0.5755450000000  0.5522500000000 1.0
C      1  0.5700810000000  0.4365460000000  0.4958760000000 1.0
C      1  0.4149670000000  0.4999900000000  0.5409520000000 1.0
C      1  0.4901490000000  0.5205140000000  0.5309160000000 1.0
C      1  0.5970670000000  0.4847500000000  0.5177090000000 1.0
C      1  0.5382040000000  0.5615840000000  0.4354460000000 1.0
C      1  0.4267760000000  0.4471780000000  0.4643490000000 1.0
C      1  0.5163570000000  0.5300450000000  0.5418310000000 1.0
C      1  0.5479070000000  0.5416640000000  0.4532060000000 1.0
C      1  0.4456140000000  0.4600620000000  0.5552010000000 1.0
C      1  0.5371520000000  0.5257350000000  0.4023400000000 1.0
C      1  0.5087810000000  0.5769480000000  0.5538870000000 1.0
END
