TITL C-111158-6553-2 0.0383600205565753 125000 -184.140413294174 0 0 29 (C1) n - 1
REM
REM in /rds/project/t2_vol4/rds-t2-cs072/BORA/CARBON/from-Arr/AIRSS/Generating-Clusters/GAP-ML-2020/Only-C1/SD-CG/HFTN-CG
REM
REM
REM
REM
REM
REM ./C.cell (11c1c37f851c82e70ff6c80c92926a4b)
REM AIRSS Version 0.9.1 bugfix July 2018 build 013d7b7c2542+ Fri, 06 Jul 2018 19:26:36 +0100
REM compiler GCC version 9.3.0
REM options -cpp -mtune=generic -march=x86-64 -g -O0
REM seed -1090837571 -1202299104 -542858890 509107180 -1899091586 2114232348 -1600656199 -411993641 1185685457 1764789419 1945882409 1212868341 693663095 1839987580 1722585903 -1464931445 1431661161 -698303020 2034426868 -389328019 1701525843 2022151799 -197341014 -14394379 1286014234 -1965597951 -2017100136 924031733 16768758 1501836063 -1244645585 -471982073 -852973480
REM
CELL 1.54180   50.00000   50.00000   50.00000   90.00000   90.00000   90.00000
LATT -1
SFAC C  
C      1  0.5311400000000  0.4914570000000  0.4691020000000 1.0
C      1  0.5254890000000  0.5513780000000  0.5163650000000 1.0
C      1  0.4753320000000  0.5391380000000  0.4505560000000 1.0
C      1  0.5434890000000  0.5132760000000  0.4832310000000 1.0
C      1  0.5172550000000  0.4437220000000  0.5234880000000 1.0
C      1  0.4840110000000  0.5124060000000  0.4493120000000 1.0
C      1  0.4765770000000  0.5501450000000  0.4756650000000 1.0
C      1  0.4965760000000  0.4896050000000  0.5055930000000 1.0
C      1  0.5324940000000  0.5089270000000  0.5314710000000 1.0
C      1  0.5054160000000  0.4947230000000  0.4556950000000 1.0
C      1  0.4519300000000  0.4921410000000  0.5145220000000 1.0
C      1  0.4648930000000  0.4702570000000  0.4774190000000 1.0
C      1  0.5425410000000  0.5383910000000  0.4963260000000 1.0
C      1  0.5074160000000  0.4622630000000  0.5433310000000 1.0
C      1  0.4896490000000  0.4428990000000  0.5143250000000 1.0
C      1  0.5346000000000  0.4620850000000  0.5095320000000 1.0
C      1  0.4984000000000  0.5566790000000  0.5101720000000 1.0
C      1  0.5272580000000  0.5348390000000  0.5393930000000 1.0
C      1  0.5513300000000  0.5147360000000  0.5093530000000 1.0
C      1  0.4783920000000  0.4575000000000  0.5375440000000 1.0
C      1  0.5354580000000  0.4673950000000  0.4836330000000 1.0
C      1  0.4587590000000  0.4753030000000  0.5347860000000 1.0
C      1  0.4864740000000  0.4634470000000  0.4952560000000 1.0
C      1  0.5172750000000  0.4853120000000  0.5265650000000 1.0
C      1  0.4754650000000  0.5088170000000  0.5081970000000 1.0
C      1  0.4789970000000  0.4860010000000  0.4579290000000 1.0
C      1  0.4792110000000  0.5353780000000  0.5025520000000 1.0
C      1  0.4908600000000  0.5724710000000  0.4874460000000 1.0
C      1  0.4433130000000  0.4793070000000  0.4912390000000 1.0
END
