TITL C-117353-2675-9 -0.00696672368083034 125000 -419.376043774397 0 0 62 (C1) n - 1
REM
REM in /rds/project/t2_vol4/rds-t2-cs072/BORA/CARBON/from-Arr/AIRSS/Generating-Clusters/GAP-ML-2020/Only-C1/SD-CG/HFTN-CG
REM
REM
REM
REM
REM
REM ./C.cell (11c1c37f851c82e70ff6c80c92926a4b)
REM AIRSS Version 0.9.1 bugfix July 2018 build 013d7b7c2542+ Fri, 06 Jul 2018 19:26:36 +0100
REM compiler GCC version 9.3.0
REM options -cpp -mtune=generic -march=x86-64 -g -O0
REM seed -238788764 1057178 -456468325 -126354672 -1317734770 2048625491 -145489241 -959831467 269036703 1746753140 61179306 -1568147236 -491332487 503737610 330157 1358349719 -1381800784 -1709063927 460930636 -930166267 1748808635 1254817713 -1373087664 -1379416649 999928511 -95072901 666527367 254262162 -992341690 -1299059356 -2013144343 -1419195285 2126263938
REM
CELL 1.54180   50.00000   50.00000   50.00000   90.00000   90.00000   90.00000
LATT -1
SFAC C  
C      1  0.4355620000000  0.4744690000000  0.5194760000000 1.0
C      1  0.4790110000000  0.4414040000000  0.4769650000000 1.0
C      1  0.5128850000000  0.5156680000000  0.5097100000000 1.0
C      1  0.4823810000000  0.4700470000000  0.4460560000000 1.0
C      1  0.5267530000000  0.5081720000000  0.4856160000000 1.0
C      1  0.4399560000000  0.4535670000000  0.5002730000000 1.0
C      1  0.4726990000000  0.5651460000000  0.5195090000000 1.0
C      1  0.5696020000000  0.5256510000000  0.4733830000000 1.0
C      1  0.4416700000000  0.5397660000000  0.4822050000000 1.0
C      1  0.4856760000000  0.5225150000000  0.5011150000000 1.0
C      1  0.5651870000000  0.4759270000000  0.4764480000000 1.0
C      1  0.5720460000000  0.5017720000000  0.4878510000000 1.0
C      1  0.5150100000000  0.4899950000000  0.5255270000000 1.0
C      1  0.4934620000000  0.4870880000000  0.4265320000000 1.0
C      1  0.4671920000000  0.4514880000000  0.5492290000000 1.0
C      1  0.5004760000000  0.4464980000000  0.4564340000000 1.0
C      1  0.5547860000000  0.5237650000000  0.4479100000000 1.0
C      1  0.5089220000000  0.5625720000000  0.4840230000000 1.0
C      1  0.4815290000000  0.5685630000000  0.4917840000000 1.0
C      1  0.5531620000000  0.5487020000000  0.4817500000000 1.0
C      1  0.5402330000000  0.5011880000000  0.4405280000000 1.0
C      1  0.4743830000000  0.5041440000000  0.5611880000000 1.0
C      1  0.4635860000000  0.4354200000000  0.5025800000000 1.0
C      1  0.4495220000000  0.5163490000000  0.4674890000000 1.0
C      1  0.4349970000000  0.4937400000000  0.4769440000000 1.0
C      1  0.4760180000000  0.4331120000000  0.5280820000000 1.0
C      1  0.5106140000000  0.4684720000000  0.5064120000000 1.0
C      1  0.4596310000000  0.4549980000000  0.4577430000000 1.0
C      1  0.4335030000000  0.4995070000000  0.5050810000000 1.0
C      1  0.5039550000000  0.4376650000000  0.5359590000000 1.0
C      1  0.5635840000000  0.4543970000000  0.4942040000000 1.0
C      1  0.5328580000000  0.5571350000000  0.5000340000000 1.0
C      1  0.5167970000000  0.4813630000000  0.4798800000000 1.0
C      1  0.4395340000000  0.4657190000000  0.4738360000000 1.0
C      1  0.5111540000000  0.5065070000000  0.4352370000000 1.0
C      1  0.4823250000000  0.5751590000000  0.5430330000000 1.0
C      1  0.5497650000000  0.4390490000000  0.5096900000000 1.0
C      1  0.4908490000000  0.5520630000000  0.5565610000000 1.0
C      1  0.5411140000000  0.5472950000000  0.4553680000000 1.0
C      1  0.5226740000000  0.4422960000000  0.5156800000000 1.0
C      1  0.5464410000000  0.4759290000000  0.4537510000000 1.0
C      1  0.4717500000000  0.5303370000000  0.5507040000000 1.0
C      1  0.4464500000000  0.4709370000000  0.5459120000000 1.0
C      1  0.4645530000000  0.5353190000000  0.5222870000000 1.0
C      1  0.4880830000000  0.4863380000000  0.4723080000000 1.0
C      1  0.4944620000000  0.4594090000000  0.5551180000000 1.0
C      1  0.5008560000000  0.4894490000000  0.5538780000000 1.0
C      1  0.4982610000000  0.5272250000000  0.4512820000000 1.0
C      1  0.4393920000000  0.5277660000000  0.5088370000000 1.0
C      1  0.4603760000000  0.5588410000000  0.4781720000000 1.0
C      1  0.5220200000000  0.5128330000000  0.5623620000000 1.0
C      1  0.5134100000000  0.5497320000000  0.4585130000000 1.0
C      1  0.5247720000000  0.4595160000000  0.4609400000000 1.0
C      1  0.4838170000000  0.4670150000000  0.4939210000000 1.0
C      1  0.5303830000000  0.5397430000000  0.5246500000000 1.0
C      1  0.5164240000000  0.5397280000000  0.5519090000000 1.0
C      1  0.5639000000000  0.5044990000000  0.5144740000000 1.0
C      1  0.5478200000000  0.5072660000000  0.5531900000000 1.0
C      1  0.4793740000000  0.5146510000000  0.4722090000000 1.0
C      1  0.4506940000000  0.4908260000000  0.5648490000000 1.0
C      1  0.5560350000000  0.5256900000000  0.5316340000000 1.0
C      1  0.5456640000000  0.4886000000000  0.5317760000000 1.0
END
