TITL C-119456-4349-1 -7.86710969944446 125000 -485.578349959562 0 0 71 (C1) n - 1
REM
REM in /rds/project/t2_vol4/rds-t2-cs072/BORA/CARBON/from-Arr/AIRSS/Generating-Clusters/GAP-ML-2020/Only-C1/SD-CG/HFTN-CG
REM
REM
REM
REM
REM
REM ./C.cell (11c1c37f851c82e70ff6c80c92926a4b)
REM AIRSS Version 0.9.1 bugfix July 2018 build 013d7b7c2542+ Fri, 06 Jul 2018 19:26:36 +0100
REM compiler GCC version 9.3.0
REM options -cpp -mtune=generic -march=x86-64 -g -O0
REM seed -1976054360 2107130027 -522843310 805104224 -2107580060 313346854 -1042228787 -1534740202 1661343023 1903673462 755924029 -1921032818 -578638095 -383087480 -528455465 -810685328 1174848433 528543163 986806989 170111785 1360735376 764777709 -2057763478 -1592358990 388977533 -1512432083 -1087603682 -1373681336 -2116005313 1245697706 215138954 -922122329 -299661207
REM
CELL 1.54180   50.00000   50.00000   50.00000   90.00000   90.00000   90.00000
LATT -1
SFAC C  
C      1  0.4788040000000  0.4295150000000  0.4788860000000 1.0
C      1  0.5264120000000  0.4616210000000  0.4701320000000 1.0
C      1  0.5397780000000  0.5270180000000  0.5035190000000 1.0
C      1  0.5244130000000  0.5053990000000  0.4858490000000 1.0
C      1  0.4867170000000  0.4491650000000  0.4381060000000 1.0
C      1  0.5097400000000  0.5493540000000  0.4633310000000 1.0
C      1  0.4683140000000  0.5180930000000  0.4797560000000 1.0
C      1  0.5773100000000  0.4927200000000  0.5066470000000 1.0
C      1  0.5419410000000  0.4789560000000  0.4887760000000 1.0
C      1  0.5036770000000  0.4699140000000  0.4289600000000 1.0
C      1  0.5021780000000  0.4258490000000  0.4972520000000 1.0
C      1  0.4495080000000  0.4905080000000  0.5428460000000 1.0
C      1  0.4223430000000  0.5140210000000  0.4787350000000 1.0
C      1  0.5032540000000  0.4283280000000  0.5256320000000 1.0
C      1  0.4753350000000  0.4587330000000  0.5654350000000 1.0
C      1  0.5291950000000  0.4719410000000  0.4417730000000 1.0
C      1  0.4545440000000  0.5616060000000  0.5130830000000 1.0
C      1  0.4599970000000  0.5411010000000  0.4635610000000 1.0
C      1  0.4683710000000  0.4866140000000  0.5649060000000 1.0
C      1  0.4480090000000  0.4978030000000  0.4881930000000 1.0
C      1  0.4623780000000  0.4604280000000  0.4481080000000 1.0
C      1  0.5393390000000  0.4870060000000  0.5630870000000 1.0
C      1  0.5247010000000  0.5364510000000  0.5570850000000 1.0
C      1  0.5724950000000  0.5240700000000  0.5420150000000 1.0
C      1  0.4581770000000  0.5628670000000  0.4836670000000 1.0
C      1  0.4588970000000  0.4507900000000  0.4755830000000 1.0
C      1  0.4345780000000  0.5254840000000  0.4549340000000 1.0
C      1  0.4289510000000  0.5136640000000  0.5045500000000 1.0
C      1  0.5818080000000  0.5205840000000  0.5149060000000 1.0
C      1  0.4873170000000  0.4934380000000  0.4271440000000 1.0
C      1  0.4922150000000  0.5018030000000  0.5739160000000 1.0
C      1  0.4434040000000  0.5148440000000  0.5291880000000 1.0
C      1  0.5269400000000  0.5194720000000  0.4348380000000 1.0
C      1  0.5247370000000  0.5509360000000  0.5094520000000 1.0
C      1  0.4956030000000  0.4294960000000  0.4557410000000 1.0
C      1  0.4800710000000  0.5442640000000  0.5502390000000 1.0
C      1  0.4634200000000  0.5358820000000  0.5266180000000 1.0
C      1  0.4766340000000  0.5784900000000  0.5198440000000 1.0
C      1  0.4874220000000  0.5391230000000  0.4488880000000 1.0
C      1  0.5638350000000  0.5045210000000  0.4580980000000 1.0
C      1  0.5192160000000  0.5558830000000  0.5363200000000 1.0
C      1  0.4984850000000  0.5190010000000  0.4319560000000 1.0
C      1  0.5026880000000  0.5546510000000  0.4906110000000 1.0
C      1  0.4404460000000  0.5068110000000  0.4356730000000 1.0
C      1  0.5174630000000  0.4514470000000  0.5407520000000 1.0
C      1  0.4929350000000  0.5670880000000  0.5394560000000 1.0
C      1  0.4986960000000  0.5284360000000  0.5659690000000 1.0
C      1  0.5179260000000  0.4331790000000  0.4734590000000 1.0
C      1  0.5594640000000  0.5313180000000  0.4670070000000 1.0
C      1  0.4629870000000  0.4464380000000  0.5430560000000 1.0
C      1  0.5142740000000  0.4834220000000  0.5742330000000 1.0
C      1  0.4988570000000  0.4748850000000  0.4751590000000 1.0
C      1  0.4600850000000  0.4874850000000  0.4353570000000 1.0
C      1  0.4564990000000  0.4708160000000  0.4982390000000 1.0
C      1  0.5474400000000  0.5162380000000  0.5529330000000 1.0
C      1  0.5656830000000  0.5344930000000  0.4946720000000 1.0
C      1  0.4996650000000  0.5045940000000  0.5016710000000 1.0
C      1  0.5522990000000  0.4812740000000  0.5181050000000 1.0
C      1  0.5386880000000  0.5067010000000  0.5261040000000 1.0
C      1  0.4772040000000  0.4249330000000  0.5347300000000 1.0
C      1  0.5425310000000  0.4964690000000  0.4402470000000 1.0
C      1  0.5106430000000  0.4996980000000  0.5281630000000 1.0
C      1  0.5346990000000  0.5393930000000  0.4541460000000 1.0
C      1  0.5686910000000  0.4877290000000  0.4799250000000 1.0
C      1  0.4493300000000  0.4663590000000  0.5273300000000 1.0
C      1  0.4838890000000  0.5289990000000  0.5010360000000 1.0
C      1  0.4997310000000  0.4733700000000  0.5282660000000 1.0
C      1  0.4867440000000  0.4770010000000  0.5010680000000 1.0
C      1  0.4828010000000  0.5760900000000  0.4922220000000 1.0
C      1  0.5038230000000  0.4575440000000  0.5664410000000 1.0
C      1  0.5433560000000  0.4663780000000  0.5424120000000 1.0
END
