TITL C-111161-5865-9 -0.0145635900198244 125000 -420.825984038557 0 0 61 (C1) n - 1
REM
REM in /rds/project/t2_vol4/rds-t2-cs072/BORA/CARBON/from-Arr/AIRSS/Generating-Clusters/GAP-ML-2020/Only-C1/SD-CG/HFTN-CG
REM
REM
REM
REM
REM
REM ./C.cell (11c1c37f851c82e70ff6c80c92926a4b)
REM AIRSS Version 0.9.1 bugfix July 2018 build 013d7b7c2542+ Fri, 06 Jul 2018 19:26:36 +0100
REM compiler GCC version 9.3.0
REM options -cpp -mtune=generic -march=x86-64 -g -O0
REM seed -358601323 -198631658 849124398 1560005899 230982146 -1887665481 -1046463788 -1135611491 1035864011 1780386399 1956595085 1753631534 1946198340 2116047719 473787607 2087270721 406744826 -1782709009 1593012254 1921654987 1614969061 2128539164 -2086551528 93801602 124583905 -754138321 1064886152 -617368268 1224265401 1971575603 -1570266254 926721049 629169940
REM
CELL 1.54180   50.00000   50.00000   50.00000   90.00000   90.00000   90.00000
LATT -1
SFAC C  
C      1  0.4645170000000  0.5432130000000  0.5539970000000 1.0
C      1  0.5020440000000  0.4817340000000  0.4968280000000 1.0
C      1  0.4977810000000  0.5567990000000  0.4895970000000 1.0
C      1  0.5262650000000  0.5599240000000  0.4964600000000 1.0
C      1  0.5287270000000  0.5555090000000  0.5242810000000 1.0
C      1  0.4910470000000  0.5156570000000  0.5243220000000 1.0
C      1  0.5220460000000  0.4900500000000  0.4359830000000 1.0
C      1  0.5350020000000  0.5138400000000  0.4462420000000 1.0
C      1  0.5045340000000  0.5282430000000  0.5742260000000 1.0
C      1  0.4995250000000  0.5511080000000  0.4595660000000 1.0
C      1  0.5011470000000  0.5051810000000  0.4819710000000 1.0
C      1  0.5580870000000  0.4608670000000  0.4894820000000 1.0
C      1  0.4502450000000  0.4780290000000  0.4509810000000 1.0
C      1  0.4571200000000  0.5307960000000  0.4882720000000 1.0
C      1  0.5555440000000  0.5055900000000  0.4645410000000 1.0
C      1  0.4414160000000  0.5117280000000  0.5290260000000 1.0
C      1  0.4464810000000  0.4604840000000  0.4999980000000 1.0
C      1  0.5400220000000  0.4385590000000  0.4891260000000 1.0
C      1  0.5600050000000  0.5253210000000  0.4849410000000 1.0
C      1  0.4641800000000  0.4355030000000  0.4642150000000 1.0
C      1  0.4836660000000  0.4498340000000  0.4490560000000 1.0
C      1  0.4938270000000  0.5034390000000  0.5764000000000 1.0
C      1  0.5272380000000  0.4305240000000  0.5135090000000 1.0
C      1  0.4797750000000  0.4327940000000  0.4884490000000 1.0
C      1  0.5622440000000  0.4928700000000  0.5506320000000 1.0
C      1  0.4542530000000  0.5148220000000  0.5538050000000 1.0
C      1  0.5419920000000  0.5464740000000  0.4775740000000 1.0
C      1  0.5213420000000  0.5047270000000  0.5631380000000 1.0
C      1  0.4746100000000  0.4730530000000  0.4358340000000 1.0
C      1  0.5406720000000  0.5303460000000  0.5286340000000 1.0
C      1  0.5233330000000  0.4448640000000  0.4659090000000 1.0
C      1  0.4986600000000  0.4545080000000  0.4774840000000 1.0
C      1  0.5091010000000  0.4357160000000  0.5308300000000 1.0
C      1  0.4490220000000  0.4888550000000  0.5092230000000 1.0
C      1  0.4463440000000  0.4565380000000  0.4711370000000 1.0
C      1  0.5039170000000  0.5614910000000  0.5366370000000 1.0
C      1  0.5476270000000  0.4944870000000  0.5712070000000 1.0
C      1  0.4554500000000  0.5303000000000  0.4583700000000 1.0
C      1  0.5560010000000  0.4770950000000  0.4655630000000 1.0
C      1  0.4864880000000  0.5193730000000  0.4262230000000 1.0
C      1  0.4889300000000  0.5271360000000  0.4962290000000 1.0
C      1  0.4793290000000  0.4884640000000  0.5184210000000 1.0
C      1  0.5707160000000  0.4953240000000  0.5252480000000 1.0
C      1  0.4775840000000  0.4728770000000  0.5435060000000 1.0
C      1  0.4432340000000  0.5039860000000  0.4583520000000 1.0
C      1  0.5198360000000  0.5082900000000  0.5328530000000 1.0
C      1  0.5262680000000  0.4862400000000  0.5148720000000 1.0
C      1  0.4417340000000  0.5055280000000  0.4866540000000 1.0
C      1  0.4824420000000  0.4462090000000  0.5348000000000 1.0
C      1  0.4924800000000  0.5483930000000  0.5596830000000 1.0
C      1  0.4791220000000  0.5377620000000  0.4450280000000 1.0
C      1  0.5347380000000  0.4671840000000  0.4492140000000 1.0
C      1  0.4452220000000  0.5364000000000  0.5139420000000 1.0
C      1  0.4941480000000  0.4933130000000  0.4280800000000 1.0
C      1  0.5532220000000  0.4772130000000  0.5123240000000 1.0
C      1  0.5621030000000  0.5202300000000  0.5129120000000 1.0
C      1  0.4842020000000  0.5658940000000  0.5165710000000 1.0
C      1  0.4603740000000  0.5551250000000  0.5280420000000 1.0
C      1  0.4654760000000  0.4411050000000  0.5115040000000 1.0
C      1  0.5257910000000  0.5401170000000  0.4549910000000 1.0
C      1  0.4717490000000  0.4929600000000  0.5631030000000 1.0
END
