TITL C-111161-5865-6 10.6332198006261 125000 -287.631090457196 0 0 44 (C1) n - 1
REM
REM in /rds/project/t2_vol4/rds-t2-cs072/BORA/CARBON/from-Arr/AIRSS/Generating-Clusters/GAP-ML-2020/Only-C1/SD-CG/HFTN-CG
REM
REM
REM
REM
REM
REM ./C.cell (11c1c37f851c82e70ff6c80c92926a4b)
REM AIRSS Version 0.9.1 bugfix July 2018 build 013d7b7c2542+ Fri, 06 Jul 2018 19:26:36 +0100
REM compiler GCC version 9.3.0
REM options -cpp -mtune=generic -march=x86-64 -g -O0
REM seed 536964990 1398529098 2115659498 -524935833 137871142 1985240212 347805554 -886264719 -1562919307 1005161330 -357597587 -675099176 -501019276 -1303932648 -1983171804 -856252005 -1851833361 -1044833494 1814577999 608799448 -132806605 -1654852604 458470751 864489322 1521001846 -1226976499 1708021134 1502266210 1455594594 1722107370 -1673574696 -1029511770 1348686491
REM
CELL 1.54180   50.00000   50.00000   50.00000   90.00000   90.00000   90.00000
LATT -1
SFAC C  
C      1  0.4712470000000  0.4426280000000  0.4829030000000 1.0
C      1  0.4425260000000  0.5121340000000  0.5069240000000 1.0
C      1  0.4878270000000  0.4787020000000  0.5044580000000 1.0
C      1  0.5182760000000  0.4980020000000  0.4871720000000 1.0
C      1  0.4490520000000  0.5088170000000  0.4805820000000 1.0
C      1  0.5510730000000  0.5306850000000  0.4922240000000 1.0
C      1  0.4768880000000  0.5226410000000  0.4769790000000 1.0
C      1  0.4999830000000  0.4931770000000  0.5686170000000 1.0
C      1  0.4879880000000  0.4947270000000  0.4804100000000 1.0
C      1  0.4638410000000  0.5141380000000  0.5433100000000 1.0
C      1  0.5342950000000  0.4935490000000  0.4505470000000 1.0
C      1  0.4824260000000  0.5168590000000  0.5637500000000 1.0
C      1  0.5123550000000  0.5363710000000  0.5356410000000 1.0
C      1  0.5673310000000  0.4829820000000  0.4973120000000 1.0
C      1  0.5172270000000  0.5457890000000  0.4588530000000 1.0
C      1  0.5474220000000  0.4646430000000  0.4958260000000 1.0
C      1  0.4601750000000  0.5312800000000  0.5196090000000 1.0
C      1  0.5263510000000  0.4997910000000  0.5629090000000 1.0
C      1  0.5291870000000  0.4623310000000  0.5185810000000 1.0
C      1  0.4835390000000  0.4513450000000  0.4582320000000 1.0
C      1  0.4792300000000  0.5393700000000  0.5008250000000 1.0
C      1  0.4963390000000  0.4492670000000  0.4954580000000 1.0
C      1  0.5133470000000  0.6033410000000  0.5107440000000 1.0
C      1  0.5223250000000  0.5085010000000  0.5359740000000 1.0
C      1  0.5149460000000  0.4884270000000  0.5157330000000 1.0
C      1  0.4840040000000  0.4556670000000  0.5385340000000 1.0
C      1  0.5537290000000  0.5123200000000  0.4586250000000 1.0
C      1  0.5297930000000  0.4723380000000  0.4712620000000 1.0
C      1  0.4858420000000  0.4924090000000  0.4356170000000 1.0
C      1  0.5026570000000  0.5520110000000  0.5118630000000 1.0
C      1  0.5101910000000  0.4525070000000  0.4688690000000 1.0
C      1  0.5067270000000  0.4442040000000  0.5210710000000 1.0
C      1  0.5066490000000  0.5790920000000  0.5123190000000 1.0
C      1  0.4617710000000  0.4695480000000  0.5198060000000 1.0
C      1  0.5419940000000  0.5378650000000  0.4664540000000 1.0
C      1  0.4898380000000  0.4690120000000  0.5603620000000 1.0
C      1  0.5633360000000  0.5063550000000  0.4858190000000 1.0
C      1  0.4490130000000  0.4812500000000  0.4732010000000 1.0
C      1  0.4994820000000  0.5396150000000  0.5596900000000 1.0
C      1  0.4490190000000  0.4939590000000  0.5281770000000 1.0
C      1  0.5087750000000  0.5047660000000  0.4414610000000 1.0
C      1  0.4970830000000  0.5292010000000  0.4549400000000 1.0
C      1  0.4517020000000  0.4602290000000  0.4929520000000 1.0
C      1  0.4732000000000  0.4781560000000  0.4554070000000 1.0
END
