TITL C-117339-2224-7 114.771795094499 125000 -515.557188120963 0 0 76 (C1) n - 1
REM
REM in /rds/project/t2_vol4/rds-t2-cs072/BORA/CARBON/from-Arr/AIRSS/Generating-Clusters/GAP-ML-2020/Only-C1/SD-CG/HFTN-CG
REM
REM
REM
REM
REM
REM ./C.cell (11c1c37f851c82e70ff6c80c92926a4b)
REM AIRSS Version 0.9.1 bugfix July 2018 build 013d7b7c2542+ Fri, 06 Jul 2018 19:26:36 +0100
REM compiler GCC version 9.3.0
REM options -cpp -mtune=generic -march=x86-64 -g -O0
REM seed 106415716 -746408466 1097525300 -1646612793 -1068397593 489105353 1628148322 -1264911572 1428927453 521280353 2008419293 1091619 -178733537 1351472995 -1936653127 -300768684 1878802605 -119428585 479639317 1582387922 -317794512 2036846398 -1509320141 -1428414603 -388160832 703648871 1139948768 -1110672623 1900836178 1138674791 1536143676 -704710211 -1143144314
REM
CELL 1.54180   50.00000   50.00000   50.00000   90.00000   90.00000   90.00000
LATT -1
SFAC C  
C      1  0.5178690000000  0.4345930000000  0.5112830000000 1.0
C      1  0.4742510000000  0.5676070000000  0.5005890000000 1.0
C      1  0.4745360000000  0.4355310000000  0.5330940000000 1.0
C      1  0.4771980000000  0.5564060000000  0.4555800000000 1.0
C      1  0.5443280000000  0.5550290000000  0.4672750000000 1.0
C      1  0.5061790000000  0.5095040000000  0.5313640000000 1.0
C      1  0.4184030000000  0.5186870000000  0.5276720000000 1.0
C      1  0.4803270000000  0.5262820000000  0.5316500000000 1.0
C      1  0.4276820000000  0.4904220000000  0.5187480000000 1.0
C      1  0.5555070000000  0.5346280000000  0.5343680000000 1.0
C      1  0.5249550000000  0.4984650000000  0.4527890000000 1.0
C      1  0.4517870000000  0.5181210000000  0.4595490000000 1.0
C      1  0.5686300000000  0.4659110000000  0.4696860000000 1.0
C      1  0.4731130000000  0.5370160000000  0.5031500000000 1.0
C      1  0.5003470000000  0.5429750000000  0.4649620000000 1.0
C      1  0.4707560000000  0.5310380000000  0.4428870000000 1.0
C      1  0.4364530000000  0.5294590000000  0.5475720000000 1.0
C      1  0.4785610000000  0.5035920000000  0.5692210000000 1.0
C      1  0.5018390000000  0.4805170000000  0.4668230000000 1.0
C      1  0.5032560000000  0.4372780000000  0.5349760000000 1.0
C      1  0.4528750000000  0.4849520000000  0.5344410000000 1.0
C      1  0.4910000000000  0.5473360000000  0.5521480000000 1.0
C      1  0.5604240000000  0.4807310000000  0.4467160000000 1.0
C      1  0.4996640000000  0.4816490000000  0.5296160000000 1.0
C      1  0.4886870000000  0.4859260000000  0.4240880000000 1.0
C      1  0.5523380000000  0.5029760000000  0.4669200000000 1.0
C      1  0.4964470000000  0.5257270000000  0.5721710000000 1.0
C      1  0.5324220000000  0.5492580000000  0.5190150000000 1.0
C      1  0.5829310000000  0.5298870000000  0.4930660000000 1.0
C      1  0.4694800000000  0.5669360000000  0.5484260000000 1.0
C      1  0.4292810000000  0.4749700000000  0.4673840000000 1.0
C      1  0.5066940000000  0.4323180000000  0.4850520000000 1.0
C      1  0.4770500000000  0.4780370000000  0.5122120000000 1.0
C      1  0.4386170000000  0.4475260000000  0.4958770000000 1.0
C      1  0.4236680000000  0.4730100000000  0.4966910000000 1.0
C      1  0.4861130000000  0.4761560000000  0.5637200000000 1.0
C      1  0.5399870000000  0.4956960000000  0.5648730000000 1.0
C      1  0.4885070000000  0.4931860000000  0.4895400000000 1.0
C      1  0.4402030000000  0.4479100000000  0.4671190000000 1.0
C      1  0.5206910000000  0.5203230000000  0.5072480000000 1.0
C      1  0.4481540000000  0.5280180000000  0.4865970000000 1.0
C      1  0.5192830000000  0.5151360000000  0.5599090000000 1.0
C      1  0.5440520000000  0.5045820000000  0.4964330000000 1.0
C      1  0.5665630000000  0.4892770000000  0.5124460000000 1.0
C      1  0.5673730000000  0.5519210000000  0.4834080000000 1.0
C      1  0.4279240000000  0.5183720000000  0.5027510000000 1.0
C      1  0.4671740000000  0.4473000000000  0.4581440000000 1.0
C      1  0.4487820000000  0.4906980000000  0.4541720000000 1.0
C      1  0.5418300000000  0.4494710000000  0.5083840000000 1.0
C      1  0.5356930000000  0.4783970000000  0.4328820000000 1.0
C      1  0.5167470000000  0.5220990000000  0.4377800000000 1.0
C      1  0.4862040000000  0.5771360000000  0.5245350000000 1.0
C      1  0.4575370000000  0.4361070000000  0.5551360000000 1.0
C      1  0.5241190000000  0.5469060000000  0.4499380000000 1.0
C      1  0.4692110000000  0.5742260000000  0.4740810000000 1.0
C      1  0.5385370000000  0.4711450000000  0.5509400000000 1.0
C      1  0.5834590000000  0.4827470000000  0.4885800000000 1.0
C      1  0.4662230000000  0.4452120000000  0.5061810000000 1.0
C      1  0.5205440000000  0.4510470000000  0.4377000000000 1.0
C      1  0.4738950000000  0.4747000000000  0.4467760000000 1.0
C      1  0.5534590000000  0.4672960000000  0.5272940000000 1.0
C      1  0.4616650000000  0.4631550000000  0.5546620000000 1.0
C      1  0.4796720000000  0.4347460000000  0.4818810000000 1.0
C      1  0.5098140000000  0.5617960000000  0.5330970000000 1.0
C      1  0.4451640000000  0.5556230000000  0.5478930000000 1.0
C      1  0.5714960000000  0.5191280000000  0.5169270000000 1.0
C      1  0.5847670000000  0.5082950000000  0.4757450000000 1.0
C      1  0.5478170000000  0.5212880000000  0.5573790000000 1.0
C      1  0.5106350000000  0.4617940000000  0.5496140000000 1.0
C      1  0.4964250000000  0.5233300000000  0.4897590000000 1.0
C      1  0.5120880000000  0.4700760000000  0.4201090000000 1.0
C      1  0.4905320000000  0.5148790000000  0.4282110000000 1.0
C      1  0.4597150000000  0.5100760000000  0.5482580000000 1.0
C      1  0.5199870000000  0.4512690000000  0.4669410000000 1.0
C      1  0.5456770000000  0.4534190000000  0.4807110000000 1.0
C      1  0.5447260000000  0.5617620000000  0.4951840000000 1.0
END
