TITL C-111157-5680-2 -0.0324306570162989 125000 -165.796581908368 0 0 26 (C1) n - 1
REM
REM in /rds/project/t2_vol4/rds-t2-cs072/BORA/CARBON/from-Arr/AIRSS/Generating-Clusters/GAP-ML-2020/Only-C1/SD-CG/HFTN-CG
REM
REM
REM
REM
REM
REM ./C.cell (11c1c37f851c82e70ff6c80c92926a4b)
REM AIRSS Version 0.9.1 bugfix July 2018 build 013d7b7c2542+ Fri, 06 Jul 2018 19:26:36 +0100
REM compiler GCC version 9.3.0
REM options -cpp -mtune=generic -march=x86-64 -g -O0
REM seed 65986666 -1716691800 1401565980 -447019442 -449727965 -72559777 -1012354360 706667081 360270909 -1802611398 181848388 1662804269 -1727691996 -1518102052 815289939 -341080814 1984295964 -1082268893 1618976344 -28005563 1589974977 1034528207 342953165 432922307 1495464662 1150885357 -1964064623 -933562518 -557240858 877408111 1196807562 637305509 1924611249
REM
CELL 1.54180   50.00000   50.00000   50.00000   90.00000   90.00000   90.00000
LATT -1
SFAC C  
C      1  0.4982190000000  0.5076100000000  0.5068820000000 1.0
C      1  0.5164910000000  0.5229470000000  0.5478850000000 1.0
C      1  0.4905630000000  0.4953040000000  0.5511620000000 1.0
C      1  0.5384750000000  0.5094810000000  0.4825970000000 1.0
C      1  0.4604020000000  0.4744710000000  0.4901830000000 1.0
C      1  0.4644640000000  0.5218410000000  0.4781360000000 1.0
C      1  0.4905090000000  0.4650930000000  0.4419260000000 1.0
C      1  0.4977800000000  0.5470730000000  0.4878490000000 1.0
C      1  0.5421500000000  0.5367660000000  0.4809280000000 1.0
C      1  0.5076250000000  0.4484880000000  0.4494980000000 1.0
C      1  0.4862020000000  0.5350420000000  0.4638270000000 1.0
C      1  0.4788600000000  0.4889840000000  0.4477400000000 1.0
C      1  0.5217520000000  0.5201140000000  0.5204360000000 1.0
C      1  0.4618400000000  0.4934820000000  0.4711170000000 1.0
C      1  0.5001460000000  0.4686940000000  0.5508960000000 1.0
C      1  0.4898470000000  0.4567210000000  0.5275120000000 1.0
C      1  0.4775140000000  0.4966120000000  0.5265320000000 1.0
C      1  0.5226390000000  0.5426620000000  0.4994360000000 1.0
C      1  0.5166270000000  0.4670210000000  0.5278370000000 1.0
C      1  0.4693200000000  0.4720000000000  0.5152920000000 1.0
C      1  0.5110770000000  0.4997260000000  0.4794040000000 1.0
C      1  0.5394360000000  0.4750780000000  0.5179560000000 1.0
C      1  0.5419310000000  0.5006320000000  0.5103220000000 1.0
C      1  0.4965920000000  0.5093890000000  0.4568750000000 1.0
C      1  0.4789380000000  0.5290040000000  0.5010170000000 1.0
C      1  0.5006020000000  0.5157650000000  0.5667540000000 1.0
END
