TITL C-119484-4377-7 -50.125922474976 125000 -927.349716942924 0 0 132 (C1) n - 1
REM
REM in /rds/project/t2_vol4/rds-t2-cs072/BORA/CARBON/from-Arr/AIRSS/Generating-Clusters/GAP-ML-2020/Only-C1/SD-CG/HFTN-CG
REM
REM
REM
REM
REM
REM ./C.cell (11c1c37f851c82e70ff6c80c92926a4b)
REM AIRSS Version 0.9.1 bugfix July 2018 build 013d7b7c2542+ Fri, 06 Jul 2018 19:26:36 +0100
REM compiler GCC version 9.3.0
REM options -cpp -mtune=generic -march=x86-64 -g -O0
REM seed -785957284 2126343313 133106583 1721683408 -583015157 73909383 93108971 -140228561 -1599603212 -1591983053 1006503058 -127258699 -113725608 1965511718 1684802666 -2028393513 -470647109 629003778 -1182030958 1067803662 -1072937243 -52571778 12510619 -1362848883 -1870660386 437156145 -174815406 -1323651829 1874904741 1013313267 714983106 1668088310 -1180006933
REM
CELL 1.54180   50.00000   50.00000   50.00000   90.00000   90.00000   90.00000
LATT -1
SFAC C  
C      1  0.4829730000000  0.4619580000000  0.5827600000000 1.0
C      1  0.4895560000000  0.4891770000000  0.5052350000000 1.0
C      1  0.4683490000000  0.5464840000000  0.5402580000000 1.0
C      1  0.4900770000000  0.4868550000000  0.5655330000000 1.0
C      1  0.4465360000000  0.5793650000000  0.5018380000000 1.0
C      1  0.5174340000000  0.4824540000000  0.4676720000000 1.0
C      1  0.4804150000000  0.4989190000000  0.4184530000000 1.0
C      1  0.5647650000000  0.5570990000000  0.5527270000000 1.0
C      1  0.4051900000000  0.5109620000000  0.5218640000000 1.0
C      1  0.4360300000000  0.4781160000000  0.4368120000000 1.0
C      1  0.5904430000000  0.5115110000000  0.4769420000000 1.0
C      1  0.4954680000000  0.5855080000000  0.4869520000000 1.0
C      1  0.5699610000000  0.4499250000000  0.4817680000000 1.0
C      1  0.4144770000000  0.4783970000000  0.4552820000000 1.0
C      1  0.5373850000000  0.4453530000000  0.4195500000000 1.0
C      1  0.4649170000000  0.5770800000000  0.4516430000000 1.0
C      1  0.4661460000000  0.4382430000000  0.4187630000000 1.0
C      1  0.5061750000000  0.4163320000000  0.4342370000000 1.0
C      1  0.4143330000000  0.5432870000000  0.4828790000000 1.0
C      1  0.3989170000000  0.4845700000000  0.5248760000000 1.0
C      1  0.4088360000000  0.4588710000000  0.5220960000000 1.0
C      1  0.4886770000000  0.5490670000000  0.4219000000000 1.0
C      1  0.5043360000000  0.4642440000000  0.4475280000000 1.0
C      1  0.5611060000000  0.5197440000000  0.5804950000000 1.0
C      1  0.4581140000000  0.4375870000000  0.5097980000000 1.0
C      1  0.5415470000000  0.4362370000000  0.4904390000000 1.0
C      1  0.5258090000000  0.5824310000000  0.5329490000000 1.0
C      1  0.5033100000000  0.4096170000000  0.4611720000000 1.0
C      1  0.4963410000000  0.5272640000000  0.4729670000000 1.0
C      1  0.5448990000000  0.4281230000000  0.5180590000000 1.0
C      1  0.4359350000000  0.4353680000000  0.4580700000000 1.0
C      1  0.5693340000000  0.5075790000000  0.4337530000000 1.0
C      1  0.4445610000000  0.5379320000000  0.5212800000000 1.0
C      1  0.5276650000000  0.4939870000000  0.4118180000000 1.0
C      1  0.5074870000000  0.5670350000000  0.5763520000000 1.0
C      1  0.4277700000000  0.5580800000000  0.5030280000000 1.0
C      1  0.5260900000000  0.5789930000000  0.4465210000000 1.0
C      1  0.4369460000000  0.4741450000000  0.5658550000000 1.0
C      1  0.5049880000000  0.5922810000000  0.4607940000000 1.0
C      1  0.5533250000000  0.5839330000000  0.4852300000000 1.0
C      1  0.4567190000000  0.5257580000000  0.4972690000000 1.0
C      1  0.5357720000000  0.5409270000000  0.4191200000000 1.0
C      1  0.4991130000000  0.4074300000000  0.5023520000000 1.0
C      1  0.4742980000000  0.5418390000000  0.4835180000000 1.0
C      1  0.5069810000000  0.4557480000000  0.5330350000000 1.0
C      1  0.5724700000000  0.4651990000000  0.4570660000000 1.0
C      1  0.5395180000000  0.4891270000000  0.5039750000000 1.0
C      1  0.5837140000000  0.4872400000000  0.5498270000000 1.0
C      1  0.5049870000000  0.5795900000000  0.5524470000000 1.0
C      1  0.4351260000000  0.4235920000000  0.4984470000000 1.0
C      1  0.4758620000000  0.4612150000000  0.4606150000000 1.0
C      1  0.4459760000000  0.5296480000000  0.4398930000000 1.0
C      1  0.5679550000000  0.4401770000000  0.5276830000000 1.0
C      1  0.5234560000000  0.5312520000000  0.4799430000000 1.0
C      1  0.5404050000000  0.5029850000000  0.5904350000000 1.0
C      1  0.4887360000000  0.5111280000000  0.5841930000000 1.0
C      1  0.5111200000000  0.4517490000000  0.4054140000000 1.0
C      1  0.4914520000000  0.4314560000000  0.4141590000000 1.0
C      1  0.4690430000000  0.4231740000000  0.5334280000000 1.0
C      1  0.4478870000000  0.4155050000000  0.4748300000000 1.0
C      1  0.4930310000000  0.4983880000000  0.4757590000000 1.0
C      1  0.4999360000000  0.4612930000000  0.5047870000000 1.0
C      1  0.4671460000000  0.4891900000000  0.4662360000000 1.0
C      1  0.4997490000000  0.5144580000000  0.5204770000000 1.0
C      1  0.4482590000000  0.4616320000000  0.5207360000000 1.0
C      1  0.4124710000000  0.4423950000000  0.4972120000000 1.0
C      1  0.4687750000000  0.5726680000000  0.4821460000000 1.0
C      1  0.5042060000000  0.4517230000000  0.5960980000000 1.0
C      1  0.5375500000000  0.4348610000000  0.5635890000000 1.0
C      1  0.4341900000000  0.5762650000000  0.5474250000000 1.0
C      1  0.5031730000000  0.4780330000000  0.4196290000000 1.0
C      1  0.4513800000000  0.4352460000000  0.5536270000000 1.0
C      1  0.5813490000000  0.4569590000000  0.5084980000000 1.0
C      1  0.5313580000000  0.4985690000000  0.5301740000000 1.0
C      1  0.4438380000000  0.5036770000000  0.5611420000000 1.0
C      1  0.4801060000000  0.4150950000000  0.4794230000000 1.0
C      1  0.4267980000000  0.5236370000000  0.5409310000000 1.0
C      1  0.4605640000000  0.5212710000000  0.5802920000000 1.0
C      1  0.5686830000000  0.4694430000000  0.5665280000000 1.0
C      1  0.4963210000000  0.4133290000000  0.5299120000000 1.0
C      1  0.5829140000000  0.5518440000000  0.4995910000000 1.0
C      1  0.4629180000000  0.4854480000000  0.5178740000000 1.0
C      1  0.4632180000000  0.5530600000000  0.4346770000000 1.0
C      1  0.5835370000000  0.5398730000000  0.4740820000000 1.0
C      1  0.4818440000000  0.5974290000000  0.4441780000000 1.0
C      1  0.5685490000000  0.5520290000000  0.4532040000000 1.0
C      1  0.4226340000000  0.5290570000000  0.4570480000000 1.0
C      1  0.5207140000000  0.5200340000000  0.4084750000000 1.0
C      1  0.5241590000000  0.5473830000000  0.5849140000000 1.0
C      1  0.5807570000000  0.5132120000000  0.5605670000000 1.0
C      1  0.5823160000000  0.4939250000000  0.4557800000000 1.0
C      1  0.5535700000000  0.4880460000000  0.4205450000000 1.0
C      1  0.5257080000000  0.4644370000000  0.4916780000000 1.0
C      1  0.4091710000000  0.5050320000000  0.4664230000000 1.0
C      1  0.4152560000000  0.4517230000000  0.4695720000000 1.0
C      1  0.4278230000000  0.5521300000000  0.5588230000000 1.0
C      1  0.4830660000000  0.5223330000000  0.5400560000000 1.0
C      1  0.5513180000000  0.5746090000000  0.4598360000000 1.0
C      1  0.5473940000000  0.4755410000000  0.5855890000000 1.0
C      1  0.5222300000000  0.5445130000000  0.5050940000000 1.0
C      1  0.5536030000000  0.5753910000000  0.5334920000000 1.0
C      1  0.5518860000000  0.5462800000000  0.5763150000000 1.0
C      1  0.5251400000000  0.5261900000000  0.5265650000000 1.0
C      1  0.4546280000000  0.5457780000000  0.5682320000000 1.0
C      1  0.5216220000000  0.4124440000000  0.4839820000000 1.0
C      1  0.5832500000000  0.5363610000000  0.5446370000000 1.0
C      1  0.5355340000000  0.5046970000000  0.4792260000000 1.0
C      1  0.5219090000000  0.4390030000000  0.4420030000000 1.0
C      1  0.4926910000000  0.5233270000000  0.4114360000000 1.0
C      1  0.4538210000000  0.5860980000000  0.5292670000000 1.0
C      1  0.4521400000000  0.4516240000000  0.4393120000000 1.0
C      1  0.5606450000000  0.5348830000000  0.4323630000000 1.0
C      1  0.4790550000000  0.4457180000000  0.4875980000000 1.0
C      1  0.5941680000000  0.5064300000000  0.5055710000000 1.0
C      1  0.5573580000000  0.4621790000000  0.4312720000000 1.0
C      1  0.4034900000000  0.5187570000000  0.4931850000000 1.0
C      1  0.4685040000000  0.4976520000000  0.5457370000000 1.0
C      1  0.4566470000000  0.4540220000000  0.5751660000000 1.0
C      1  0.5659610000000  0.5739340000000  0.5070420000000 1.0
C      1  0.4823610000000  0.5729660000000  0.5335400000000 1.0
C      1  0.5295410000000  0.4515900000000  0.5859280000000 1.0
C      1  0.5625160000000  0.4446190000000  0.5551190000000 1.0
C      1  0.5164940000000  0.5602720000000  0.4273390000000 1.0
C      1  0.5154190000000  0.5201350000000  0.5914630000000 1.0
C      1  0.5904540000000  0.4823070000000  0.5210380000000 1.0
C      1  0.5070780000000  0.5727690000000  0.5107720000000 1.0
C      1  0.4305100000000  0.4563230000000  0.5429510000000 1.0
C      1  0.4547360000000  0.4978390000000  0.4929320000000 1.0
C      1  0.5146150000000  0.4796640000000  0.5468340000000 1.0
C      1  0.5216660000000  0.4290880000000  0.5381070000000 1.0
C      1  0.4567820000000  0.5009380000000  0.4370190000000 1.0
C      1  0.5905810000000  0.5320760000000  0.5181360000000 1.0
END
