TITL C-112721-768-3 -0.102531157228362 125000 -762.053105222222 0 0 109 (C1) n - 1
REM
REM in /rds/project/t2_vol4/rds-t2-cs072/BORA/CARBON/from-Arr/AIRSS/Generating-Clusters/GAP-ML-2020/Only-C1/SD-CG/HFTN-CG
REM
REM
REM
REM
REM
REM ./C.cell (11c1c37f851c82e70ff6c80c92926a4b)
REM AIRSS Version 0.9.1 bugfix July 2018 build 013d7b7c2542+ Fri, 06 Jul 2018 19:26:36 +0100
REM compiler GCC version 9.3.0
REM options -cpp -mtune=generic -march=x86-64 -g -O0
REM seed -1300426917 -733768525 1514092095 1530125981 -591443881 992933657 -43335576 -314666772 -1285668445 213473626 -26944448 514780509 -798584124 -1637055488 -2030122192 20984476 360232703 2141236417 1832753903 -418111996 979027630 -643616469 99141966 -1872425628 1574318664 259241360 548299641 -1219622900 278967032 -595048681 -1425236009 1698433850 2112102398
REM
CELL 1.54180   50.00000   50.00000   50.00000   90.00000   90.00000   90.00000
LATT -1
SFAC C  
C      1  0.4868140000000  0.5429400000000  0.5765370000000 1.0
C      1  0.4869110000000  0.5269020000000  0.5244780000000 1.0
C      1  0.5124920000000  0.4675680000000  0.5323950000000 1.0
C      1  0.4705120000000  0.4236230000000  0.4665500000000 1.0
C      1  0.5754700000000  0.4942640000000  0.4799070000000 1.0
C      1  0.4730260000000  0.4859610000000  0.6044850000000 1.0
C      1  0.5244180000000  0.4767450000000  0.4800830000000 1.0
C      1  0.4238330000000  0.5336670000000  0.5051130000000 1.0
C      1  0.4383920000000  0.5519600000000  0.4883900000000 1.0
C      1  0.4556800000000  0.4781320000000  0.5844840000000 1.0
C      1  0.4797750000000  0.4838100000000  0.5550250000000 1.0
C      1  0.4421590000000  0.4637910000000  0.4481600000000 1.0
C      1  0.5804980000000  0.5055710000000  0.5327030000000 1.0
C      1  0.5087440000000  0.5887870000000  0.4989900000000 1.0
C      1  0.4558360000000  0.5160670000000  0.4249080000000 1.0
C      1  0.5102850000000  0.4525600000000  0.5615580000000 1.0
C      1  0.5136430000000  0.5310890000000  0.5341250000000 1.0
C      1  0.4850770000000  0.4774010000000  0.5254580000000 1.0
C      1  0.4296000000000  0.4894740000000  0.4558670000000 1.0
C      1  0.4368850000000  0.4457630000000  0.4944830000000 1.0
C      1  0.5054200000000  0.5246350000000  0.5889430000000 1.0
C      1  0.4307080000000  0.5275560000000  0.5325420000000 1.0
C      1  0.5057840000000  0.4651240000000  0.4148480000000 1.0
C      1  0.5563570000000  0.4684360000000  0.5171590000000 1.0
C      1  0.4688620000000  0.4170870000000  0.5173920000000 1.0
C      1  0.5395360000000  0.5348130000000  0.4375430000000 1.0
C      1  0.5328630000000  0.4628130000000  0.4220900000000 1.0
C      1  0.5518420000000  0.5759640000000  0.5152070000000 1.0
C      1  0.5327670000000  0.5218570000000  0.5811530000000 1.0
C      1  0.4889410000000  0.4563100000000  0.5031040000000 1.0
C      1  0.5271880000000  0.4156690000000  0.4749760000000 1.0
C      1  0.5003130000000  0.5413430000000  0.4126770000000 1.0
C      1  0.5773600000000  0.4875650000000  0.5087010000000 1.0
C      1  0.5206520000000  0.5243630000000  0.4871750000000 1.0
C      1  0.5662100000000  0.5509810000000  0.5198460000000 1.0
C      1  0.4959350000000  0.4976860000000  0.5954330000000 1.0
C      1  0.5326820000000  0.4368800000000  0.5494090000000 1.0
C      1  0.4308550000000  0.4763210000000  0.5294830000000 1.0
C      1  0.5504190000000  0.5405200000000  0.5669730000000 1.0
C      1  0.5406110000000  0.4537700000000  0.4967160000000 1.0
C      1  0.5248940000000  0.5829110000000  0.5230260000000 1.0
C      1  0.4853090000000  0.4383870000000  0.5593540000000 1.0
C      1  0.4740130000000  0.5388910000000  0.4269110000000 1.0
C      1  0.5591930000000  0.4486330000000  0.4561680000000 1.0
C      1  0.5101900000000  0.5734520000000  0.4536680000000 1.0
C      1  0.4473640000000  0.4415940000000  0.4680360000000 1.0
C      1  0.5327400000000  0.4962680000000  0.5673280000000 1.0
C      1  0.5153140000000  0.4204900000000  0.5275220000000 1.0
C      1  0.4352690000000  0.5012200000000  0.5424000000000 1.0
C      1  0.4879550000000  0.4203240000000  0.5382860000000 1.0
C      1  0.5017810000000  0.5007130000000  0.4454940000000 1.0
C      1  0.5473360000000  0.4870120000000  0.4327150000000 1.0
C      1  0.5785820000000  0.4920180000000  0.5558350000000 1.0
C      1  0.5415730000000  0.5218310000000  0.4643950000000 1.0
C      1  0.5572230000000  0.4772340000000  0.5625040000000 1.0
C      1  0.5185700000000  0.5456210000000  0.5089780000000 1.0
C      1  0.4380240000000  0.5166680000000  0.4469800000000 1.0
C      1  0.4947040000000  0.5291530000000  0.4483600000000 1.0
C      1  0.5543700000000  0.4547810000000  0.5446840000000 1.0
C      1  0.4436630000000  0.4534400000000  0.5405320000000 1.0
C      1  0.4630780000000  0.4574420000000  0.5624610000000 1.0
C      1  0.4756250000000  0.5059540000000  0.4846830000000 1.0
C      1  0.5100670000000  0.4108580000000  0.4971780000000 1.0
C      1  0.4866190000000  0.5016510000000  0.5110330000000 1.0
C      1  0.4247690000000  0.4704290000000  0.5017200000000 1.0
C      1  0.4619010000000  0.5317220000000  0.5670810000000 1.0
C      1  0.5681340000000  0.5220490000000  0.4758950000000 1.0
C      1  0.4542750000000  0.5690770000000  0.5324140000000 1.0
C      1  0.4555100000000  0.5698490000000  0.5030500000000 1.0
C      1  0.4888210000000  0.5481710000000  0.5006850000000 1.0
C      1  0.5259660000000  0.5811770000000  0.4766660000000 1.0
C      1  0.5384980000000  0.4411630000000  0.4383250000000 1.0
C      1  0.5668080000000  0.4769380000000  0.4556920000000 1.0
C      1  0.5133020000000  0.5156290000000  0.4062990000000 1.0
C      1  0.4965590000000  0.4927380000000  0.4143850000000 1.0
C      1  0.4915830000000  0.5295190000000  0.4776160000000 1.0
C      1  0.5391280000000  0.5136680000000  0.4188060000000 1.0
C      1  0.4606600000000  0.4659440000000  0.4263180000000 1.0
C      1  0.4976090000000  0.4680560000000  0.4785080000000 1.0
C      1  0.5162850000000  0.5514660000000  0.4353640000000 1.0
C      1  0.4814170000000  0.4122540000000  0.4917770000000 1.0
C      1  0.5404910000000  0.5651800000000  0.5647990000000 1.0
C      1  0.5174460000000  0.4234790000000  0.4493840000000 1.0
C      1  0.4841420000000  0.4492540000000  0.4254380000000 1.0
C      1  0.4832750000000  0.4874620000000  0.4649180000000 1.0
C      1  0.5681920000000  0.5469710000000  0.4906810000000 1.0
C      1  0.5064540000000  0.4816560000000  0.5721130000000 1.0
C      1  0.4821210000000  0.5748430000000  0.4610660000000 1.0
C      1  0.4890650000000  0.4280970000000  0.4444800000000 1.0
C      1  0.5518980000000  0.5714700000000  0.4864510000000 1.0
C      1  0.4811750000000  0.5776250000000  0.4904660000000 1.0
C      1  0.5188690000000  0.4976500000000  0.5000890000000 1.0
C      1  0.5199290000000  0.5772060000000  0.5515220000000 1.0
C      1  0.4114200000000  0.5142090000000  0.4914260000000 1.0
C      1  0.4427560000000  0.5433430000000  0.4609380000000 1.0
C      1  0.4461540000000  0.5458820000000  0.5473000000000 1.0
C      1  0.4559660000000  0.5024990000000  0.5631400000000 1.0
C      1  0.5502060000000  0.4335300000000  0.4783190000000 1.0
C      1  0.4940800000000  0.5678650000000  0.5622970000000 1.0
C      1  0.5320720000000  0.4878520000000  0.5235220000000 1.0
C      1  0.5162860000000  0.4452740000000  0.5125430000000 1.0
C      1  0.4466180000000  0.4341680000000  0.5191160000000 1.0
C      1  0.4180140000000  0.4899140000000  0.4819200000000 1.0
C      1  0.4669450000000  0.4919180000000  0.4160780000000 1.0
C      1  0.5346220000000  0.5111740000000  0.5404650000000 1.0
C      1  0.4764630000000  0.5779290000000  0.5447350000000 1.0
C      1  0.5301800000000  0.4947370000000  0.4559020000000 1.0
C      1  0.5616270000000  0.5290920000000  0.5395890000000 1.0
C      1  0.4635010000000  0.5575560000000  0.4471040000000 1.0
END
