TITL C-117360-2813-3 -400.001880610509 125000 -243.69735541122 0 0 35 (C1) n - 1
REM
REM in /rds/project/t2_vol4/rds-t2-cs072/BORA/CARBON/from-Arr/AIRSS/Generating-Clusters/GAP-ML-2020/Only-C1/SD-CG/HFTN-CG
REM
REM
REM
REM
REM
REM ./C.cell (11c1c37f851c82e70ff6c80c92926a4b)
REM AIRSS Version 0.9.1 bugfix July 2018 build 013d7b7c2542+ Fri, 06 Jul 2018 19:26:36 +0100
REM compiler GCC version 9.3.0
REM options -cpp -mtune=generic -march=x86-64 -g -O0
REM seed -1022685020 -297971522 -469667303 868667299 -794234907 -1258098311 1088441714 1546948769 -1270774645 957506074 -114541802 -992635907 1409133895 -1140117780 -1342769217 -1503151053 -876509922 -2125066892 -390570387 -1666484199 -70212447 -549068017 1892649972 -1144573516 62437084 -171339230 195816109 659289622 1754556486 -1512894622 -759587030 -1311124670 2017112496
REM
CELL 1.54180   50.00000   50.00000   50.00000   90.00000   90.00000   90.00000
LATT -1
SFAC C  
C      1  0.4923380000000  0.4947740000000  0.4501540000000 1.0
C      1  0.4800660000000  0.5289980000000  0.5455660000000 1.0
C      1  0.4757340000000  0.4727240000000  0.5324190000000 1.0
C      1  0.4519270000000  0.5403860000000  0.5112580000000 1.0
C      1  0.4345910000000  0.5202030000000  0.4611520000000 1.0
C      1  0.5518540000000  0.4861440000000  0.5209320000000 1.0
C      1  0.4496820000000  0.4847290000000  0.4956590000000 1.0
C      1  0.5364510000000  0.5322850000000  0.5022950000000 1.0
C      1  0.5183140000000  0.4549540000000  0.5378550000000 1.0
C      1  0.5204790000000  0.4866040000000  0.4506410000000 1.0
C      1  0.4591800000000  0.5205890000000  0.5293500000000 1.0
C      1  0.4982520000000  0.4738900000000  0.5496740000000 1.0
C      1  0.4857460000000  0.5219460000000  0.4543880000000 1.0
C      1  0.5100170000000  0.4482900000000  0.5113130000000 1.0
C      1  0.5446050000000  0.5141680000000  0.5230010000000 1.0
C      1  0.4566800000000  0.4921990000000  0.5228700000000 1.0
C      1  0.5510210000000  0.4732910000000  0.4948520000000 1.0
C      1  0.4694700000000  0.4648300000000  0.4868000000000 1.0
C      1  0.4954890000000  0.5509860000000  0.4898510000000 1.0
C      1  0.4367220000000  0.5004290000000  0.4775400000000 1.0
C      1  0.4605380000000  0.5311140000000  0.4651350000000 1.0
C      1  0.5330510000000  0.5279740000000  0.4737840000000 1.0
C      1  0.5050270000000  0.5349610000000  0.5373520000000 1.0
C      1  0.5071090000000  0.5381850000000  0.4666450000000 1.0
C      1  0.4824240000000  0.4549240000000  0.5100770000000 1.0
C      1  0.4853330000000  0.4694630000000  0.4642500000000 1.0
C      1  0.5126120000000  0.5466840000000  0.5118150000000 1.0
C      1  0.5135760000000  0.4618280000000  0.4649960000000 1.0
C      1  0.4666790000000  0.5459310000000  0.4892750000000 1.0
C      1  0.5205250000000  0.4915920000000  0.5565300000000 1.0
C      1  0.5258370000000  0.5166620000000  0.5450220000000 1.0
C      1  0.5608110000000  0.4881100000000  0.4742690000000 1.0
C      1  0.5396020000000  0.4725750000000  0.5428110000000 1.0
C      1  0.5410550000000  0.5029800000000  0.4617820000000 1.0
C      1  0.5272030000000  0.4545990000000  0.4886900000000 1.0
END
