TITL C-112717-632-2 0.0357286880385407 125000 -686.149887578291 0 0 100 (C1) n - 1
REM
REM in /rds/project/t2_vol4/rds-t2-cs072/BORA/CARBON/from-Arr/AIRSS/Generating-Clusters/GAP-ML-2020/Only-C1/SD-CG/HFTN-CG
REM
REM
REM
REM
REM
REM ./C.cell (11c1c37f851c82e70ff6c80c92926a4b)
REM AIRSS Version 0.9.1 bugfix July 2018 build 013d7b7c2542+ Fri, 06 Jul 2018 19:26:36 +0100
REM compiler GCC version 9.3.0
REM options -cpp -mtune=generic -march=x86-64 -g -O0
REM seed -1850176264 1502693782 629102432 -1295528238 -269107677 68058105 -1911094151 1857530993 299033650 441693325 1130456010 1669484156 -1736035888 1438399782 1802323477 1636555019 -1210329560 -143913543 -1845649589 -2081758214 -1471168668 -494278225 1351428803 -154299817 -444119692 1796312995 -470751165 -283889536 339137952 -57904799 648797086 1222670699 905702515
REM
CELL 1.54180   50.00000   50.00000   50.00000   90.00000   90.00000   90.00000
LATT -1
SFAC C  
C      1  0.4839280000000  0.5411240000000  0.5277810000000 1.0
C      1  0.5076820000000  0.5520790000000  0.5671100000000 1.0
C      1  0.4907570000000  0.4689330000000  0.5553960000000 1.0
C      1  0.4869520000000  0.4105540000000  0.4863640000000 1.0
C      1  0.4941210000000  0.5472830000000  0.4684450000000 1.0
C      1  0.5237160000000  0.5544500000000  0.4775730000000 1.0
C      1  0.4568670000000  0.4722020000000  0.4462790000000 1.0
C      1  0.4500290000000  0.5555330000000  0.4879760000000 1.0
C      1  0.4958810000000  0.4948950000000  0.4705080000000 1.0
C      1  0.5049020000000  0.4716730000000  0.5820940000000 1.0
C      1  0.5228020000000  0.5094750000000  0.5869770000000 1.0
C      1  0.5132100000000  0.5038020000000  0.4494340000000 1.0
C      1  0.4925130000000  0.5207470000000  0.4839000000000 1.0
C      1  0.4742040000000  0.4686810000000  0.4975880000000 1.0
C      1  0.4515270000000  0.5528820000000  0.5598720000000 1.0
C      1  0.5133980000000  0.5393960000000  0.4231820000000 1.0
C      1  0.4565240000000  0.5387620000000  0.5163430000000 1.0
C      1  0.5329760000000  0.5564010000000  0.4346970000000 1.0
C      1  0.5514940000000  0.5400680000000  0.5595240000000 1.0
C      1  0.5178030000000  0.4994210000000  0.5178220000000 1.0
C      1  0.4352340000000  0.5354700000000  0.5754210000000 1.0
C      1  0.5143850000000  0.5107730000000  0.4188930000000 1.0
C      1  0.5031470000000  0.5233710000000  0.5112640000000 1.0
C      1  0.4427730000000  0.5128240000000  0.5144590000000 1.0
C      1  0.5828430000000  0.5129680000000  0.5061210000000 1.0
C      1  0.5113660000000  0.4369630000000  0.4511240000000 1.0
C      1  0.4923600000000  0.4172700000000  0.4581630000000 1.0
C      1  0.5231250000000  0.5453960000000  0.5068230000000 1.0
C      1  0.5045900000000  0.5656750000000  0.5220410000000 1.0
C      1  0.5197190000000  0.5680670000000  0.5465760000000 1.0
C      1  0.5790090000000  0.5095160000000  0.4602800000000 1.0
C      1  0.4810500000000  0.4731910000000  0.4266370000000 1.0
C      1  0.4859310000000  0.5004900000000  0.4185290000000 1.0
C      1  0.4855210000000  0.4305220000000  0.5296050000000 1.0
C      1  0.4599830000000  0.4188870000000  0.4908680000000 1.0
C      1  0.5584320000000  0.4973720000000  0.4423180000000 1.0
C      1  0.4466040000000  0.5215470000000  0.4454210000000 1.0
C      1  0.5583040000000  0.5158890000000  0.5479530000000 1.0
C      1  0.5741400000000  0.4663930000000  0.4865650000000 1.0
C      1  0.4715880000000  0.4805990000000  0.4717890000000 1.0
C      1  0.5570000000000  0.4547240000000  0.4665900000000 1.0
C      1  0.5032340000000  0.4545820000000  0.5335200000000 1.0
C      1  0.5040570000000  0.5951220000000  0.4546310000000 1.0
C      1  0.4342270000000  0.4584350000000  0.5658130000000 1.0
C      1  0.5705910000000  0.5367390000000  0.4697370000000 1.0
C      1  0.5841970000000  0.4940960000000  0.4836020000000 1.0
C      1  0.5284330000000  0.5355500000000  0.5773760000000 1.0
C      1  0.4918300000000  0.4465040000000  0.5783480000000 1.0
C      1  0.5090360000000  0.5877890000000  0.5022770000000 1.0
C      1  0.4476700000000  0.4640350000000  0.5106670000000 1.0
C      1  0.5205990000000  0.5805890000000  0.4422300000000 1.0
C      1  0.4398060000000  0.5327380000000  0.4717630000000 1.0
C      1  0.4893650000000  0.5427660000000  0.4382980000000 1.0
C      1  0.4679120000000  0.4165100000000  0.4444160000000 1.0
C      1  0.4496020000000  0.4249390000000  0.4644170000000 1.0
C      1  0.4766780000000  0.4302140000000  0.5605590000000 1.0
C      1  0.5323390000000  0.4681240000000  0.4243550000000 1.0
C      1  0.5386020000000  0.4952570000000  0.4178450000000 1.0
C      1  0.4431770000000  0.5602900000000  0.5333110000000 1.0
C      1  0.4108990000000  0.4917100000000  0.4513270000000 1.0
C      1  0.5470340000000  0.5618980000000  0.5412530000000 1.0
C      1  0.4908140000000  0.5907520000000  0.4801770000000 1.0
C      1  0.4746270000000  0.5671930000000  0.4774330000000 1.0
C      1  0.5460060000000  0.4391580000000  0.5183980000000 1.0
C      1  0.5033860000000  0.4168310000000  0.5079430000000 1.0
C      1  0.4709280000000  0.5229680000000  0.4315480000000 1.0
C      1  0.4437840000000  0.5097020000000  0.5739100000000 1.0
C      1  0.4802930000000  0.5404810000000  0.5582260000000 1.0
C      1  0.4339430000000  0.5704380000000  0.5102570000000 1.0
C      1  0.5352250000000  0.5793030000000  0.4927970000000 1.0
C      1  0.5772380000000  0.5023400000000  0.5317660000000 1.0
C      1  0.5314520000000  0.4488380000000  0.5403510000000 1.0
C      1  0.4345640000000  0.4854760000000  0.5584530000000 1.0
C      1  0.4748270000000  0.5113950000000  0.5690910000000 1.0
C      1  0.5433570000000  0.5413970000000  0.4594550000000 1.0
C      1  0.5285730000000  0.4277600000000  0.4994600000000 1.0
C      1  0.5679850000000  0.4571740000000  0.5131350000000 1.0
C      1  0.4730400000000  0.4904030000000  0.5483130000000 1.0
C      1  0.5325580000000  0.4814250000000  0.5780380000000 1.0
C      1  0.4489010000000  0.4373270000000  0.5644170000000 1.0
C      1  0.4193450000000  0.4891630000000  0.4773570000000 1.0
C      1  0.5293570000000  0.4444390000000  0.4739930000000 1.0
C      1  0.4294980000000  0.4644250000000  0.4860010000000 1.0
C      1  0.4478320000000  0.4884700000000  0.5309350000000 1.0
C      1  0.5378350000000  0.5107320000000  0.4621210000000 1.0
C      1  0.5001170000000  0.4734660000000  0.5108740000000 1.0
C      1  0.4963810000000  0.4998810000000  0.5881740000000 1.0
C      1  0.4605070000000  0.4367560000000  0.5127580000000 1.0
C      1  0.4299570000000  0.5127290000000  0.4896860000000 1.0
C      1  0.4360580000000  0.4947940000000  0.4425580000000 1.0
C      1  0.5339990000000  0.4989780000000  0.5431220000000 1.0
C      1  0.4399060000000  0.4505860000000  0.4623690000000 1.0
C      1  0.5354820000000  0.4962400000000  0.4907780000000 1.0
C      1  0.5446780000000  0.4713410000000  0.5520820000000 1.0
C      1  0.5160890000000  0.4756500000000  0.4848840000000 1.0
C      1  0.5513760000000  0.5583930000000  0.5117210000000 1.0
C      1  0.5064350000000  0.4569240000000  0.4302680000000 1.0
C      1  0.5691530000000  0.4750660000000  0.5349810000000 1.0
C      1  0.5716220000000  0.5395500000000  0.4977610000000 1.0
C      1  0.5551990000000  0.4679070000000  0.4423620000000 1.0
END
