TITL C-112704-765-12 14.6709210444219 125000 -195.902897552421 0 0 30 (C1) n - 1
REM
REM in /rds/project/t2_vol4/rds-t2-cs072/BORA/CARBON/from-Arr/AIRSS/Generating-Clusters/GAP-ML-2020/Only-C1/SD-CG/HFTN-CG
REM
REM
REM
REM
REM
REM ./C.cell (11c1c37f851c82e70ff6c80c92926a4b)
REM AIRSS Version 0.9.1 bugfix July 2018 build 013d7b7c2542+ Fri, 06 Jul 2018 19:26:36 +0100
REM compiler GCC version 9.3.0
REM options -cpp -mtune=generic -march=x86-64 -g -O0
REM seed 1901730036 -2057634641 -1024316867 -238966344 -111590785 -2041898191 -487030855 1624801513 -368536481 -4765412 -401727789 -619223216 563626609 -837893283 -894352103 -411340282 -1312881757 2119517072 -2040384533 -593262625 -2061528765 2034528081 -996571774 1202416657 1598748559 -1071842703 -189184621 -2092410004 -1212089113 1271383368 -1655449114 -1825306444 852855193
REM
CELL 1.54180   50.00000   50.00000   50.00000   90.00000   90.00000   90.00000
LATT -1
SFAC C  
C      1  0.5508370000000  0.5457850000000  0.4762420000000 1.0
C      1  0.5103300000000  0.4524850000000  0.5148430000000 1.0
C      1  0.4665400000000  0.4492830000000  0.4924700000000 1.0
C      1  0.4971450000000  0.4668000000000  0.4724370000000 1.0
C      1  0.5286390000000  0.5013020000000  0.4825740000000 1.0
C      1  0.4486800000000  0.4955470000000  0.4876090000000 1.0
C      1  0.4859100000000  0.5129010000000  0.4844950000000 1.0
C      1  0.4814080000000  0.4719570000000  0.4512070000000 1.0
C      1  0.4946770000000  0.4679690000000  0.5327910000000 1.0
C      1  0.4809890000000  0.5576710000000  0.4849590000000 1.0
C      1  0.4600170000000  0.4814300000000  0.4392070000000 1.0
C      1  0.4942920000000  0.4456590000000  0.4918640000000 1.0
C      1  0.4603800000000  0.5190460000000  0.5021990000000 1.0
C      1  0.4698980000000  0.4804900000000  0.5260010000000 1.0
C      1  0.5023810000000  0.4915040000000  0.4879980000000 1.0
C      1  0.5374390000000  0.4855320000000  0.5352360000000 1.0
C      1  0.5103090000000  0.4885860000000  0.5436080000000 1.0
C      1  0.4718370000000  0.5086700000000  0.5275560000000 1.0
C      1  0.4569260000000  0.4728430000000  0.5025150000000 1.0
C      1  0.5005480000000  0.5366210000000  0.4819490000000 1.0
C      1  0.4474900000000  0.4919560000000  0.4605700000000 1.0
C      1  0.4961690000000  0.5147000000000  0.5415480000000 1.0
C      1  0.5525540000000  0.5090880000000  0.5371960000000 1.0
C      1  0.5141110000000  0.5364440000000  0.5447430000000 1.0
C      1  0.4594320000000  0.5474450000000  0.4956450000000 1.0
C      1  0.5399930000000  0.5310480000000  0.5451270000000 1.0
C      1  0.5715780000000  0.5604260000000  0.4769530000000 1.0
C      1  0.5449150000000  0.4799590000000  0.4895510000000 1.0
C      1  0.5358000000000  0.4671190000000  0.5120760000000 1.0
C      1  0.5287750000000  0.5297330000000  0.4788300000000 1.0
END
