TITL C-111165-5580-3 0.108364288853243 125000 -201.345841233074 0 0 31 (C1) n - 1
REM
REM in /rds/project/t2_vol4/rds-t2-cs072/BORA/CARBON/from-Arr/AIRSS/Generating-Clusters/GAP-ML-2020/Only-C1/SD-CG/HFTN-CG
REM
REM
REM
REM
REM
REM ./C.cell (11c1c37f851c82e70ff6c80c92926a4b)
REM AIRSS Version 0.9.1 bugfix July 2018 build 013d7b7c2542+ Fri, 06 Jul 2018 19:26:36 +0100
REM compiler GCC version 9.3.0
REM options -cpp -mtune=generic -march=x86-64 -g -O0
REM seed 1728927355 182009861 361982582 1468880375 1773859074 1525798905 -1822207448 1119600976 1976883071 255081776 1712136592 -455087286 -956955779 732853416 -245722791 -834892455 -553523037 -484129365 -2009957495 -1018180796 1358890449 -351626771 -237366703 -571420860 1188485536 -1679899500 -1310259767 1743650293 56840822 830660320 -340787032 -335846733 1361520862
REM
CELL 1.54180   50.00000   50.00000   50.00000   90.00000   90.00000   90.00000
LATT -1
SFAC C  
C      1  0.5322420000000  0.4617680000000  0.5181050000000 1.0
C      1  0.5015060000000  0.4496330000000  0.4830920000000 1.0
C      1  0.5330620000000  0.5074140000000  0.4512240000000 1.0
C      1  0.4856580000000  0.5013790000000  0.4542140000000 1.0
C      1  0.5351420000000  0.5091430000000  0.5242710000000 1.0
C      1  0.4228150000000  0.5127610000000  0.4896100000000 1.0
C      1  0.5247700000000  0.4819750000000  0.5359100000000 1.0
C      1  0.5096940000000  0.4438610000000  0.5106890000000 1.0
C      1  0.5197020000000  0.5515530000000  0.5372820000000 1.0
C      1  0.5474410000000  0.5022290000000  0.4976370000000 1.0
C      1  0.4913910000000  0.5480130000000  0.4810340000000 1.0
C      1  0.4848330000000  0.5621030000000  0.5034340000000 1.0
C      1  0.5156560000000  0.5338080000000  0.4885770000000 1.0
C      1  0.4693570000000  0.4815240000000  0.4669010000000 1.0
C      1  0.5098080000000  0.5160070000000  0.5100360000000 1.0
C      1  0.4434360000000  0.5000770000000  0.4950280000000 1.0
C      1  0.5136640000000  0.4756220000000  0.4811470000000 1.0
C      1  0.4875420000000  0.5250820000000  0.5291840000000 1.0
C      1  0.4718380000000  0.5012160000000  0.4896710000000 1.0
C      1  0.4812960000000  0.5233730000000  0.4726660000000 1.0
C      1  0.5116080000000  0.4920700000000  0.4580070000000 1.0
C      1  0.4927160000000  0.5528710000000  0.5289210000000 1.0
C      1  0.5386180000000  0.5338310000000  0.5383560000000 1.0
C      1  0.5403710000000  0.4753630000000  0.4946970000000 1.0
C      1  0.4734560000000  0.4556920000000  0.4772960000000 1.0
C      1  0.4805600000000  0.5034660000000  0.5427280000000 1.0
C      1  0.4963250000000  0.4909820000000  0.5026700000000 1.0
C      1  0.5365950000000  0.5187060000000  0.4755910000000 1.0
C      1  0.4943910000000  0.4808690000000  0.5328910000000 1.0
C      1  0.4681640000000  0.4542870000000  0.5042280000000 1.0
C      1  0.4863430000000  0.4533230000000  0.5249030000000 1.0
END
