TITL C-112728-661-3 -0.124661646380956 125000 -312.879504564387 0 0 47 (C1) n - 1
REM
REM in /rds/project/t2_vol4/rds-t2-cs072/BORA/CARBON/from-Arr/AIRSS/Generating-Clusters/GAP-ML-2020/Only-C1/SD-CG/HFTN-CG
REM
REM
REM
REM
REM
REM ./C.cell (11c1c37f851c82e70ff6c80c92926a4b)
REM AIRSS Version 0.9.1 bugfix July 2018 build 013d7b7c2542+ Fri, 06 Jul 2018 19:26:36 +0100
REM compiler GCC version 9.3.0
REM options -cpp -mtune=generic -march=x86-64 -g -O0
REM seed 434239053 177439911 -1527222825 -1202016587 -1036541415 956014542 1392820749 457917255 -2103787924 -1836555256 1647862021 1607692196 -535835866 444577354 -1800588584 -1230400529 -904531478 -1178226997 1107056202 -1511666591 -1906620610 672482718 911219913 794789537 -371504585 -238560302 -202910776 -1136785244 -345509682 933098929 -1804463884 964095828 826606146
REM
CELL 1.54180   50.00000   50.00000   50.00000   90.00000   90.00000   90.00000
LATT -1
SFAC C  
C      1  0.5361870000000  0.4493960000000  0.5054960000000 1.0
C      1  0.4819230000000  0.5336820000000  0.5174380000000 1.0
C      1  0.4922670000000  0.4850710000000  0.4726220000000 1.0
C      1  0.5328050000000  0.5412300000000  0.4826590000000 1.0
C      1  0.5180740000000  0.5670500000000  0.5094290000000 1.0
C      1  0.5621280000000  0.4928900000000  0.4629730000000 1.0
C      1  0.5546410000000  0.5061770000000  0.5451090000000 1.0
C      1  0.5362610000000  0.4865460000000  0.4567560000000 1.0
C      1  0.5485110000000  0.5218890000000  0.5004890000000 1.0
C      1  0.4437570000000  0.5092850000000  0.4671980000000 1.0
C      1  0.5518800000000  0.5291520000000  0.5283140000000 1.0
C      1  0.4844230000000  0.4840900000000  0.5613490000000 1.0
C      1  0.4858980000000  0.5269360000000  0.4581920000000 1.0
C      1  0.5079320000000  0.4889020000000  0.5229050000000 1.0
C      1  0.4748200000000  0.4474940000000  0.4588860000000 1.0
C      1  0.5128140000000  0.5264680000000  0.4689410000000 1.0
C      1  0.4956390000000  0.4642620000000  0.5090990000000 1.0
C      1  0.5003990000000  0.4873520000000  0.4282650000000 1.0
C      1  0.5511470000000  0.4773440000000  0.5076500000000 1.0
C      1  0.5119430000000  0.4505040000000  0.4913550000000 1.0
C      1  0.5671650000000  0.4992780000000  0.4887930000000 1.0
C      1  0.5348680000000  0.4418170000000  0.5327380000000 1.0
C      1  0.5284480000000  0.4977390000000  0.5037260000000 1.0
C      1  0.4489440000000  0.4718470000000  0.4901130000000 1.0
C      1  0.4274170000000  0.5093040000000  0.5144910000000 1.0
C      1  0.4816380000000  0.5035500000000  0.5191850000000 1.0
C      1  0.5004640000000  0.4559060000000  0.4639480000000 1.0
C      1  0.4324080000000  0.4955150000000  0.4916480000000 1.0
C      1  0.4596090000000  0.5410490000000  0.5005270000000 1.0
C      1  0.5560560000000  0.4805490000000  0.5357090000000 1.0
C      1  0.4406640000000  0.5090660000000  0.5428880000000 1.0
C      1  0.4616590000000  0.5312920000000  0.4727140000000 1.0
C      1  0.5182930000000  0.4704240000000  0.4406060000000 1.0
C      1  0.5053910000000  0.5478150000000  0.5264120000000 1.0
C      1  0.5248520000000  0.5343070000000  0.5409370000000 1.0
C      1  0.4531560000000  0.4634140000000  0.4624740000000 1.0
C      1  0.4354050000000  0.5366690000000  0.5442610000000 1.0
C      1  0.5321380000000  0.5694120000000  0.4882060000000 1.0
C      1  0.5344540000000  0.4643810000000  0.5474490000000 1.0
C      1  0.4550930000000  0.4900110000000  0.4498560000000 1.0
C      1  0.4819270000000  0.4996960000000  0.4453370000000 1.0
C      1  0.4668720000000  0.4969440000000  0.5451150000000 1.0
C      1  0.5174780000000  0.4986740000000  0.4767560000000 1.0
C      1  0.5131150000000  0.4851660000000  0.5527080000000 1.0
C      1  0.5287470000000  0.5103870000000  0.5562250000000 1.0
C      1  0.4345940000000  0.5378830000000  0.5145600000000 1.0
C      1  0.4756960000000  0.4821850000000  0.4974930000000 1.0
END
