TITL C-112714-692-7 -0.048750162534337 125000 -614.539536835493 0 0 88 (C1) n - 1
REM
REM in /rds/project/t2_vol4/rds-t2-cs072/BORA/CARBON/from-Arr/AIRSS/Generating-Clusters/GAP-ML-2020/Only-C1/SD-CG/HFTN-CG
REM
REM
REM
REM
REM
REM ./C.cell (11c1c37f851c82e70ff6c80c92926a4b)
REM AIRSS Version 0.9.1 bugfix July 2018 build 013d7b7c2542+ Fri, 06 Jul 2018 19:26:36 +0100
REM compiler GCC version 9.3.0
REM options -cpp -mtune=generic -march=x86-64 -g -O0
REM seed -1940437952 -2095740524 1646357040 -623357301 -520265134 401178995 -1612606142 -2146306461 -2100273081 -223956114 1478484794 -142826312 -2136382425 -268380759 -297376705 -1104019981 277588086 1811509233 -1131335442 -168934595 -917951824 1340649940 -2057907580 222712033 -1713398026 -1470633450 -2127890355 1361597987 -1650677554 -1298537661 341241644 507164284 -2054041487
REM
CELL 1.54180   50.00000   50.00000   50.00000   90.00000   90.00000   90.00000
LATT -1
SFAC C  
C      1  0.5186700000000  0.4275650000000  0.5409430000000 1.0
C      1  0.5835460000000  0.5470190000000  0.5084870000000 1.0
C      1  0.5515810000000  0.5596530000000  0.4765000000000 1.0
C      1  0.5093370000000  0.4230080000000  0.5152320000000 1.0
C      1  0.4139500000000  0.4925500000000  0.4892610000000 1.0
C      1  0.5089360000000  0.5530080000000  0.4512830000000 1.0
C      1  0.4729670000000  0.4427390000000  0.5411020000000 1.0
C      1  0.5756250000000  0.4710170000000  0.5309750000000 1.0
C      1  0.5182270000000  0.4703270000000  0.4373170000000 1.0
C      1  0.5006120000000  0.5800400000000  0.5202920000000 1.0
C      1  0.4595020000000  0.5204610000000  0.4339950000000 1.0
C      1  0.5329020000000  0.5105290000000  0.4520370000000 1.0
C      1  0.4921160000000  0.5606740000000  0.4302660000000 1.0
C      1  0.5390100000000  0.4947600000000  0.5202310000000 1.0
C      1  0.4264790000000  0.5045430000000  0.5260690000000 1.0
C      1  0.5146530000000  0.4982770000000  0.4354210000000 1.0
C      1  0.4281320000000  0.4763400000000  0.5325380000000 1.0
C      1  0.4701920000000  0.5472300000000  0.4282900000000 1.0
C      1  0.4809130000000  0.4811710000000  0.4599620000000 1.0
C      1  0.4236210000000  0.4704960000000  0.5053650000000 1.0
C      1  0.4664250000000  0.4566110000000  0.4247810000000 1.0
C      1  0.4553110000000  0.4789270000000  0.4149780000000 1.0
C      1  0.5175160000000  0.4761810000000  0.5247780000000 1.0
C      1  0.4556570000000  0.5294390000000  0.5389810000000 1.0
C      1  0.5237740000000  0.5667950000000  0.4721940000000 1.0
C      1  0.5677440000000  0.5356810000000  0.4673520000000 1.0
C      1  0.4664600000000  0.4840600000000  0.5150810000000 1.0
C      1  0.4556790000000  0.5803390000000  0.5027440000000 1.0
C      1  0.4946090000000  0.5296710000000  0.4645220000000 1.0
C      1  0.4806120000000  0.4305750000000  0.5161670000000 1.0
C      1  0.4561670000000  0.5159320000000  0.5634490000000 1.0
C      1  0.4954770000000  0.4826070000000  0.5736720000000 1.0
C      1  0.5282990000000  0.4292600000000  0.4940100000000 1.0
C      1  0.5897090000000  0.5000510000000  0.4912480000000 1.0
C      1  0.4720660000000  0.5774410000000  0.5265240000000 1.0
C      1  0.4485000000000  0.4479390000000  0.4461400000000 1.0
C      1  0.5354280000000  0.4561770000000  0.4559350000000 1.0
C      1  0.5612370000000  0.4480850000000  0.5250480000000 1.0
C      1  0.5042060000000  0.5204970000000  0.5235510000000 1.0
C      1  0.4946350000000  0.4336970000000  0.4559530000000 1.0
C      1  0.5916060000000  0.4919410000000  0.5184590000000 1.0
C      1  0.4964800000000  0.4379620000000  0.5566410000000 1.0
C      1  0.5276420000000  0.5182550000000  0.5065810000000 1.0
C      1  0.5199030000000  0.4349020000000  0.4677210000000 1.0
C      1  0.4997120000000  0.4880700000000  0.4827190000000 1.0
C      1  0.4529040000000  0.5571270000000  0.5359470000000 1.0
C      1  0.5158030000000  0.5124370000000  0.4785160000000 1.0
C      1  0.4721780000000  0.5434760000000  0.4776460000000 1.0
C      1  0.5167010000000  0.5015780000000  0.5685010000000 1.0
C      1  0.5631070000000  0.5659090000000  0.5020250000000 1.0
C      1  0.4240430000000  0.5415640000000  0.4976810000000 1.0
C      1  0.4103040000000  0.5158920000000  0.5052040000000 1.0
C      1  0.5223700000000  0.5726600000000  0.5359850000000 1.0
C      1  0.5287390000000  0.5495810000000  0.5539540000000 1.0
C      1  0.5076160000000  0.4570050000000  0.5732540000000 1.0
C      1  0.4575070000000  0.4693070000000  0.5420010000000 1.0
C      1  0.4915510000000  0.4583610000000  0.4409290000000 1.0
C      1  0.5036220000000  0.5761290000000  0.4912650000000 1.0
C      1  0.5431100000000  0.4406080000000  0.5465650000000 1.0
C      1  0.5494380000000  0.5726240000000  0.5263210000000 1.0
C      1  0.5129990000000  0.5253470000000  0.5527280000000 1.0
C      1  0.4301760000000  0.4929640000000  0.4655320000000 1.0
C      1  0.4695140000000  0.4259390000000  0.4679360000000 1.0
C      1  0.5572120000000  0.4619880000000  0.4741570000000 1.0
C      1  0.4489860000000  0.5030660000000  0.4117660000000 1.0
C      1  0.5805890000000  0.5382650000000  0.5355400000000 1.0
C      1  0.4509470000000  0.4631660000000  0.4945960000000 1.0
C      1  0.4868600000000  0.5072080000000  0.4450900000000 1.0
C      1  0.4340380000000  0.5630710000000  0.5121590000000 1.0
C      1  0.4665030000000  0.4852250000000  0.5665150000000 1.0
C      1  0.4457520000000  0.5013320000000  0.5823090000000 1.0
C      1  0.5871890000000  0.5288740000000  0.4870840000000 1.0
C      1  0.4760870000000  0.5696750000000  0.4846670000000 1.0
C      1  0.4492970000000  0.5286280000000  0.4864200000000 1.0
C      1  0.4950230000000  0.4877250000000  0.5115740000000 1.0
C      1  0.5603040000000  0.5094080000000  0.4566040000000 1.0
C      1  0.4475620000000  0.4216840000000  0.4516280000000 1.0
C      1  0.4537620000000  0.5114990000000  0.5151140000000 1.0
C      1  0.4643700000000  0.4365160000000  0.4944170000000 1.0
C      1  0.5609780000000  0.4930880000000  0.5469940000000 1.0
C      1  0.5832830000000  0.5108420000000  0.5392640000000 1.0
C      1  0.4421900000000  0.5170680000000  0.4597750000000 1.0
C      1  0.5358480000000  0.4588160000000  0.5678210000000 1.0
C      1  0.5576550000000  0.5527710000000  0.5466880000000 1.0
C      1  0.5524900000000  0.4439890000000  0.4977880000000 1.0
C      1  0.5722630000000  0.4871090000000  0.4717850000000 1.0
C      1  0.5421650000000  0.4862210000000  0.5675380000000 1.0
C      1  0.4511410000000  0.4717540000000  0.4659220000000 1.0
END
