TITL C-119474-4370-3 0.00241543763961752 125000 -572.199459584027 0 0 83 (C1) n - 1
REM
REM in /rds/project/t2_vol4/rds-t2-cs072/BORA/CARBON/from-Arr/AIRSS/Generating-Clusters/GAP-ML-2020/Only-C1/SD-CG/HFTN-CG
REM
REM
REM
REM
REM
REM ./C.cell (11c1c37f851c82e70ff6c80c92926a4b)
REM AIRSS Version 0.9.1 bugfix July 2018 build 013d7b7c2542+ Fri, 06 Jul 2018 19:26:36 +0100
REM compiler GCC version 9.3.0
REM options -cpp -mtune=generic -march=x86-64 -g -O0
REM seed -1909378107 -392846905 1377411824 -1518769804 -1057763306 1408084189 1203738366 768025369 -1949758353 1088449842 -757081927 -1218943318 -1788830653 -1950042003 -568670262 -1674422610 1695751913 472281752 -719446115 1110847040 -1769326282 -314019760 150228221 370296685 290992026 1855905783 1079083297 -1557475982 1158834845 1750509499 -1476033672 -1818549939 1987717773
REM
CELL 1.54180   50.00000   50.00000   50.00000   90.00000   90.00000   90.00000
LATT -1
SFAC C  
C      1  0.4881540000000  0.5139530000000  0.5805470000000 1.0
C      1  0.5617220000000  0.4941210000000  0.4327180000000 1.0
C      1  0.4228030000000  0.4476690000000  0.4951660000000 1.0
C      1  0.5470540000000  0.5622260000000  0.4813650000000 1.0
C      1  0.5635980000000  0.4564610000000  0.4932310000000 1.0
C      1  0.5268030000000  0.5318940000000  0.4381340000000 1.0
C      1  0.4649720000000  0.5312930000000  0.5382930000000 1.0
C      1  0.5278390000000  0.4250000000000  0.4957730000000 1.0
C      1  0.5349650000000  0.4564880000000  0.4571000000000 1.0
C      1  0.5466110000000  0.5569020000000  0.5393380000000 1.0
C      1  0.4447530000000  0.5553810000000  0.4734060000000 1.0
C      1  0.4480660000000  0.4873320000000  0.5134960000000 1.0
C      1  0.4813100000000  0.5350600000000  0.5645220000000 1.0
C      1  0.5009180000000  0.4252900000000  0.4846710000000 1.0
C      1  0.5735210000000  0.5009680000000  0.4879080000000 1.0
C      1  0.4589220000000  0.4888490000000  0.4713970000000 1.0
C      1  0.4867560000000  0.4642020000000  0.5692810000000 1.0
C      1  0.4317220000000  0.4902170000000  0.5365480000000 1.0
C      1  0.5474670000000  0.5148590000000  0.4308610000000 1.0
C      1  0.5094930000000  0.5000510000000  0.4801650000000 1.0
C      1  0.4883120000000  0.4957000000000  0.4295530000000 1.0
C      1  0.5432330000000  0.5147030000000  0.5636770000000 1.0
C      1  0.4925020000000  0.4661330000000  0.4303920000000 1.0
C      1  0.5043950000000  0.5513450000000  0.5578500000000 1.0
C      1  0.4865810000000  0.4407690000000  0.5533820000000 1.0
C      1  0.4964820000000  0.4679020000000  0.5127080000000 1.0
C      1  0.5741010000000  0.4754180000000  0.4746500000000 1.0
C      1  0.4736650000000  0.5545960000000  0.4652370000000 1.0
C      1  0.4797020000000  0.5354810000000  0.4900240000000 1.0
C      1  0.5298260000000  0.5781050000000  0.4992710000000 1.0
C      1  0.5801830000000  0.5246600000000  0.5294030000000 1.0
C      1  0.5491530000000  0.4983360000000  0.5036570000000 1.0
C      1  0.4666520000000  0.4640290000000  0.4420240000000 1.0
C      1  0.5006670000000  0.4249030000000  0.4554900000000 1.0
C      1  0.4863830000000  0.5735730000000  0.5170780000000 1.0
C      1  0.5115860000000  0.4454500000000  0.4405900000000 1.0
C      1  0.5679360000000  0.5069580000000  0.5490330000000 1.0
C      1  0.5276940000000  0.4910060000000  0.5707400000000 1.0
C      1  0.5019780000000  0.5802750000000  0.4938920000000 1.0
C      1  0.4324740000000  0.4911740000000  0.4867040000000 1.0
C      1  0.5237500000000  0.4310240000000  0.5235750000000 1.0
C      1  0.4933240000000  0.5761640000000  0.4672270000000 1.0
C      1  0.5692220000000  0.5499770000000  0.4953450000000 1.0
C      1  0.4376930000000  0.5180950000000  0.5334670000000 1.0
C      1  0.4878600000000  0.5117900000000  0.5310550000000 1.0
C      1  0.4509470000000  0.5217110000000  0.4414810000000 1.0
C      1  0.4256250000000  0.5320650000000  0.5104500000000 1.0
C      1  0.5616410000000  0.4793570000000  0.5425080000000 1.0
C      1  0.4667470000000  0.4590190000000  0.4718880000000 1.0
C      1  0.5289980000000  0.5357700000000  0.5498970000000 1.0
C      1  0.5000760000000  0.4891500000000  0.5780640000000 1.0
C      1  0.5455260000000  0.4394600000000  0.4800240000000 1.0
C      1  0.4565790000000  0.4263480000000  0.5077110000000 1.0
C      1  0.4220500000000  0.5181460000000  0.4850040000000 1.0
C      1  0.4809580000000  0.5055750000000  0.4866140000000 1.0
C      1  0.5329370000000  0.5559090000000  0.4553430000000 1.0
C      1  0.5246130000000  0.5121260000000  0.5013390000000 1.0
C      1  0.4350610000000  0.4409400000000  0.5214660000000 1.0
C      1  0.5513440000000  0.4716530000000  0.5158130000000 1.0
C      1  0.5040550000000  0.5725450000000  0.5390280000000 1.0
C      1  0.4827080000000  0.4180460000000  0.5089780000000 1.0
C      1  0.5370890000000  0.4703770000000  0.5544270000000 1.0
C      1  0.4631130000000  0.4555660000000  0.5570680000000 1.0
C      1  0.5599460000000  0.4726450000000  0.4501860000000 1.0
C      1  0.5694370000000  0.5507520000000  0.5250670000000 1.0
C      1  0.4977280000000  0.4244450000000  0.5322390000000 1.0
C      1  0.4402810000000  0.4630530000000  0.5406070000000 1.0
C      1  0.5125400000000  0.5227570000000  0.5239770000000 1.0
C      1  0.5145740000000  0.4729090000000  0.4755100000000 1.0
C      1  0.5303460000000  0.5758740000000  0.5276770000000 1.0
C      1  0.4941660000000  0.4558980000000  0.4860660000000 1.0
C      1  0.4603760000000  0.4939080000000  0.4406410000000 1.0
C      1  0.4122020000000  0.4691900000000  0.4848880000000 1.0
C      1  0.5144650000000  0.5758990000000  0.4494540000000 1.0
C      1  0.5251980000000  0.4601010000000  0.5282710000000 1.0
C      1  0.4671270000000  0.5514280000000  0.5151280000000 1.0
C      1  0.4479770000000  0.4388500000000  0.4832140000000 1.0
C      1  0.4751090000000  0.5372190000000  0.4413480000000 1.0
C      1  0.4409560000000  0.5542170000000  0.5022770000000 1.0
C      1  0.4988090000000  0.5228590000000  0.4330720000000 1.0
C      1  0.5839770000000  0.5243100000000  0.4977900000000 1.0
C      1  0.4788600000000  0.4914790000000  0.5132340000000 1.0
C      1  0.4330530000000  0.5326610000000  0.4623110000000 1.0
END
