TITL C-121986-4402-6 18.0482638448649 125000 -1035.71744297183 0 0 147 (C1) n - 1
REM
REM in /rds/project/t2_vol4/rds-t2-cs072/BORA/CARBON/from-Arr/AIRSS/Generating-Clusters/GAP-ML-2020/Only-C1/SD-CG/HFTN-CG
REM
REM
REM
REM
REM
REM ./C.cell (11c1c37f851c82e70ff6c80c92926a4b)
REM AIRSS Version 0.9.1 bugfix July 2018 build 013d7b7c2542+ Fri, 06 Jul 2018 19:26:36 +0100
REM compiler GCC version 9.3.0
REM options -cpp -mtune=generic -march=x86-64 -g -O0
REM seed -1101941343 557735342 -2146685655 -1443033559 -1629784664 -217104953 2035634045 -452935610 1574674658 1604533274 -1861742413 660579860 537793575 2080234734 1204593893 -528217819 1975812741 -1489949594 575474616 2129284437 1924704279 470059528 455033119 -1613119594 1261252432 -907705078 1378482562 -997253883 1965372448 1590299756 4856382 -202206416 -923730017
REM
CELL 1.54180   50.00000   50.00000   50.00000   90.00000   90.00000   90.00000
LATT -1
SFAC C  
C      1  0.5101980000000  0.5276960000000  0.4641840000000 1.0
C      1  0.5223820000000  0.4152680000000  0.5643920000000 1.0
C      1  0.5700860000000  0.4856950000000  0.4225390000000 1.0
C      1  0.5008260000000  0.4221340000000  0.4380190000000 1.0
C      1  0.5855460000000  0.5411070000000  0.5422360000000 1.0
C      1  0.4847360000000  0.5237730000000  0.5702290000000 1.0
C      1  0.4734810000000  0.4153840000000  0.5070270000000 1.0
C      1  0.4456430000000  0.4199700000000  0.4626780000000 1.0
C      1  0.4409960000000  0.4394770000000  0.4413320000000 1.0
C      1  0.4900040000000  0.5091270000000  0.4165960000000 1.0
C      1  0.5345160000000  0.5751850000000  0.5738600000000 1.0
C      1  0.5038360000000  0.3842280000000  0.5302350000000 1.0
C      1  0.4788190000000  0.4686210000000  0.5952360000000 1.0
C      1  0.4421350000000  0.5487110000000  0.5619720000000 1.0
C      1  0.5617720000000  0.5815820000000  0.5381500000000 1.0
C      1  0.5425530000000  0.4266350000000  0.5485300000000 1.0
C      1  0.4675020000000  0.4560060000000  0.4799980000000 1.0
C      1  0.4911220000000  0.4111590000000  0.4623820000000 1.0
C      1  0.4577200000000  0.5102910000000  0.5082840000000 1.0
C      1  0.3977230000000  0.5138490000000  0.4863350000000 1.0
C      1  0.4860320000000  0.5109270000000  0.5133580000000 1.0
C      1  0.5288400000000  0.5092520000000  0.4019670000000 1.0
C      1  0.5805030000000  0.5392000000000  0.4798680000000 1.0
C      1  0.5369520000000  0.5164880000000  0.4619000000000 1.0
C      1  0.4186230000000  0.4483100000000  0.4584640000000 1.0
C      1  0.5189100000000  0.5706640000000  0.4207590000000 1.0
C      1  0.4793280000000  0.4422150000000  0.5839160000000 1.0
C      1  0.4272550000000  0.5344340000000  0.4357760000000 1.0
C      1  0.6064850000000  0.5123790000000  0.5096860000000 1.0
C      1  0.5833770000000  0.4905720000000  0.5471010000000 1.0
C      1  0.4021760000000  0.4693630000000  0.4682750000000 1.0
C      1  0.5715250000000  0.5440900000000  0.5671260000000 1.0
C      1  0.5012610000000  0.5662190000000  0.5426780000000 1.0
C      1  0.5677110000000  0.4284140000000  0.4669420000000 1.0
C      1  0.5548620000000  0.5090470000000  0.4133920000000 1.0
C      1  0.4865490000000  0.4773940000000  0.4750510000000 1.0
C      1  0.4079960000000  0.4597030000000  0.5154650000000 1.0
C      1  0.3921740000000  0.4643160000000  0.4946660000000 1.0
C      1  0.5807020000000  0.4552990000000  0.5051590000000 1.0
C      1  0.5233490000000  0.4687630000000  0.5818000000000 1.0
C      1  0.4223010000000  0.5077320000000  0.4442400000000 1.0
C      1  0.4133930000000  0.5409310000000  0.5206050000000 1.0
C      1  0.4430670000000  0.4868510000000  0.5126020000000 1.0
C      1  0.5058540000000  0.4378310000000  0.5726750000000 1.0
C      1  0.5486010000000  0.4989130000000  0.5027730000000 1.0
C      1  0.4686850000000  0.5966360000000  0.4567960000000 1.0
C      1  0.5207350000000  0.5965230000000  0.5059360000000 1.0
C      1  0.5256940000000  0.4871310000000  0.5183080000000 1.0
C      1  0.5555570000000  0.4540620000000  0.5497860000000 1.0
C      1  0.5348170000000  0.5770220000000  0.4910930000000 1.0
C      1  0.4811610000000  0.5732840000000  0.5213550000000 1.0
C      1  0.5376370000000  0.4468490000000  0.4214180000000 1.0
C      1  0.4370590000000  0.4605820000000  0.5735350000000 1.0
C      1  0.4608860000000  0.4530470000000  0.4242520000000 1.0
C      1  0.5026860000000  0.5347010000000  0.4928630000000 1.0
C      1  0.4612650000000  0.5073660000000  0.4112290000000 1.0
C      1  0.4890780000000  0.4440600000000  0.4229430000000 1.0
C      1  0.5840600000000  0.4699050000000  0.4765680000000 1.0
C      1  0.4311440000000  0.4398740000000  0.5072110000000 1.0
C      1  0.5554050000000  0.4796170000000  0.4835350000000 1.0
C      1  0.4550650000000  0.4619310000000  0.5054810000000 1.0
C      1  0.5668510000000  0.4318190000000  0.4956800000000 1.0
C      1  0.5583220000000  0.5215610000000  0.5806040000000 1.0
C      1  0.5320510000000  0.4047700000000  0.4805860000000 1.0
C      1  0.4525530000000  0.4786440000000  0.5903470000000 1.0
C      1  0.5297800000000  0.4235070000000  0.4354170000000 1.0
C      1  0.4475700000000  0.4938660000000  0.4423920000000 1.0
C      1  0.5635380000000  0.4585950000000  0.4288280000000 1.0
C      1  0.5243120000000  0.5487340000000  0.5297440000000 1.0
C      1  0.5771940000000  0.4504940000000  0.4537980000000 1.0
C      1  0.5101750000000  0.4616900000000  0.5563950000000 1.0
C      1  0.5035220000000  0.4837610000000  0.5964540000000 1.0
C      1  0.4469440000000  0.4189630000000  0.5228810000000 1.0
C      1  0.4824200000000  0.4625020000000  0.5207040000000 1.0
C      1  0.5293640000000  0.5469160000000  0.5015600000000 1.0
C      1  0.5337050000000  0.5279790000000  0.5434680000000 1.0
C      1  0.5054800000000  0.5116200000000  0.5911930000000 1.0
C      1  0.5490840000000  0.5258440000000  0.4899560000000 1.0
C      1  0.5450240000000  0.4141410000000  0.4573550000000 1.0
C      1  0.5604820000000  0.5796930000000  0.4798380000000 1.0
C      1  0.5133870000000  0.3902270000000  0.5532450000000 1.0
C      1  0.5130340000000  0.4708580000000  0.4694870000000 1.0
C      1  0.4459310000000  0.4199720000000  0.5500560000000 1.0
C      1  0.5784950000000  0.4646310000000  0.5334130000000 1.0
C      1  0.4056090000000  0.5128640000000  0.5150120000000 1.0
C      1  0.4534450000000  0.4800400000000  0.4187840000000 1.0
C      1  0.4878350000000  0.5221870000000  0.4475260000000 1.0
C      1  0.4705400000000  0.5576160000000  0.4170240000000 1.0
C      1  0.5204540000000  0.5533960000000  0.5837920000000 1.0
C      1  0.4340480000000  0.5556360000000  0.5354970000000 1.0
C      1  0.4699790000000  0.5978220000000  0.4841100000000 1.0
C      1  0.4570500000000  0.5187510000000  0.4823720000000 1.0
C      1  0.5790860000000  0.5636320000000  0.5239260000000 1.0
C      1  0.4744190000000  0.5737110000000  0.5818840000000 1.0
C      1  0.5598220000000  0.5700430000000  0.5648460000000 1.0
C      1  0.4686350000000  0.5749860000000  0.4404570000000 1.0
C      1  0.4515130000000  0.5745140000000  0.5219450000000 1.0
C      1  0.4102980000000  0.5556620000000  0.4972980000000 1.0
C      1  0.5796620000000  0.5638230000000  0.4955160000000 1.0
C      1  0.5068200000000  0.5290470000000  0.4022140000000 1.0
C      1  0.4546220000000  0.5247240000000  0.5721070000000 1.0
C      1  0.5198650000000  0.5053660000000  0.5400160000000 1.0
C      1  0.5361810000000  0.5958310000000  0.5313730000000 1.0
C      1  0.4169080000000  0.5509320000000  0.4562740000000 1.0
C      1  0.4245350000000  0.4834410000000  0.5588010000000 1.0
C      1  0.5601460000000  0.5716410000000  0.4522290000000 1.0
C      1  0.4460390000000  0.5862990000000  0.4959710000000 1.0
C      1  0.4606720000000  0.5471820000000  0.4783350000000 1.0
C      1  0.4918230000000  0.5956800000000  0.5046970000000 1.0
C      1  0.4701300000000  0.4246210000000  0.4775930000000 1.0
C      1  0.4406640000000  0.5008370000000  0.5759860000000 1.0
C      1  0.4176450000000  0.4867440000000  0.5288560000000 1.0
C      1  0.5057810000000  0.3952430000000  0.4807460000000 1.0
C      1  0.5966690000000  0.4946910000000  0.4663410000000 1.0
C      1  0.5297250000000  0.4607220000000  0.5334560000000 1.0
C      1  0.4944580000000  0.4360120000000  0.5173420000000 1.0
C      1  0.4045870000000  0.4973330000000  0.4636800000000 1.0
C      1  0.5660970000000  0.4950630000000  0.5705600000000 1.0
C      1  0.4987030000000  0.5550590000000  0.4089550000000 1.0
C      1  0.4912900000000  0.5058400000000  0.5438180000000 1.0
C      1  0.4502090000000  0.5346030000000  0.4161460000000 1.0
C      1  0.4338310000000  0.5647750000000  0.4804270000000 1.0
C      1  0.5195690000000  0.5885330000000  0.5529730000000 1.0
C      1  0.4739100000000  0.5488490000000  0.4528850000000 1.0
C      1  0.6000530000000  0.5170730000000  0.4841090000000 1.0
C      1  0.4252070000000  0.4302190000000  0.4797230000000 1.0
C      1  0.4858190000000  0.4755830000000  0.5470200000000 1.0
C      1  0.5349090000000  0.4864890000000  0.4650770000000 1.0
C      1  0.4704570000000  0.5017630000000  0.4620960000000 1.0
C      1  0.4493890000000  0.5719000000000  0.5785930000000 1.0
C      1  0.4970970000000  0.4838960000000  0.5043780000000 1.0
C      1  0.5391900000000  0.5771040000000  0.4345070000000 1.0
C      1  0.5120710000000  0.4601980000000  0.4137210000000 1.0
C      1  0.5509980000000  0.4714400000000  0.5739670000000 1.0
C      1  0.5245290000000  0.4333990000000  0.5216850000000 1.0
C      1  0.4532910000000  0.4363850000000  0.5707030000000 1.0
C      1  0.5838890000000  0.5014910000000  0.4425320000000 1.0
C      1  0.5100680000000  0.4877960000000  0.4080640000000 1.0
C      1  0.5419660000000  0.4203830000000  0.5024190000000 1.0
C      1  0.5948760000000  0.5146700000000  0.5343070000000 1.0
C      1  0.5733350000000  0.5469360000000  0.4517840000000 1.0
C      1  0.5301970000000  0.5276530000000  0.5905190000000 1.0
C      1  0.5618840000000  0.5229520000000  0.4398690000000 1.0
C      1  0.4829190000000  0.5552050000000  0.4948840000000 1.0
C      1  0.4915530000000  0.3913410000000  0.5061270000000 1.0
C      1  0.4941870000000  0.5532710000000  0.5698330000000 1.0
C      1  0.3992650000000  0.5405120000000  0.4761490000000 1.0
END
