TITL C-125537-3335-10 45.0278590090106 125000 -767.490734378338 0 0 111 (C1) n - 1
REM
REM in /rds/project/t2_vol4/rds-t2-cs072/BORA/CARBON/from-Arr/AIRSS/Generating-Clusters/GAP-ML-2020/Only-C1/SD-CG/HFTN-CG
REM
REM
REM
REM
REM
REM ./C.cell (11c1c37f851c82e70ff6c80c92926a4b)
REM AIRSS Version 0.9.1 bugfix July 2018 build 013d7b7c2542+ Fri, 06 Jul 2018 19:26:36 +0100
REM compiler GCC version 9.3.0
REM options -cpp -mtune=generic -march=x86-64 -g -O0
REM seed -1474342198 350866344 -2062632345 -1249023664 1423694972 -1140118727 1615432287 1339336331 -1523079340 -1201012428 1550636233 -1631015254 1436420445 -926680572 1134951599 -1406238117 1833485277 1217869657 -1018751898 -1822099916 705237980 2022784551 452015888 1874881388 -488566764 -2061138498 1434771053 -390146206 2004166584 -1777488300 -788137718 -1010408089 -2119974887
REM
CELL 1.54180   50.00000   50.00000   50.00000   90.00000   90.00000   90.00000
LATT -1
SFAC C  
C      1  0.4996040000000  0.5343280000000  0.4955300000000 1.0
C      1  0.5906200000000  0.4716790000000  0.4763510000000 1.0
C      1  0.4119870000000  0.4241140000000  0.4850000000000 1.0
C      1  0.5202460000000  0.4477090000000  0.4120900000000 1.0
C      1  0.4656100000000  0.4650430000000  0.4534960000000 1.0
C      1  0.5425020000000  0.4365780000000  0.5236550000000 1.0
C      1  0.5009680000000  0.4170610000000  0.4535350000000 1.0
C      1  0.4403820000000  0.5123820000000  0.4457870000000 1.0
C      1  0.5530020000000  0.4882650000000  0.4888830000000 1.0
C      1  0.5670220000000  0.5131560000000  0.5044570000000 1.0
C      1  0.5388830000000  0.4665480000000  0.5628560000000 1.0
C      1  0.4989910000000  0.5139160000000  0.4490140000000 1.0
C      1  0.5171280000000  0.5085410000000  0.5707840000000 1.0
C      1  0.5102930000000  0.4569490000000  0.5622260000000 1.0
C      1  0.4949790000000  0.4951860000000  0.5812490000000 1.0
C      1  0.4686930000000  0.4965680000000  0.4112470000000 1.0
C      1  0.5731270000000  0.4612380000000  0.4558140000000 1.0
C      1  0.4271580000000  0.5311290000000  0.5191320000000 1.0
C      1  0.5118700000000  0.4894640000000  0.4466620000000 1.0
C      1  0.4275190000000  0.4869870000000  0.5324410000000 1.0
C      1  0.4929290000000  0.4671950000000  0.5837370000000 1.0
C      1  0.4990500000000  0.4735400000000  0.5349650000000 1.0
C      1  0.4214300000000  0.5155340000000  0.4955480000000 1.0
C      1  0.4595520000000  0.4705810000000  0.4826520000000 1.0
C      1  0.5136200000000  0.4296140000000  0.5220490000000 1.0
C      1  0.5719160000000  0.4645740000000  0.4990740000000 1.0
C      1  0.5456840000000  0.5335650000000  0.5075110000000 1.0
C      1  0.5424560000000  0.5629480000000  0.4578110000000 1.0
C      1  0.4250900000000  0.4281270000000  0.5079040000000 1.0
C      1  0.5858140000000  0.5019200000000  0.4645370000000 1.0
C      1  0.4740290000000  0.4289120000000  0.5543810000000 1.0
C      1  0.5207120000000  0.4121300000000  0.4760230000000 1.0
C      1  0.4735600000000  0.5015880000000  0.5169770000000 1.0
C      1  0.5183240000000  0.4944680000000  0.5259290000000 1.0
C      1  0.5354460000000  0.4946000000000  0.4080940000000 1.0
C      1  0.5725360000000  0.4725940000000  0.5280820000000 1.0
C      1  0.5242220000000  0.5215960000000  0.4906860000000 1.0
C      1  0.4462080000000  0.4641360000000  0.5392260000000 1.0
C      1  0.4824030000000  0.5708980000000  0.4469520000000 1.0
C      1  0.4315850000000  0.5139300000000  0.5422220000000 1.0
C      1  0.5565840000000  0.4382620000000  0.4995450000000 1.0
C      1  0.4304210000000  0.5256480000000  0.4697780000000 1.0
C      1  0.4476440000000  0.5180000000000  0.5679740000000 1.0
C      1  0.5334920000000  0.5791840000000  0.5017890000000 1.0
C      1  0.5033020000000  0.4735770000000  0.4869410000000 1.0
C      1  0.5507650000000  0.5610030000000  0.5423770000000 1.0
C      1  0.4463480000000  0.4417520000000  0.5199290000000 1.0
C      1  0.5431480000000  0.4943760000000  0.5687480000000 1.0
C      1  0.5139180000000  0.5290360000000  0.5900050000000 1.0
C      1  0.4558510000000  0.4482640000000  0.5628250000000 1.0
C      1  0.4716240000000  0.4833850000000  0.5391320000000 1.0
C      1  0.5163670000000  0.4723890000000  0.4000140000000 1.0
C      1  0.4497190000000  0.5672910000000  0.4913910000000 1.0
C      1  0.4869950000000  0.5755220000000  0.5204500000000 1.0
C      1  0.4953050000000  0.4929410000000  0.4003850000000 1.0
C      1  0.4824420000000  0.5848270000000  0.5501610000000 1.0
C      1  0.5728710000000  0.5010390000000  0.5323810000000 1.0
C      1  0.5337860000000  0.5490960000000  0.5831060000000 1.0
C      1  0.4692200000000  0.4455590000000  0.5020220000000 1.0
C      1  0.4782010000000  0.4929960000000  0.4897710000000 1.0
C      1  0.4869250000000  0.5183010000000  0.4744300000000 1.0
C      1  0.5588780000000  0.5595400000000  0.4992880000000 1.0
C      1  0.5284480000000  0.5549120000000  0.4350180000000 1.0
C      1  0.4543340000000  0.4877580000000  0.4361030000000 1.0
C      1  0.5248800000000  0.4927430000000  0.4970100000000 1.0
C      1  0.4414750000000  0.5529750000000  0.4686610000000 1.0
C      1  0.4691730000000  0.5515120000000  0.5294790000000 1.0
C      1  0.4874730000000  0.5263070000000  0.5231490000000 1.0
C      1  0.4568160000000  0.5578210000000  0.4455520000000 1.0
C      1  0.5796860000000  0.5254190000000  0.4787340000000 1.0
C      1  0.4780400000000  0.4194920000000  0.4906460000000 1.0
C      1  0.5052500000000  0.4131170000000  0.4991320000000 1.0
C      1  0.5376190000000  0.4405460000000  0.4319890000000 1.0
C      1  0.5093280000000  0.5321510000000  0.4272070000000 1.0
C      1  0.5665880000000  0.5516540000000  0.4728960000000 1.0
C      1  0.5132530000000  0.5632430000000  0.5142030000000 1.0
C      1  0.5615460000000  0.5125750000000  0.5566650000000 1.0
C      1  0.4528160000000  0.4378240000000  0.4561670000000 1.0
C      1  0.4655170000000  0.5619860000000  0.5567780000000 1.0
C      1  0.4702470000000  0.4986430000000  0.5652320000000 1.0
C      1  0.5574530000000  0.5773030000000  0.5199420000000 1.0
C      1  0.4965480000000  0.4549480000000  0.5112460000000 1.0
C      1  0.4756230000000  0.5813920000000  0.4937000000000 1.0
C      1  0.5145480000000  0.5143960000000  0.4042850000000 1.0
C      1  0.5294110000000  0.5438410000000  0.5307780000000 1.0
C      1  0.4737610000000  0.4187200000000  0.4633670000000 1.0
C      1  0.5102410000000  0.5673200000000  0.5820960000000 1.0
C      1  0.4936490000000  0.5818340000000  0.4715540000000 1.0
C      1  0.5570020000000  0.4384250000000  0.4521990000000 1.0
C      1  0.5006320000000  0.4309190000000  0.5497500000000 1.0
C      1  0.4205440000000  0.4881880000000  0.5039430000000 1.0
C      1  0.4903480000000  0.5459240000000  0.5878630000000 1.0
C      1  0.5238830000000  0.5800800000000  0.4750790000000 1.0
C      1  0.4515170000000  0.5342930000000  0.4302650000000 1.0
C      1  0.4290690000000  0.4423420000000  0.4722250000000 1.0
C      1  0.5542910000000  0.4557640000000  0.5417250000000 1.0
C      1  0.4442440000000  0.5530570000000  0.5151210000000 1.0
C      1  0.5086100000000  0.4408750000000  0.4400180000000 1.0
C      1  0.5545680000000  0.5424960000000  0.5628620000000 1.0
C      1  0.4983990000000  0.4655130000000  0.4570020000000 1.0
C      1  0.5605570000000  0.4882620000000  0.4555790000000 1.0
C      1  0.4635750000000  0.5436630000000  0.5777630000000 1.0
C      1  0.5122540000000  0.5201960000000  0.5393190000000 1.0
C      1  0.5395600000000  0.4918310000000  0.4365450000000 1.0
C      1  0.4636770000000  0.4651310000000  0.5839220000000 1.0
C      1  0.5006500000000  0.5906110000000  0.5698650000000 1.0
C      1  0.5465630000000  0.4259180000000  0.4761980000000 1.0
C      1  0.5017670000000  0.5604500000000  0.4294160000000 1.0
C      1  0.4637190000000  0.5239820000000  0.4086870000000 1.0
C      1  0.4306750000000  0.4706980000000  0.4834450000000 1.0
C      1  0.4492190000000  0.4896720000000  0.5826000000000 1.0
END
