TITL C-120589-4434-4 0.00383220291856817 125000 -434.274270228955 0 0 64 (C1) n - 1
REM
REM in /rds/project/t2_vol4/rds-t2-cs072/BORA/CARBON/from-Arr/AIRSS/Generating-Clusters/GAP-ML-2020/Only-C1/SD-CG/HFTN-CG
REM
REM
REM
REM
REM
REM ./C.cell (11c1c37f851c82e70ff6c80c92926a4b)
REM AIRSS Version 0.9.1 bugfix July 2018 build 013d7b7c2542+ Fri, 06 Jul 2018 19:26:36 +0100
REM compiler GCC version 9.3.0
REM options -cpp -mtune=generic -march=x86-64 -g -O0
REM seed -179848105 -1343081425 1843373826 -148207407 673907547 541307508 1606983264 -140381063 1747350375 1439226565 1689092139 -724362361 -202548112 95958607 279645493 184232378 -284645168 -393910288 -963526583 -128072105 -290764010 -1220264396 303350243 943271195 492350712 130943944 12826136 987016165 1833464755 -934004133 1473994421 -713651859 -1862624913
REM
CELL 1.54180   50.00000   50.00000   50.00000   90.00000   90.00000   90.00000
LATT -1
SFAC C  
C      1  0.5383710000000  0.5309410000000  0.4481840000000 1.0
C      1  0.5139520000000  0.5146430000000  0.5292290000000 1.0
C      1  0.5023950000000  0.4690720000000  0.5149690000000 1.0
C      1  0.4813160000000  0.4630910000000  0.5605580000000 1.0
C      1  0.4648830000000  0.4880650000000  0.4467020000000 1.0
C      1  0.4621210000000  0.5326370000000  0.4572960000000 1.0
C      1  0.4878450000000  0.5278650000000  0.4438330000000 1.0
C      1  0.5418070000000  0.4451350000000  0.5060900000000 1.0
C      1  0.5115330000000  0.5430540000000  0.4481330000000 1.0
C      1  0.5040970000000  0.5921910000000  0.5253280000000 1.0
C      1  0.4420040000000  0.4753900000000  0.5300040000000 1.0
C      1  0.4603440000000  0.4572300000000  0.5418360000000 1.0
C      1  0.5669810000000  0.5137380000000  0.5044260000000 1.0
C      1  0.5100240000000  0.4699090000000  0.4875940000000 1.0
C      1  0.5317610000000  0.4644090000000  0.5523290000000 1.0
C      1  0.5547080000000  0.5449690000000  0.4677740000000 1.0
C      1  0.4421370000000  0.4719410000000  0.5013650000000 1.0
C      1  0.5416010000000  0.4693600000000  0.4885470000000 1.0
C      1  0.5534780000000  0.4863490000000  0.5133900000000 1.0
C      1  0.5415170000000  0.5062960000000  0.5353580000000 1.0
C      1  0.5551960000000  0.5303970000000  0.5235430000000 1.0
C      1  0.5371680000000  0.5603360000000  0.4826350000000 1.0
C      1  0.5156590000000  0.5297480000000  0.5050660000000 1.0
C      1  0.4364250000000  0.5190660000000  0.5085660000000 1.0
C      1  0.5668320000000  0.5203090000000  0.4776010000000 1.0
C      1  0.5081920000000  0.5046190000000  0.5704940000000 1.0
C      1  0.5110950000000  0.5626420000000  0.4687440000000 1.0
C      1  0.4766230000000  0.5356560000000  0.5483550000000 1.0
C      1  0.5038390000000  0.5283370000000  0.5538920000000 1.0
C      1  0.4864870000000  0.5739360000000  0.5128350000000 1.0
C      1  0.5010700000000  0.4718780000000  0.4343360000000 1.0
C      1  0.4786210000000  0.5083080000000  0.4890160000000 1.0
C      1  0.4460360000000  0.5041770000000  0.5323270000000 1.0
C      1  0.5262160000000  0.4618260000000  0.4442440000000 1.0
C      1  0.4351520000000  0.4980980000000  0.4880130000000 1.0
C      1  0.4925660000000  0.4983870000000  0.4442580000000 1.0
C      1  0.4840250000000  0.4914090000000  0.5609590000000 1.0
C      1  0.5472360000000  0.5050030000000  0.4609850000000 1.0
C      1  0.5353430000000  0.5523260000000  0.5109420000000 1.0
C      1  0.4659150000000  0.4352640000000  0.4466210000000 1.0
C      1  0.5066500000000  0.4495940000000  0.5525190000000 1.0
C      1  0.4997520000000  0.4394300000000  0.5256120000000 1.0
C      1  0.4726660000000  0.4953720000000  0.5133640000000 1.0
C      1  0.5230200000000  0.5125020000000  0.4830820000000 1.0
C      1  0.4865170000000  0.5641190000000  0.4843950000000 1.0
C      1  0.4720460000000  0.5492280000000  0.5225250000000 1.0
C      1  0.5010040000000  0.4955070000000  0.4757310000000 1.0
C      1  0.4532790000000  0.5057620000000  0.4664900000000 1.0
C      1  0.4624070000000  0.5125900000000  0.5544780000000 1.0
C      1  0.4741850000000  0.4608190000000  0.4414950000000 1.0
C      1  0.5048520000000  0.4393130000000  0.4788320000000 1.0
C      1  0.5322950000000  0.4917220000000  0.5602700000000 1.0
C      1  0.4950230000000  0.4917520000000  0.5289940000000 1.0
C      1  0.5452120000000  0.4766470000000  0.4600080000000 1.0
C      1  0.5177300000000  0.4299220000000  0.5048570000000 1.0
C      1  0.4588610000000  0.4476180000000  0.4962270000000 1.0
C      1  0.4744670000000  0.4378560000000  0.4733280000000 1.0
C      1  0.5206230000000  0.4374680000000  0.4554250000000 1.0
C      1  0.5210300000000  0.5719970000000  0.5249470000000 1.0
C      1  0.4484450000000  0.5442850000000  0.5038370000000 1.0
C      1  0.5487490000000  0.4610230000000  0.5285150000000 1.0
C      1  0.4601420000000  0.5524840000000  0.4778130000000 1.0
C      1  0.4701560000000  0.4401400000000  0.5217000000000 1.0
C      1  0.4883180000000  0.5348470000000  0.4991730000000 1.0
END
