TITL C-120601-4436-8 0.0462036941017251 125000 -470.170626965257 0 0 69 (C1) n - 1
REM
REM in /rds/project/t2_vol4/rds-t2-cs072/BORA/CARBON/from-Arr/AIRSS/Generating-Clusters/GAP-ML-2020/Only-C1/SD-CG/HFTN-CG
REM
REM
REM
REM
REM
REM ./C.cell (11c1c37f851c82e70ff6c80c92926a4b)
REM AIRSS Version 0.9.1 bugfix July 2018 build 013d7b7c2542+ Fri, 06 Jul 2018 19:26:36 +0100
REM compiler GCC version 9.3.0
REM options -cpp -mtune=generic -march=x86-64 -g -O0
REM seed -1425456446 1990912771 793984112 1306687626 -1046126219 1099871990 1237423143 646061168 -936629198 -1813402629 -2003726132 -928904009 573915682 -1459544162 1274380621 1244735439 507556237 1835537686 1500215003 1445874071 -383591171 -1897926572 -1082598034 1956454729 1150108749 -606038841 -639392324 -1180948839 68621856 -484770669 978606881 -1097732437 -414603709
REM
CELL 1.54180   50.00000   50.00000   50.00000   90.00000   90.00000   90.00000
LATT -1
SFAC C  
C      1  0.4646670000000  0.5311250000000  0.5565210000000 1.0
C      1  0.4329200000000  0.4978570000000  0.5198310000000 1.0
C      1  0.5394380000000  0.5347140000000  0.4485040000000 1.0
C      1  0.4778980000000  0.4979220000000  0.5221990000000 1.0
C      1  0.5594640000000  0.5264520000000  0.5375080000000 1.0
C      1  0.4729700000000  0.4843190000000  0.4800580000000 1.0
C      1  0.5060530000000  0.5656700000000  0.5630890000000 1.0
C      1  0.5188730000000  0.4903230000000  0.4686370000000 1.0
C      1  0.5147310000000  0.5149580000000  0.5043080000000 1.0
C      1  0.5559390000000  0.5508470000000  0.5216650000000 1.0
C      1  0.5741760000000  0.4859420000000  0.5084330000000 1.0
C      1  0.5736660000000  0.5132900000000  0.5149460000000 1.0
C      1  0.5234560000000  0.5374670000000  0.4870080000000 1.0
C      1  0.4456780000000  0.4760360000000  0.4456670000000 1.0
C      1  0.4367790000000  0.5280870000000  0.5157240000000 1.0
C      1  0.4778970000000  0.5133470000000  0.4783950000000 1.0
C      1  0.4932970000000  0.5394220000000  0.5522280000000 1.0
C      1  0.5057380000000  0.4324660000000  0.4965160000000 1.0
C      1  0.4682950000000  0.4578230000000  0.4396960000000 1.0
C      1  0.4873850000000  0.5551910000000  0.4646290000000 1.0
C      1  0.4738530000000  0.4835360000000  0.5678670000000 1.0
C      1  0.4866290000000  0.5208070000000  0.5073270000000 1.0
C      1  0.5404980000000  0.4467810000000  0.5233150000000 1.0
C      1  0.5463350000000  0.5079310000000  0.4385620000000 1.0
C      1  0.4831070000000  0.4990100000000  0.4339930000000 1.0
C      1  0.4608830000000  0.5371900000000  0.4676520000000 1.0
C      1  0.5386430000000  0.4716380000000  0.5031460000000 1.0
C      1  0.4318250000000  0.4754490000000  0.5021260000000 1.0
C      1  0.4893590000000  0.5474270000000  0.5205090000000 1.0
C      1  0.5399890000000  0.5116360000000  0.5526780000000 1.0
C      1  0.4457090000000  0.4497070000000  0.5089530000000 1.0
C      1  0.4900630000000  0.5715670000000  0.4872890000000 1.0
C      1  0.4560380000000  0.5056630000000  0.5635240000000 1.0
C      1  0.4470460000000  0.5263700000000  0.4452970000000 1.0
C      1  0.5437860000000  0.4534140000000  0.4778750000000 1.0
C      1  0.5346780000000  0.4887360000000  0.4238350000000 1.0
C      1  0.5478220000000  0.4995340000000  0.4674500000000 1.0
C      1  0.4419590000000  0.4716970000000  0.4744690000000 1.0
C      1  0.4993090000000  0.4408400000000  0.4704620000000 1.0
C      1  0.4682020000000  0.5628660000000  0.5062000000000 1.0
C      1  0.5341700000000  0.5689970000000  0.5229710000000 1.0
C      1  0.5151730000000  0.4877250000000  0.4973070000000 1.0
C      1  0.4395820000000  0.4887730000000  0.5464060000000 1.0
C      1  0.4987760000000  0.5102810000000  0.4570790000000 1.0
C      1  0.4542900000000  0.5016870000000  0.4368330000000 1.0
C      1  0.5202530000000  0.4705620000000  0.5571180000000 1.0
C      1  0.4723370000000  0.4403090000000  0.4622360000000 1.0
C      1  0.5129850000000  0.5602890000000  0.5043560000000 1.0
C      1  0.5207990000000  0.4596750000000  0.4599540000000 1.0
C      1  0.5672210000000  0.5368860000000  0.4984700000000 1.0
C      1  0.4926670000000  0.4474810000000  0.5198170000000 1.0
C      1  0.4481600000000  0.5457330000000  0.4950350000000 1.0
C      1  0.5582470000000  0.4701800000000  0.5289710000000 1.0
C      1  0.5606120000000  0.4780720000000  0.4830050000000 1.0
C      1  0.4644460000000  0.4478690000000  0.5303590000000 1.0
C      1  0.4579540000000  0.4660980000000  0.5507090000000 1.0
C      1  0.5112690000000  0.5372080000000  0.4584640000000 1.0
C      1  0.5009900000000  0.4897350000000  0.5655790000000 1.0
C      1  0.5114710000000  0.5155370000000  0.5580820000000 1.0
C      1  0.4885240000000  0.4769560000000  0.5047890000000 1.0
C      1  0.5500180000000  0.5293300000000  0.4766670000000 1.0
C      1  0.5348030000000  0.4336100000000  0.4977840000000 1.0
C      1  0.4896150000000  0.4719900000000  0.4280940000000 1.0
C      1  0.4515120000000  0.4440830000000  0.4813440000000 1.0
C      1  0.4447430000000  0.5385840000000  0.5395240000000 1.0
C      1  0.5450460000000  0.4835370000000  0.5513380000000 1.0
C      1  0.5183780000000  0.4673720000000  0.4309990000000 1.0
C      1  0.5158790000000  0.4498180000000  0.5384800000000 1.0
C      1  0.5250280000000  0.5765700000000  0.5501410000000 1.0
END
