TITL C-121242-6221-6 -0.238175501059064 125000 -247.9148109086 0 0 38 (C1) n - 1
REM
REM in /rds/project/t2_vol4/rds-t2-cs072/BORA/CARBON/from-Arr/AIRSS/Generating-Clusters/GAP-ML-2020/Only-C1/SD-CG/HFTN-CG
REM
REM
REM
REM
REM
REM ./C.cell (11c1c37f851c82e70ff6c80c92926a4b)
REM AIRSS Version 0.9.1 bugfix July 2018 build 013d7b7c2542+ Fri, 06 Jul 2018 19:26:36 +0100
REM compiler GCC version 9.3.0
REM options -cpp -mtune=generic -march=x86-64 -g -O0
REM seed -1699567509 -1630523571 -2091084582 -1435156813 8568703 -1229237425 1330461433 2048076439 719760450 -2020264305 -358541684 1447075327 1566882155 -513193210 1505731159 -1408487749 125123939 554496245 -710705154 -1664850424 -1936321654 -1969982072 1648857810 704281620 1926977757 860149286 1959678792 -1831615568 -231480458 1325592464 -1766739891 -1792667005 -1237266299
REM
CELL 1.54180   50.00000   50.00000   50.00000   90.00000   90.00000   90.00000
LATT -1
SFAC C  
C      1  0.5111040000000  0.4922430000000  0.4889570000000 1.0
C      1  0.4910790000000  0.4690550000000  0.5517800000000 1.0
C      1  0.4447730000000  0.4904040000000  0.5279740000000 1.0
C      1  0.5058930000000  0.4408870000000  0.4597350000000 1.0
C      1  0.5512620000000  0.5059480000000  0.4658190000000 1.0
C      1  0.4604260000000  0.5407710000000  0.4913260000000 1.0
C      1  0.4826710000000  0.4610170000000  0.5225050000000 1.0
C      1  0.5062840000000  0.4906710000000  0.4410050000000 1.0
C      1  0.5113000000000  0.5194460000000  0.4479050000000 1.0
C      1  0.5055970000000  0.4465150000000  0.5112660000000 1.0
C      1  0.4757510000000  0.4873720000000  0.5636450000000 1.0
C      1  0.5513760000000  0.4518710000000  0.5128670000000 1.0
C      1  0.4521640000000  0.5145230000000  0.4830070000000 1.0
C      1  0.5060540000000  0.5191010000000  0.4975780000000 1.0
C      1  0.4650810000000  0.5480480000000  0.5181050000000 1.0
C      1  0.5335960000000  0.5021470000000  0.5495520000000 1.0
C      1  0.5288190000000  0.4538430000000  0.5274210000000 1.0
C      1  0.5395830000000  0.4858690000000  0.4796070000000 1.0
C      1  0.4556280000000  0.4687540000000  0.5137650000000 1.0
C      1  0.4990390000000  0.4650600000000  0.4492640000000 1.0
C      1  0.5304170000000  0.5260460000000  0.5350720000000 1.0
C      1  0.5038170000000  0.4814300000000  0.5140730000000 1.0
C      1  0.4702220000000  0.5083300000000  0.4622620000000 1.0
C      1  0.4927550000000  0.5576550000000  0.5153330000000 1.0
C      1  0.5189990000000  0.4781480000000  0.5415760000000 1.0
C      1  0.5422180000000  0.5372670000000  0.5123390000000 1.0
C      1  0.5270630000000  0.5419540000000  0.4876520000000 1.0
C      1  0.5338740000000  0.5277460000000  0.4622690000000 1.0
C      1  0.4899030000000  0.4864350000000  0.4678680000000 1.0
C      1  0.4861150000000  0.5307160000000  0.4544180000000 1.0
C      1  0.4466240000000  0.4931220000000  0.5006190000000 1.0
C      1  0.4813000000000  0.5514140000000  0.4731980000000 1.0
C      1  0.4610760000000  0.5042760000000  0.5472180000000 1.0
C      1  0.4729870000000  0.5269920000000  0.5364290000000 1.0
C      1  0.5165730000000  0.4445770000000  0.4842710000000 1.0
C      1  0.5010360000000  0.5301660000000  0.5260340000000 1.0
C      1  0.5033130000000  0.5613420000000  0.4894040000000 1.0
C      1  0.5442270000000  0.4588380000000  0.4868830000000 1.0
END
