TITL C-125554-2178-7 -13.3184093671644 125000 -549.284772280457 0 0 81 (C1) n - 1
REM
REM in /rds/project/t2_vol4/rds-t2-cs072/BORA/CARBON/from-Arr/AIRSS/Generating-Clusters/GAP-ML-2020/Only-C1/SD-CG/HFTN-CG
REM
REM
REM
REM
REM
REM ./C.cell (11c1c37f851c82e70ff6c80c92926a4b)
REM AIRSS Version 0.9.1 bugfix July 2018 build 013d7b7c2542+ Fri, 06 Jul 2018 19:26:36 +0100
REM compiler GCC version 9.3.0
REM options -cpp -mtune=generic -march=x86-64 -g -O0
REM seed 894514405 -2002695258 -2023712626 1163039604 1590933295 1006743682 198574515 416502966 92338420 2046227517 1833859467 334499020 -1501600728 148663340 1207428075 -1573135212 1914783404 2133465154 1680260566 833060145 1640343942 -712594423 -69104441 2123812135 440119473 833435989 1501277933 541745423 351164731 1938788078 -320562102 -124609688 415147329
REM
CELL 1.54180   50.00000   50.00000   50.00000   90.00000   90.00000   90.00000
LATT -1
SFAC C  
C      1  0.5573870000000  0.5188000000000  0.4561050000000 1.0
C      1  0.4803600000000  0.4791170000000  0.4248270000000 1.0
C      1  0.4374170000000  0.4913320000000  0.4458050000000 1.0
C      1  0.4867670000000  0.4295430000000  0.5230980000000 1.0
C      1  0.5393270000000  0.4710230000000  0.5373970000000 1.0
C      1  0.5191020000000  0.4449490000000  0.4457950000000 1.0
C      1  0.4971670000000  0.4260530000000  0.4507710000000 1.0
C      1  0.5139580000000  0.4242050000000  0.5314880000000 1.0
C      1  0.5185410000000  0.4968310000000  0.4613100000000 1.0
C      1  0.5319150000000  0.4234440000000  0.4818800000000 1.0
C      1  0.4448470000000  0.4596110000000  0.5193980000000 1.0
C      1  0.4281130000000  0.5258950000000  0.4719400000000 1.0
C      1  0.4408940000000  0.4831200000000  0.4767910000000 1.0
C      1  0.5670090000000  0.5109660000000  0.5520840000000 1.0
C      1  0.5337790000000  0.4286760000000  0.5095970000000 1.0
C      1  0.4386100000000  0.5463930000000  0.4586230000000 1.0
C      1  0.4817850000000  0.4994370000000  0.5210740000000 1.0
C      1  0.5284150000000  0.5585290000000  0.4551330000000 1.0
C      1  0.5490470000000  0.5502600000000  0.4959010000000 1.0
C      1  0.4869520000000  0.5141440000000  0.5639660000000 1.0
C      1  0.5099760000000  0.5756070000000  0.4701300000000 1.0
C      1  0.5278190000000  0.4573470000000  0.5618780000000 1.0
C      1  0.5687800000000  0.4863260000000  0.5359460000000 1.0
C      1  0.5055240000000  0.5447520000000  0.4432170000000 1.0
C      1  0.4726750000000  0.4761580000000  0.5443100000000 1.0
C      1  0.5122660000000  0.4783070000000  0.5771630000000 1.0
C      1  0.4724920000000  0.4403140000000  0.4539410000000 1.0
C      1  0.5150660000000  0.5061530000000  0.4892960000000 1.0
C      1  0.4804520000000  0.5761220000000  0.5077160000000 1.0
C      1  0.5018590000000  0.5136360000000  0.5361430000000 1.0
C      1  0.5080840000000  0.5779980000000  0.4979830000000 1.0
C      1  0.5048130000000  0.5400290000000  0.5205060000000 1.0
C      1  0.5028970000000  0.5321430000000  0.4913040000000 1.0
C      1  0.5000260000000  0.5151020000000  0.4444710000000 1.0
C      1  0.5262370000000  0.5032170000000  0.5836220000000 1.0
C      1  0.4750860000000  0.5320040000000  0.4833140000000 1.0
C      1  0.5305680000000  0.4882300000000  0.4211080000000 1.0
C      1  0.4771920000000  0.5515280000000  0.5249800000000 1.0
C      1  0.5424860000000  0.4413540000000  0.4614500000000 1.0
C      1  0.5586320000000  0.5363330000000  0.5395490000000 1.0
C      1  0.4713670000000  0.4878750000000  0.4732890000000 1.0
C      1  0.5044430000000  0.4178740000000  0.4758700000000 1.0
C      1  0.5066140000000  0.4616540000000  0.4917980000000 1.0
C      1  0.4634280000000  0.5592590000000  0.4699250000000 1.0
C      1  0.4878710000000  0.5643940000000  0.4547190000000 1.0
C      1  0.4535640000000  0.4833840000000  0.4245780000000 1.0
C      1  0.5270100000000  0.4994970000000  0.5364230000000 1.0
C      1  0.4644760000000  0.5255990000000  0.5108560000000 1.0
C      1  0.4920280000000  0.5633250000000  0.5625300000000 1.0
C      1  0.5044310000000  0.4956160000000  0.4201970000000 1.0
C      1  0.5275210000000  0.5613230000000  0.5140050000000 1.0
C      1  0.5168660000000  0.5525020000000  0.5651930000000 1.0
C      1  0.4458010000000  0.5190770000000  0.4488220000000 1.0
C      1  0.5390450000000  0.5071200000000  0.5102250000000 1.0
C      1  0.5352840000000  0.5538130000000  0.5418160000000 1.0
C      1  0.5571210000000  0.4700540000000  0.4926100000000 1.0
C      1  0.4624320000000  0.5814860000000  0.4885430000000 1.0
C      1  0.4810640000000  0.4685190000000  0.4522000000000 1.0
C      1  0.4683200000000  0.4490610000000  0.5328690000000 1.0
C      1  0.5104080000000  0.5266130000000  0.5774780000000 1.0
C      1  0.5419650000000  0.5077550000000  0.5622410000000 1.0
C      1  0.4926100000000  0.4872800000000  0.4966580000000 1.0
C      1  0.4616680000000  0.4384860000000  0.4804630000000 1.0
C      1  0.4866900000000  0.4332180000000  0.4946370000000 1.0
C      1  0.5488370000000  0.5432280000000  0.4675000000000 1.0
C      1  0.5088210000000  0.4683730000000  0.4614150000000 1.0
C      1  0.5580010000000  0.5297670000000  0.5118440000000 1.0
C      1  0.5654450000000  0.4915690000000  0.5087780000000 1.0
C      1  0.4694950000000  0.5518420000000  0.5528830000000 1.0
C      1  0.4445850000000  0.4835800000000  0.5378270000000 1.0
C      1  0.5555180000000  0.4670780000000  0.4650040000000 1.0
C      1  0.5351860000000  0.4578550000000  0.5090490000000 1.0
C      1  0.4602640000000  0.5254440000000  0.5589540000000 1.0
C      1  0.5463160000000  0.4931670000000  0.4477070000000 1.0
C      1  0.4399290000000  0.5105930000000  0.5449470000000 1.0
C      1  0.4426130000000  0.4569860000000  0.4909800000000 1.0
C      1  0.4869300000000  0.4851520000000  0.5685100000000 1.0
C      1  0.4284920000000  0.5059810000000  0.4913100000000 1.0
C      1  0.5221850000000  0.4311650000000  0.5569170000000 1.0
C      1  0.4375900000000  0.5144220000000  0.5169820000000 1.0
C      1  0.4734460000000  0.5140300000000  0.4604380000000 1.0
END
