TITL C-121978-4496-8 87.167971955901 125000 -427.52264662837 0 0 63 (C1) n - 1
REM
REM in /rds/project/t2_vol4/rds-t2-cs072/BORA/CARBON/from-Arr/AIRSS/Generating-Clusters/GAP-ML-2020/Only-C1/SD-CG/HFTN-CG
REM
REM
REM
REM
REM
REM ./C.cell (11c1c37f851c82e70ff6c80c92926a4b)
REM AIRSS Version 0.9.1 bugfix July 2018 build 013d7b7c2542+ Fri, 06 Jul 2018 19:26:36 +0100
REM compiler GCC version 9.3.0
REM options -cpp -mtune=generic -march=x86-64 -g -O0
REM seed -1878610509 -1040376768 -295736345 1623235562 607410849 -1139430765 632746403 944179378 1532994626 -1179579149 212217772 1474660254 1638374213 469082666 1840456808 31693089 966317956 1598196083 735902914 -1445313215 1780387506 -1309210395 703441733 1727071680 801917634 -353326051 -1173678348 399226691 -1872803810 481240067 -960954911 -1387078791 -1034508235
REM
CELL 1.54180   50.00000   50.00000   50.00000   90.00000   90.00000   90.00000
LATT -1
SFAC C  
C      1  0.4675620000000  0.5062330000000  0.4305820000000 1.0
C      1  0.4806700000000  0.5185060000000  0.5499630000000 1.0
C      1  0.4447960000000  0.4797550000000  0.5220270000000 1.0
C      1  0.5196910000000  0.4640860000000  0.4840450000000 1.0
C      1  0.5205480000000  0.4905410000000  0.4481870000000 1.0
C      1  0.5139970000000  0.5375520000000  0.5082690000000 1.0
C      1  0.4747850000000  0.4910380000000  0.5596930000000 1.0
C      1  0.4391400000000  0.5300380000000  0.5321460000000 1.0
C      1  0.4491750000000  0.5082450000000  0.5141260000000 1.0
C      1  0.4787560000000  0.5134080000000  0.5204360000000 1.0
C      1  0.4942040000000  0.4286710000000  0.4746760000000 1.0
C      1  0.5744330000000  0.4847240000000  0.4933470000000 1.0
C      1  0.5505730000000  0.5209150000000  0.5278860000000 1.0
C      1  0.4379590000000  0.4652160000000  0.4998650000000 1.0
C      1  0.5166100000000  0.4641920000000  0.4550350000000 1.0
C      1  0.4971450000000  0.4779130000000  0.5723040000000 1.0
C      1  0.5138880000000  0.4941560000000  0.5877400000000 1.0
C      1  0.4614140000000  0.4714970000000  0.5436080000000 1.0
C      1  0.4942630000000  0.4460790000000  0.4519400000000 1.0
C      1  0.5026270000000  0.4548250000000  0.5556380000000 1.0
C      1  0.4954890000000  0.4912710000000  0.5104710000000 1.0
C      1  0.5042330000000  0.5096230000000  0.4648470000000 1.0
C      1  0.4524020000000  0.5069520000000  0.4818520000000 1.0
C      1  0.4847880000000  0.5394900000000  0.5092760000000 1.0
C      1  0.5202440000000  0.5176580000000  0.5805930000000 1.0
C      1  0.4380380000000  0.4817960000000  0.4753840000000 1.0
C      1  0.4721770000000  0.4283230000000  0.4930890000000 1.0
C      1  0.5049120000000  0.5812660000000  0.5017200000000 1.0
C      1  0.4983810000000  0.5335860000000  0.4481430000000 1.0
C      1  0.5210880000000  0.5144780000000  0.4888990000000 1.0
C      1  0.5671490000000  0.4735180000000  0.5175130000000 1.0
C      1  0.4575220000000  0.5331390000000  0.4680640000000 1.0
C      1  0.4726640000000  0.5502070000000  0.4848080000000 1.0
C      1  0.4936370000000  0.5701760000000  0.4768460000000 1.0
C      1  0.4761680000000  0.5594510000000  0.5301760000000 1.0
C      1  0.5431110000000  0.4920040000000  0.5259670000000 1.0
C      1  0.4487040000000  0.4423760000000  0.4856770000000 1.0
C      1  0.4692360000000  0.4571680000000  0.4431050000000 1.0
C      1  0.5268450000000  0.5638110000000  0.5051720000000 1.0
C      1  0.5482750000000  0.4642730000000  0.5352210000000 1.0
C      1  0.5488000000000  0.5547380000000  0.4903520000000 1.0
C      1  0.5651310000000  0.4948400000000  0.4688750000000 1.0
C      1  0.5096490000000  0.5275650000000  0.5563330000000 1.0
C      1  0.5466520000000  0.5018140000000  0.4482640000000 1.0
C      1  0.5107030000000  0.5563880000000  0.4587210000000 1.0
C      1  0.5612440000000  0.5322270000000  0.5035760000000 1.0
C      1  0.4483920000000  0.4579800000000  0.4616180000000 1.0
C      1  0.4702900000000  0.4816040000000  0.4285250000000 1.0
C      1  0.4703410000000  0.5303920000000  0.4424760000000 1.0
C      1  0.4835560000000  0.4319250000000  0.5196970000000 1.0
C      1  0.5232880000000  0.4901770000000  0.5035710000000 1.0
C      1  0.5252420000000  0.4473870000000  0.5394630000000 1.0
C      1  0.4803470000000  0.4958650000000  0.4750320000000 1.0
C      1  0.4871640000000  0.4732250000000  0.4900940000000 1.0
C      1  0.5173060000000  0.4354200000000  0.4906210000000 1.0
C      1  0.5123830000000  0.4313260000000  0.5183320000000 1.0
C      1  0.5258310000000  0.5327770000000  0.5344970000000 1.0
C      1  0.4873080000000  0.5826640000000  0.5236240000000 1.0
C      1  0.4776430000000  0.4484170000000  0.5418920000000 1.0
C      1  0.4592650000000  0.5419410000000  0.5470100000000 1.0
C      1  0.5477590000000  0.5293010000000  0.4484720000000 1.0
C      1  0.5397650000000  0.5504350000000  0.4627800000000 1.0
C      1  0.5746410000000  0.5134360000000  0.4878420000000 1.0
END
