TITL C-121217-6157-2 -0.10339112390331 125000 -56.0890894796449 0 0 9 (C2v) n - 1
REM
REM in /rds/project/t2_vol4/rds-t2-cs072/BORA/CARBON/from-Arr/AIRSS/Generating-Clusters/GAP-ML-2020/Only-C1/SD-CG/HFTN-CG
REM
REM
REM
REM
REM
REM ./C.cell (11c1c37f851c82e70ff6c80c92926a4b)
REM AIRSS Version 0.9.1 bugfix July 2018 build 013d7b7c2542+ Fri, 06 Jul 2018 19:26:36 +0100
REM compiler GCC version 9.3.0
REM options -cpp -mtune=generic -march=x86-64 -g -O0
REM seed -1558070632 -1944775073 1329874284 1925057200 1245047625 1570685122 1204427094 1244154290 -607560043 -461447817 -7938363 -2100285081 -577245630 2073084692 -1277366174 -2076586207 1669664480 -963412280 233468941 2019970419 -2036985967 870276927 -201248518 -780585363 -2061037013 1225114633 -1118981927 607939557 -856448135 1672028639 373651867 1988813460 -488666581
REM
CELL 1.54180   50.00000   50.00000   50.00000   90.00000   90.00000   90.00000
LATT -1
SFAC C  
C      1  0.5308440000000  0.4676630000000  0.5139940000000 1.0
C      1  0.4631460000000  0.4823990000000  0.4890930000000 1.0
C      1  0.4799480000000  0.5293230000000  0.4900440000000 1.0
C      1  0.4822870000000  0.4661110000000  0.4973870000000 1.0
C      1  0.4650080000000  0.5087180000000  0.4870150000000 1.0
C      1  0.5228640000000  0.5518290000000  0.5025370000000 1.0
C      1  0.5063790000000  0.4641470000000  0.5059090000000 1.0
C      1  0.5506610000000  0.4832860000000  0.5192220000000 1.0
C      1  0.4988620000000  0.5465250000000  0.4947970000000 1.0
END
