TITL C-125553-2278-5 -53.0286657173412 125000 -368.539202972103 0 0 55 (C1) n - 1
REM
REM in /rds/project/t2_vol4/rds-t2-cs072/BORA/CARBON/from-Arr/AIRSS/Generating-Clusters/GAP-ML-2020/Only-C1/SD-CG/HFTN-CG
REM
REM
REM
REM
REM
REM ./C.cell (11c1c37f851c82e70ff6c80c92926a4b)
REM AIRSS Version 0.9.1 bugfix July 2018 build 013d7b7c2542+ Fri, 06 Jul 2018 19:26:36 +0100
REM compiler GCC version 9.3.0
REM options -cpp -mtune=generic -march=x86-64 -g -O0
REM seed 163292273 -224426915 177239258 1209183941 -407858389 557504044 245018672 1175004980 1353018258 -631646211 -1578951677 -883238170 -1973953642 -1350565094 628952066 -178794757 2063678246 1739276550 -1909160163 1333451046 479668989 455356991 1302383133 -1850218258 1684014625 144800758 -1091735137 1096561552 1373358342 232674979 1266061157 221560375 -1651517125
REM
CELL 1.54180   50.00000   50.00000   50.00000   90.00000   90.00000   90.00000
LATT -1
SFAC C  
C      1  0.5341320000000  0.5340680000000  0.4569730000000 1.0
C      1  0.4927370000000  0.4769980000000  0.5655580000000 1.0
C      1  0.5039170000000  0.4708450000000  0.4801340000000 1.0
C      1  0.5116660000000  0.4992240000000  0.4822170000000 1.0
C      1  0.4842260000000  0.5076510000000  0.4910610000000 1.0
C      1  0.5406910000000  0.4372990000000  0.4671400000000 1.0
C      1  0.4875470000000  0.4545050000000  0.5507980000000 1.0
C      1  0.4850440000000  0.4949150000000  0.5169880000000 1.0
C      1  0.4631310000000  0.5417800000000  0.5414660000000 1.0
C      1  0.4895380000000  0.5476120000000  0.4649090000000 1.0
C      1  0.4783040000000  0.5007270000000  0.5595770000000 1.0
C      1  0.4465640000000  0.5213030000000  0.5302830000000 1.0
C      1  0.4715930000000  0.5376190000000  0.4473010000000 1.0
C      1  0.5502990000000  0.4767240000000  0.4885940000000 1.0
C      1  0.5485300000000  0.4486220000000  0.4926290000000 1.0
C      1  0.5326060000000  0.4951570000000  0.5056490000000 1.0
C      1  0.5471780000000  0.4833650000000  0.4604110000000 1.0
C      1  0.5060940000000  0.4564780000000  0.5072320000000 1.0
C      1  0.5494400000000  0.5602800000000  0.5342760000000 1.0
C      1  0.4554230000000  0.4494780000000  0.4841330000000 1.0
C      1  0.5304900000000  0.5075990000000  0.4598930000000 1.0
C      1  0.5163040000000  0.4694850000000  0.5497500000000 1.0
C      1  0.4572870000000  0.4517070000000  0.5135710000000 1.0
C      1  0.4372970000000  0.5328110000000  0.4817200000000 1.0
C      1  0.4528870000000  0.5750700000000  0.5078270000000 1.0
C      1  0.4319620000000  0.4877610000000  0.5019200000000 1.0
C      1  0.4824600000000  0.4482360000000  0.5245440000000 1.0
C      1  0.5080880000000  0.5402030000000  0.5387000000000 1.0
C      1  0.4522620000000  0.5214840000000  0.4592250000000 1.0
C      1  0.5204480000000  0.4187730000000  0.4612790000000 1.0
C      1  0.5078550000000  0.4586210000000  0.4547300000000 1.0
C      1  0.4449060000000  0.4769710000000  0.4783510000000 1.0
C      1  0.4433190000000  0.4744070000000  0.5242300000000 1.0
C      1  0.4628390000000  0.4969370000000  0.4689900000000 1.0
C      1  0.4530720000000  0.5540490000000  0.4910410000000 1.0
C      1  0.5361530000000  0.4597650000000  0.4485640000000 1.0
C      1  0.5485020000000  0.5599650000000  0.5062010000000 1.0
C      1  0.5469030000000  0.5177550000000  0.5166970000000 1.0
C      1  0.5365170000000  0.5358370000000  0.5386380000000 1.0
C      1  0.5215940000000  0.5618680000000  0.4956250000000 1.0
C      1  0.5336240000000  0.4483160000000  0.5422080000000 1.0
C      1  0.4815170000000  0.5390950000000  0.4924610000000 1.0
C      1  0.4338980000000  0.5160750000000  0.5049250000000 1.0
C      1  0.5808540000000  0.5236220000000  0.4811960000000 1.0
C      1  0.4985670000000  0.5536510000000  0.5135400000000 1.0
C      1  0.5968560000000  0.5082620000000  0.4689440000000 1.0
C      1  0.4861350000000  0.5283580000000  0.5529480000000 1.0
C      1  0.4591600000000  0.4959230000000  0.5374360000000 1.0
C      1  0.4700660000000  0.4329920000000  0.4685820000000 1.0
C      1  0.5111450000000  0.4826270000000  0.5228400000000 1.0
C      1  0.4954050000000  0.4316230000000  0.4571680000000 1.0
C      1  0.5321680000000  0.4432380000000  0.5155130000000 1.0
C      1  0.5175150000000  0.5526180000000  0.4684260000000 1.0
C      1  0.5620980000000  0.5339180000000  0.4986910000000 1.0
C      1  0.4711840000000  0.5657270000000  0.5262970000000 1.0
END
