TITL C-120598-4778-2 -516.805619675114 125000 -915.820334931646 0 0 130 (C1) n - 1
REM
REM in /rds/project/t2_vol4/rds-t2-cs072/BORA/CARBON/from-Arr/AIRSS/Generating-Clusters/GAP-ML-2020/Only-C1/SD-CG/HFTN-CG
REM
REM
REM
REM
REM
REM ./C.cell (11c1c37f851c82e70ff6c80c92926a4b)
REM AIRSS Version 0.9.1 bugfix July 2018 build 013d7b7c2542+ Fri, 06 Jul 2018 19:26:36 +0100
REM compiler GCC version 9.3.0
REM options -cpp -mtune=generic -march=x86-64 -g -O0
REM seed 1608388858 1184999292 -457707270 -191268419 546463588 -689178018 -1933498556 -1982082860 -1170946 1168381342 2071598725 1743790547 1940707094 -2065537683 1495624951 355512629 767436293 -719530371 -1910556034 -1248793374 -769228382 117648925 1067749041 632655395 -1656403836 -1500216437 1185867884 -1548261563 -1140465411 -1378668674 -1500336443 -561166187 -870890776
REM
CELL 1.54180   50.00000   50.00000   50.00000   90.00000   90.00000   90.00000
LATT -1
SFAC C  
C      1  0.5753310000000  0.4792320000000  0.4706460000000 1.0
C      1  0.4651050000000  0.4847230000000  0.5914190000000 1.0
C      1  0.4303010000000  0.5123170000000  0.5650050000000 1.0
C      1  0.5612780000000  0.4168160000000  0.5259840000000 1.0
C      1  0.4594210000000  0.4729990000000  0.4128260000000 1.0
C      1  0.5883060000000  0.4527780000000  0.5326550000000 1.0
C      1  0.5190770000000  0.5373180000000  0.5823760000000 1.0
C      1  0.5218440000000  0.4928120000000  0.5234260000000 1.0
C      1  0.5740270000000  0.4490380000000  0.4781560000000 1.0
C      1  0.4552580000000  0.4874200000000  0.4785880000000 1.0
C      1  0.4922030000000  0.5445940000000  0.4860880000000 1.0
C      1  0.4863500000000  0.5308710000000  0.4365140000000 1.0
C      1  0.4541210000000  0.4991620000000  0.5261890000000 1.0
C      1  0.5769810000000  0.4859660000000  0.5673780000000 1.0
C      1  0.4040330000000  0.4660050000000  0.4582960000000 1.0
C      1  0.4806930000000  0.5832090000000  0.5410690000000 1.0
C      1  0.5311300000000  0.4902660000000  0.4163640000000 1.0
C      1  0.6056950000000  0.5139030000000  0.5058630000000 1.0
C      1  0.5892630000000  0.4812340000000  0.5407310000000 1.0
C      1  0.4811150000000  0.5098120000000  0.5321420000000 1.0
C      1  0.5549820000000  0.5296830000000  0.4970610000000 1.0
C      1  0.4848580000000  0.4812240000000  0.4018130000000 1.0
C      1  0.4880070000000  0.5359510000000  0.5420170000000 1.0
C      1  0.5824630000000  0.4127160000000  0.5086570000000 1.0
C      1  0.5045520000000  0.5432140000000  0.4577120000000 1.0
C      1  0.5092930000000  0.4992950000000  0.4964120000000 1.0
C      1  0.4152660000000  0.5261980000000  0.4533560000000 1.0
C      1  0.4560310000000  0.5056620000000  0.4980480000000 1.0
C      1  0.5736670000000  0.5443310000000  0.5383070000000 1.0
C      1  0.6042460000000  0.5087130000000  0.5340950000000 1.0
C      1  0.4064030000000  0.4808590000000  0.5279830000000 1.0
C      1  0.4107160000000  0.5056700000000  0.5441560000000 1.0
C      1  0.4356840000000  0.5180540000000  0.4338190000000 1.0
C      1  0.3909580000000  0.4884370000000  0.5049370000000 1.0
C      1  0.4984750000000  0.5937760000000  0.5225030000000 1.0
C      1  0.4250600000000  0.4338610000000  0.5136790000000 1.0
C      1  0.5481020000000  0.4347360000000  0.4709970000000 1.0
C      1  0.3836190000000  0.5165950000000  0.5079710000000 1.0
C      1  0.3933780000000  0.5124940000000  0.4654500000000 1.0
C      1  0.4896990000000  0.4359580000000  0.5179730000000 1.0
C      1  0.5095500000000  0.4688990000000  0.4108910000000 1.0
C      1  0.4194440000000  0.4409790000000  0.4619490000000 1.0
C      1  0.3931710000000  0.4849710000000  0.4760150000000 1.0
C      1  0.4662490000000  0.4181760000000  0.5120420000000 1.0
C      1  0.4885720000000  0.4996780000000  0.5890080000000 1.0
C      1  0.4373120000000  0.4905830000000  0.4226690000000 1.0
C      1  0.5902570000000  0.5274050000000  0.5530680000000 1.0
C      1  0.5288920000000  0.4272200000000  0.4900190000000 1.0
C      1  0.5824660000000  0.5393710000000  0.4608580000000 1.0
C      1  0.5717580000000  0.5133640000000  0.5701710000000 1.0
C      1  0.4707820000000  0.4577590000000  0.5797620000000 1.0
C      1  0.5262260000000  0.5881300000000  0.4747730000000 1.0
C      1  0.4681220000000  0.5621170000000  0.4810180000000 1.0
C      1  0.5320930000000  0.5190610000000  0.5372450000000 1.0
C      1  0.4192800000000  0.4715510000000  0.4338840000000 1.0
C      1  0.5333800000000  0.4901260000000  0.5775650000000 1.0
C      1  0.5846960000000  0.5269160000000  0.4872500000000 1.0
C      1  0.4407630000000  0.4888220000000  0.5768870000000 1.0
C      1  0.5179800000000  0.4948480000000  0.4437590000000 1.0
C      1  0.4592170000000  0.4217160000000  0.4836070000000 1.0
C      1  0.4782280000000  0.4827730000000  0.4650270000000 1.0
C      1  0.5345450000000  0.4471970000000  0.4464750000000 1.0
C      1  0.5400330000000  0.5174580000000  0.5699170000000 1.0
C      1  0.5582490000000  0.5213730000000  0.5244760000000 1.0
C      1  0.4512700000000  0.5540430000000  0.4593600000000 1.0
C      1  0.4881020000000  0.5701830000000  0.5667430000000 1.0
C      1  0.5450430000000  0.4790690000000  0.5113990000000 1.0
C      1  0.4519490000000  0.4697870000000  0.5341890000000 1.0
C      1  0.5742420000000  0.4925280000000  0.4424510000000 1.0
C      1  0.5581860000000  0.4793830000000  0.4230480000000 1.0
C      1  0.5255160000000  0.4728680000000  0.4619840000000 1.0
C      1  0.5312910000000  0.5662380000000  0.5487650000000 1.0
C      1  0.4836500000000  0.4369250000000  0.4399060000000 1.0
C      1  0.5186980000000  0.4391220000000  0.5597990000000 1.0
C      1  0.5457540000000  0.5326680000000  0.4321630000000 1.0
C      1  0.5344680000000  0.4193410000000  0.5168830000000 1.0
C      1  0.5680250000000  0.4367640000000  0.5461980000000 1.0
C      1  0.5149820000000  0.5443720000000  0.5328180000000 1.0
C      1  0.5674950000000  0.5647740000000  0.4595640000000 1.0
C      1  0.4849140000000  0.5168400000000  0.5004230000000 1.0
C      1  0.4985960000000  0.4541630000000  0.5749960000000 1.0
C      1  0.4374340000000  0.5550050000000  0.5431540000000 1.0
C      1  0.4977350000000  0.4849980000000  0.5391530000000 1.0
C      1  0.5111560000000  0.5872350000000  0.5004320000000 1.0
C      1  0.5010410000000  0.4401110000000  0.4886880000000 1.0
C      1  0.5295510000000  0.5201080000000  0.4108930000000 1.0
C      1  0.4313820000000  0.4297850000000  0.4846560000000 1.0
C      1  0.5697380000000  0.4934150000000  0.5190830000000 1.0
C      1  0.5458380000000  0.5608920000000  0.4415570000000 1.0
C      1  0.4427570000000  0.4147060000000  0.5261590000000 1.0
C      1  0.5264810000000  0.5215000000000  0.4558090000000 1.0
C      1  0.5162590000000  0.5643930000000  0.5724140000000 1.0
C      1  0.3998210000000  0.5269000000000  0.5289090000000 1.0
C      1  0.4168400000000  0.5484010000000  0.5238830000000 1.0
C      1  0.5720840000000  0.5207960000000  0.4410610000000 1.0
C      1  0.5546070000000  0.5804560000000  0.4818170000000 1.0
C      1  0.4893710000000  0.4998030000000  0.4445630000000 1.0
C      1  0.5060730000000  0.4830080000000  0.5720090000000 1.0
C      1  0.5469730000000  0.4461610000000  0.5634500000000 1.0
C      1  0.4474730000000  0.4640580000000  0.5627430000000 1.0
C      1  0.4253930000000  0.5569870000000  0.4976240000000 1.0
C      1  0.5137200000000  0.4272100000000  0.5343490000000 1.0
C      1  0.4336820000000  0.4457730000000  0.4372300000000 1.0
C      1  0.5085150000000  0.4472940000000  0.4299540000000 1.0
C      1  0.4929580000000  0.5274150000000  0.5873140000000 1.0
C      1  0.5208230000000  0.5691290000000  0.4537530000000 1.0
C      1  0.5430310000000  0.5555420000000  0.4976730000000 1.0
C      1  0.4871600000000  0.5079700000000  0.3984650000000 1.0
C      1  0.4801500000000  0.4617730000000  0.5296410000000 1.0
C      1  0.5021720000000  0.4725380000000  0.4804320000000 1.0
C      1  0.5869660000000  0.4968000000000  0.4927110000000 1.0
C      1  0.4250470000000  0.4591750000000  0.5273670000000 1.0
C      1  0.5466320000000  0.4839830000000  0.4802780000000 1.0
C      1  0.4594080000000  0.4474240000000  0.4262420000000 1.0
C      1  0.4444800000000  0.5386490000000  0.5650580000000 1.0
C      1  0.4741550000000  0.5439700000000  0.5703680000000 1.0
C      1  0.5142720000000  0.5558710000000  0.5045350000000 1.0
C      1  0.5583140000000  0.5778620000000  0.5112580000000 1.0
C      1  0.5020910000000  0.5266500000000  0.4101230000000 1.0
C      1  0.5555800000000  0.4532460000000  0.4284520000000 1.0
C      1  0.5353290000000  0.5117780000000  0.4822250000000 1.0
C      1  0.4814480000000  0.4293360000000  0.4677880000000 1.0
C      1  0.4254970000000  0.5482880000000  0.4693920000000 1.0
C      1  0.3775190000000  0.5283480000000  0.4841750000000 1.0
C      1  0.5868240000000  0.4399350000000  0.5032760000000 1.0
C      1  0.4505610000000  0.5689550000000  0.5024130000000 1.0
C      1  0.5533790000000  0.4714340000000  0.5743660000000 1.0
C      1  0.5579930000000  0.5679510000000  0.5372290000000 1.0
C      1  0.4577550000000  0.5369540000000  0.4377870000000 1.0
C      1  0.4560940000000  0.5725660000000  0.5304050000000 1.0
END
