TITL C-121220-6199-8 -0.00798591524918854 125000 -230.522206015168 0 0 35 (C1) n - 1
REM
REM in /rds/project/t2_vol4/rds-t2-cs072/BORA/CARBON/from-Arr/AIRSS/Generating-Clusters/GAP-ML-2020/Only-C1/SD-CG/HFTN-CG
REM
REM
REM
REM
REM
REM ./C.cell (11c1c37f851c82e70ff6c80c92926a4b)
REM AIRSS Version 0.9.1 bugfix July 2018 build 013d7b7c2542+ Fri, 06 Jul 2018 19:26:36 +0100
REM compiler GCC version 9.3.0
REM options -cpp -mtune=generic -march=x86-64 -g -O0
REM seed -734277402 -864674014 -1333106472 -94687613 -1761152185 -778767072 -1162060888 1110525404 1408580287 1527557258 -1224362900 -212900072 -1145082245 -1292460245 1876475235 186377734 -1417465877 1472814544 387733087 1094585259 -1210871884 268697378 -976784614 851905739 1235492650 -2086365099 1516292597 1308988042 -652909030 475940142 -422619577 -563944043 -1846384292
REM
CELL 1.54180   50.00000   50.00000   50.00000   90.00000   90.00000   90.00000
LATT -1
SFAC C  
C      1  0.4628890000000  0.4744710000000  0.4895410000000 1.0
C      1  0.5125410000000  0.5458110000000  0.4786430000000 1.0
C      1  0.5143880000000  0.4811020000000  0.4410770000000 1.0
C      1  0.4652730000000  0.4806590000000  0.5175140000000 1.0
C      1  0.4562840000000  0.4978850000000  0.4752870000000 1.0
C      1  0.5245340000000  0.5684920000000  0.4883950000000 1.0
C      1  0.4726220000000  0.4062080000000  0.4698810000000 1.0
C      1  0.5508930000000  0.4483790000000  0.4977520000000 1.0
C      1  0.4465060000000  0.5016100000000  0.5214310000000 1.0
C      1  0.5485300000000  0.4551050000000  0.4722130000000 1.0
C      1  0.5136590000000  0.5098230000000  0.5643080000000 1.0
C      1  0.5289800000000  0.5202350000000  0.4789270000000 1.0
C      1  0.5065410000000  0.5055710000000  0.4909150000000 1.0
C      1  0.4677300000000  0.5113560000000  0.5626530000000 1.0
C      1  0.4561370000000  0.5217070000000  0.5404350000000 1.0
C      1  0.4899770000000  0.4962880000000  0.5585030000000 1.0
C      1  0.4585870000000  0.5451980000000  0.5243340000000 1.0
C      1  0.4815690000000  0.4570150000000  0.4790180000000 1.0
C      1  0.5216860000000  0.5226140000000  0.5390250000000 1.0
C      1  0.5350320000000  0.5456370000000  0.5327170000000 1.0
C      1  0.4922080000000  0.4844340000000  0.5297680000000 1.0
C      1  0.5078560000000  0.5071020000000  0.5193190000000 1.0
C      1  0.5121520000000  0.4680280000000  0.5155790000000 1.0
C      1  0.5557140000000  0.5241490000000  0.4857290000000 1.0
C      1  0.5052280000000  0.4744210000000  0.4858970000000 1.0
C      1  0.4632300000000  0.5372700000000  0.4978080000000 1.0
C      1  0.4948000000000  0.4971040000000  0.4450770000000 1.0
C      1  0.5260250000000  0.4686360000000  0.4644730000000 1.0
C      1  0.4457050000000  0.5147080000000  0.4955880000000 1.0
C      1  0.4765170000000  0.5115920000000  0.4589510000000 1.0
C      1  0.4868790000000  0.5305240000000  0.4801470000000 1.0
C      1  0.5649570000000  0.5459180000000  0.4967390000000 1.0
C      1  0.5415530000000  0.5566100000000  0.5087590000000 1.0
C      1  0.4778790000000  0.4306220000000  0.4749400000000 1.0
C      1  0.5349410000000  0.4537170000000  0.5186570000000 1.0
END
