TITL C-121970-4453-6 0.131131042092724 125000 -538.746849595997 0 0 76 (C1) n - 1
REM
REM in /rds/project/t2_vol4/rds-t2-cs072/BORA/CARBON/from-Arr/AIRSS/Generating-Clusters/GAP-ML-2020/Only-C1/SD-CG/HFTN-CG
REM
REM
REM
REM
REM
REM ./C.cell (11c1c37f851c82e70ff6c80c92926a4b)
REM AIRSS Version 0.9.1 bugfix July 2018 build 013d7b7c2542+ Fri, 06 Jul 2018 19:26:36 +0100
REM compiler GCC version 9.3.0
REM options -cpp -mtune=generic -march=x86-64 -g -O0
REM seed -1833796106 -1794935244 -1798983647 -932230334 -1257199511 -2464216 -493628940 -2133535290 -892596511 -669937344 -269222587 -1503606505 17443057 -1226233627 -1304273941 -981114425 -1312656471 -170372412 1549475835 87541165 -30278268 -656052290 1086520002 -987366556 2097194357 1042698072 1233571190 2075588288 1994120070 -49473863 1963969449 -694264858 1449419324
REM
CELL 1.54180   50.00000   50.00000   50.00000   90.00000   90.00000   90.00000
LATT -1
SFAC C  
C      1  0.4403030000000  0.5598880000000  0.5103000000000 1.0
C      1  0.5419620000000  0.4992030000000  0.4432730000000 1.0
C      1  0.5671280000000  0.4796080000000  0.4784580000000 1.0
C      1  0.4691560000000  0.4393250000000  0.5308930000000 1.0
C      1  0.5031020000000  0.4505490000000  0.5621200000000 1.0
C      1  0.4486630000000  0.4533350000000  0.4644580000000 1.0
C      1  0.4887890000000  0.4248090000000  0.5148620000000 1.0
C      1  0.4309210000000  0.4894780000000  0.4929080000000 1.0
C      1  0.4533910000000  0.4986450000000  0.4474120000000 1.0
C      1  0.4717150000000  0.4451750000000  0.4484600000000 1.0
C      1  0.5666220000000  0.5443150000000  0.5264250000000 1.0
C      1  0.5261770000000  0.5465150000000  0.5512040000000 1.0
C      1  0.5572340000000  0.4526480000000  0.5193040000000 1.0
C      1  0.4306930000000  0.5420930000000  0.4896800000000 1.0
C      1  0.4470660000000  0.4481370000000  0.5143040000000 1.0
C      1  0.4759360000000  0.5288530000000  0.4988690000000 1.0
C      1  0.4967810000000  0.5161130000000  0.4302210000000 1.0
C      1  0.5590530000000  0.5494070000000  0.4983630000000 1.0
C      1  0.5166630000000  0.4335640000000  0.4582270000000 1.0
C      1  0.4826080000000  0.4910450000000  0.4405440000000 1.0
C      1  0.4383780000000  0.5191010000000  0.5299960000000 1.0
C      1  0.4928960000000  0.4940660000000  0.4706800000000 1.0
C      1  0.5313440000000  0.5426400000000  0.4545580000000 1.0
C      1  0.4802720000000  0.5043750000000  0.5153330000000 1.0
C      1  0.4513910000000  0.4376600000000  0.4882320000000 1.0
C      1  0.5455200000000  0.4558460000000  0.5456360000000 1.0
C      1  0.5140670000000  0.5068850000000  0.5175080000000 1.0
C      1  0.5401330000000  0.4366200000000  0.4754340000000 1.0
C      1  0.5767760000000  0.4960940000000  0.5230490000000 1.0
C      1  0.5468820000000  0.5303650000000  0.4781870000000 1.0
C      1  0.4539740000000  0.4941810000000  0.5349150000000 1.0
C      1  0.4919510000000  0.4947720000000  0.5721090000000 1.0
C      1  0.4616930000000  0.5910080000000  0.4791340000000 1.0
C      1  0.4964840000000  0.5460230000000  0.5575780000000 1.0
C      1  0.5194750000000  0.4808670000000  0.5097980000000 1.0
C      1  0.5160910000000  0.4542870000000  0.4384740000000 1.0
C      1  0.4886120000000  0.4630320000000  0.4339070000000 1.0
C      1  0.5184250000000  0.5269750000000  0.4942550000000 1.0
C      1  0.5404220000000  0.4343540000000  0.5040500000000 1.0
C      1  0.5544810000000  0.4589720000000  0.4638390000000 1.0
C      1  0.4852120000000  0.5577840000000  0.5100760000000 1.0
C      1  0.5173540000000  0.4268670000000  0.5209100000000 1.0
C      1  0.4482120000000  0.5459070000000  0.5337500000000 1.0
C      1  0.4807950000000  0.4824870000000  0.4950570000000 1.0
C      1  0.4393680000000  0.4805540000000  0.4659900000000 1.0
C      1  0.4390460000000  0.4747010000000  0.5164220000000 1.0
C      1  0.5577990000000  0.5048960000000  0.4663200000000 1.0
C      1  0.5445100000000  0.5621910000000  0.5356500000000 1.0
C      1  0.4868650000000  0.5604870000000  0.4496150000000 1.0
C      1  0.4764110000000  0.4231780000000  0.4886900000000 1.0
C      1  0.4788800000000  0.5370060000000  0.4349660000000 1.0
C      1  0.4627290000000  0.5685620000000  0.4630570000000 1.0
C      1  0.5126440000000  0.5585590000000  0.4955520000000 1.0
C      1  0.4889570000000  0.4270460000000  0.4635260000000 1.0
C      1  0.4763640000000  0.5536770000000  0.5391870000000 1.0
C      1  0.5648380000000  0.5170150000000  0.5367340000000 1.0
C      1  0.5131230000000  0.4751210000000  0.5723580000000 1.0
C      1  0.4690340000000  0.4821380000000  0.5578230000000 1.0
C      1  0.5302600000000  0.5265520000000  0.5744010000000 1.0
C      1  0.4626840000000  0.5756060000000  0.5012600000000 1.0
C      1  0.5403400000000  0.4784850000000  0.5634260000000 1.0
C      1  0.5011580000000  0.5218710000000  0.5748260000000 1.0
C      1  0.5377240000000  0.5675210000000  0.5073170000000 1.0
C      1  0.5722040000000  0.4748090000000  0.5069050000000 1.0
C      1  0.4534910000000  0.5268590000000  0.4458280000000 1.0
C      1  0.5469200000000  0.5066040000000  0.5621210000000 1.0
C      1  0.4765490000000  0.4546430000000  0.5534050000000 1.0
C      1  0.5245090000000  0.5211040000000  0.4369180000000 1.0
C      1  0.4942380000000  0.5214200000000  0.4784660000000 1.0
C      1  0.4281680000000  0.5162870000000  0.5024280000000 1.0
C      1  0.5326070000000  0.5191030000000  0.5368990000000 1.0
C      1  0.5116580000000  0.5603920000000  0.4642640000000 1.0
C      1  0.5065860000000  0.4743800000000  0.4867030000000 1.0
C      1  0.4435570000000  0.5465170000000  0.4638720000000 1.0
C      1  0.5227560000000  0.4383000000000  0.5463170000000 1.0
C      1  0.5392190000000  0.4705470000000  0.4420050000000 1.0
END
