TITL C-121227-6407-6 -0.0163428312741472 125000 -124.460615976132 0 0 20 (C1) n - 1
REM
REM in /rds/project/t2_vol4/rds-t2-cs072/BORA/CARBON/from-Arr/AIRSS/Generating-Clusters/GAP-ML-2020/Only-C1/SD-CG/HFTN-CG
REM
REM
REM
REM
REM
REM ./C.cell (11c1c37f851c82e70ff6c80c92926a4b)
REM AIRSS Version 0.9.1 bugfix July 2018 build 013d7b7c2542+ Fri, 06 Jul 2018 19:26:36 +0100
REM compiler GCC version 9.3.0
REM options -cpp -mtune=generic -march=x86-64 -g -O0
REM seed -1955898335 1699067192 458722046 -590642616 1408175843 1318801348 -1137045950 1121134688 1763439703 -249530155 -1469345706 -334908067 1222723633 2108863702 270896569 167820625 1189049544 2101799048 1498792331 -2025807728 -1064568696 752207713 -1537679404 1786906456 -1352609321 268159290 306435974 332419100 -474204719 -1336452909 1163594573 1683819282 1132261462
REM
CELL 1.54180   50.00000   50.00000   50.00000   90.00000   90.00000   90.00000
LATT -1
SFAC C  
C      1  0.5531280000000  0.5168700000000  0.4910090000000 1.0
C      1  0.5105000000000  0.5038780000000  0.4688180000000 1.0
C      1  0.5525150000000  0.5072720000000  0.5177300000000 1.0
C      1  0.4877810000000  0.5172050000000  0.4594850000000 1.0
C      1  0.4838850000000  0.4954210000000  0.5041930000000 1.0
C      1  0.4695450000000  0.4780880000000  0.5230970000000 1.0
C      1  0.5009960000000  0.4821430000000  0.4845180000000 1.0
C      1  0.4423980000000  0.5160560000000  0.4708510000000 1.0
C      1  0.4801340000000  0.5431580000000  0.4636810000000 1.0
C      1  0.5353020000000  0.5143720000000  0.4736530000000 1.0
C      1  0.4641270000000  0.5007450000000  0.4645190000000 1.0
C      1  0.5601830000000  0.5216710000000  0.5397900000000 1.0
C      1  0.4723610000000  0.4795570000000  0.4809850000000 1.0
C      1  0.5141730000000  0.4865990000000  0.5470680000000 1.0
C      1  0.4577550000000  0.5367370000000  0.4796130000000 1.0
C      1  0.5162040000000  0.5049540000000  0.5661990000000 1.0
C      1  0.5333210000000  0.4860020000000  0.5247100000000 1.0
C      1  0.5141910000000  0.4717130000000  0.5081070000000 1.0
C      1  0.4949860000000  0.4698180000000  0.5308850000000 1.0
C      1  0.4565160000000  0.4677410000000  0.5010880000000 1.0
END
