TITL C-125556-3491-4 0.0215648864116833 125000 -532.766274892508 0 0 77 (C1) n - 1
REM
REM in /rds/project/t2_vol4/rds-t2-cs072/BORA/CARBON/from-Arr/AIRSS/Generating-Clusters/GAP-ML-2020/Only-C1/SD-CG/HFTN-CG
REM
REM
REM
REM
REM
REM ./C.cell (11c1c37f851c82e70ff6c80c92926a4b)
REM AIRSS Version 0.9.1 bugfix July 2018 build 013d7b7c2542+ Fri, 06 Jul 2018 19:26:36 +0100
REM compiler GCC version 9.3.0
REM options -cpp -mtune=generic -march=x86-64 -g -O0
REM seed -1270449906 -195390804 -1539358649 -1611270803 674149438 -1411188735 633561900 -389702273 -836769586 -1611963600 1705565027 -1807696588 -1631139611 -1857151250 2117367779 1504409866 -165550454 -527904594 -432083271 1006560695 -1312552868 1060571147 721635500 -1131144470 -1806885649 -1197131597 -1187826493 -1009881876 2121118105 -2004849168 30753881 -287858852 1304952185
REM
CELL 1.54180   50.00000   50.00000   50.00000   90.00000   90.00000   90.00000
LATT -1
SFAC C  
C      1  0.4836030000000  0.4912070000000  0.4241600000000 1.0
C      1  0.4347790000000  0.5483560000000  0.5389810000000 1.0
C      1  0.5182180000000  0.5567100000000  0.5380600000000 1.0
C      1  0.5310840000000  0.5140430000000  0.4276910000000 1.0
C      1  0.5011540000000  0.5149920000000  0.4248960000000 1.0
C      1  0.4738270000000  0.5112620000000  0.5754480000000 1.0
C      1  0.4417240000000  0.4607880000000  0.4871340000000 1.0
C      1  0.4869990000000  0.5349220000000  0.4400250000000 1.0
C      1  0.5238870000000  0.4221690000000  0.5070530000000 1.0
C      1  0.4226290000000  0.5264800000000  0.5081540000000 1.0
C      1  0.5104230000000  0.5002990000000  0.5185160000000 1.0
C      1  0.4578100000000  0.5325980000000  0.4750040000000 1.0
C      1  0.4740040000000  0.4375470000000  0.5188180000000 1.0
C      1  0.5468250000000  0.5544170000000  0.5394460000000 1.0
C      1  0.4629200000000  0.5492320000000  0.5435180000000 1.0
C      1  0.4653530000000  0.5825080000000  0.4783730000000 1.0
C      1  0.5129670000000  0.4488130000000  0.4403540000000 1.0
C      1  0.4799970000000  0.5383870000000  0.5645060000000 1.0
C      1  0.5076320000000  0.5420210000000  0.5612720000000 1.0
C      1  0.5406890000000  0.4563120000000  0.4455300000000 1.0
C      1  0.4848560000000  0.5775770000000  0.4624760000000 1.0
C      1  0.5627020000000  0.5503780000000  0.5050500000000 1.0
C      1  0.5122230000000  0.5430850000000  0.4898640000000 1.0
C      1  0.4555840000000  0.5591060000000  0.4940180000000 1.0
C      1  0.4841940000000  0.4815360000000  0.4883200000000 1.0
C      1  0.4483840000000  0.5026880000000  0.5718620000000 1.0
C      1  0.4572300000000  0.4821060000000  0.5299930000000 1.0
C      1  0.4751060000000  0.5532160000000  0.5164670000000 1.0
C      1  0.5643220000000  0.4740890000000  0.5134410000000 1.0
C      1  0.5152870000000  0.4290650000000  0.5455740000000 1.0
C      1  0.4987500000000  0.4232080000000  0.5229700000000 1.0
C      1  0.5281470000000  0.5223770000000  0.5686090000000 1.0
C      1  0.4896200000000  0.4628970000000  0.4297780000000 1.0
C      1  0.4759380000000  0.4345680000000  0.4666420000000 1.0
C      1  0.5045860000000  0.4318670000000  0.4621960000000 1.0
C      1  0.4688770000000  0.5241060000000  0.5168650000000 1.0
C      1  0.5123310000000  0.4512390000000  0.5613940000000 1.0
C      1  0.5011760000000  0.5603980000000  0.4482480000000 1.0
C      1  0.4235840000000  0.5201560000000  0.5370200000000 1.0
C      1  0.5509320000000  0.4591500000000  0.5356480000000 1.0
C      1  0.4585620000000  0.4977660000000  0.4373250000000 1.0
C      1  0.5237510000000  0.5492520000000  0.4636350000000 1.0
C      1  0.4264610000000  0.4632030000000  0.4641290000000 1.0
C      1  0.4587020000000  0.5249700000000  0.4456860000000 1.0
C      1  0.5675800000000  0.5673630000000  0.5242370000000 1.0
C      1  0.5043820000000  0.4761830000000  0.5067810000000 1.0
C      1  0.5516950000000  0.5302510000000  0.5547320000000 1.0
C      1  0.5622880000000  0.5157650000000  0.4697530000000 1.0
C      1  0.5393060000000  0.4333390000000  0.5297020000000 1.0
C      1  0.5217320000000  0.4945950000000  0.5712430000000 1.0
C      1  0.5581480000000  0.5223180000000  0.4981420000000 1.0
C      1  0.5682120000000  0.5017720000000  0.5189360000000 1.0
C      1  0.5269060000000  0.4292230000000  0.4804970000000 1.0
C      1  0.4879270000000  0.5288860000000  0.4726940000000 1.0
C      1  0.4387690000000  0.4986080000000  0.5470130000000 1.0
C      1  0.4619610000000  0.4393990000000  0.4920820000000 1.0
C      1  0.4477070000000  0.5141080000000  0.4968890000000 1.0
C      1  0.4953110000000  0.5004230000000  0.4709250000000 1.0
C      1  0.5472970000000  0.4480020000000  0.4716620000000 1.0
C      1  0.5636410000000  0.4678690000000  0.4850560000000 1.0
C      1  0.4869610000000  0.4637450000000  0.5622780000000 1.0
C      1  0.5261630000000  0.5183870000000  0.4991090000000 1.0
C      1  0.5554420000000  0.4801010000000  0.4394490000000 1.0
C      1  0.5372890000000  0.5250800000000  0.4549390000000 1.0
C      1  0.4932580000000  0.4896220000000  0.5734790000000 1.0
C      1  0.5341680000000  0.4701910000000  0.5590010000000 1.0
C      1  0.4688480000000  0.4577540000000  0.5399130000000 1.0
C      1  0.4542410000000  0.4848880000000  0.5005410000000 1.0
C      1  0.5503470000000  0.4969660000000  0.4179540000000 1.0
C      1  0.5232330000000  0.5033230000000  0.4733730000000 1.0
C      1  0.5670420000000  0.5109810000000  0.5440600000000 1.0
C      1  0.4847070000000  0.5055250000000  0.5301920000000 1.0
C      1  0.5035090000000  0.5583040000000  0.5137340000000 1.0
C      1  0.5677230000000  0.4886400000000  0.4644800000000 1.0
C      1  0.4474540000000  0.4718820000000  0.4480560000000 1.0
C      1  0.4308670000000  0.5534560000000  0.5103670000000 1.0
C      1  0.4680570000000  0.4519890000000  0.4445790000000 1.0
END
