TITL C-125552-2394-3 -34.7241239757465 125000 -212.694758646383 0 0 33 (C1) n - 1
REM
REM in /rds/project/t2_vol4/rds-t2-cs072/BORA/CARBON/from-Arr/AIRSS/Generating-Clusters/GAP-ML-2020/Only-C1/SD-CG/HFTN-CG
REM
REM
REM
REM
REM
REM ./C.cell (11c1c37f851c82e70ff6c80c92926a4b)
REM AIRSS Version 0.9.1 bugfix July 2018 build 013d7b7c2542+ Fri, 06 Jul 2018 19:26:36 +0100
REM compiler GCC version 9.3.0
REM options -cpp -mtune=generic -march=x86-64 -g -O0
REM seed 696374956 864872721 1524774321 -1993974734 1480496765 -159686886 -1308741309 84525828 -1874767113 129588324 -815789425 -1255595663 -1810552329 -738737572 1482261357 -1235071749 815251045 2683846 -1489127004 -1076951051 -141191499 -1742224094 463592466 2018734700 -405675029 -897764525 -1224074944 43678491 642752465 -629342983 1108624569 167955827 -2041237118
REM
CELL 1.54180   50.00000   50.00000   50.00000   90.00000   90.00000   90.00000
LATT -1
SFAC C  
C      1  0.4941080000000  0.5330830000000  0.5272230000000 1.0
C      1  0.5067000000000  0.5319000000000  0.4844620000000 1.0
C      1  0.4665990000000  0.5373110000000  0.5335610000000 1.0
C      1  0.5151340000000  0.5432270000000  0.5114140000000 1.0
C      1  0.5564110000000  0.4928480000000  0.4940310000000 1.0
C      1  0.5405460000000  0.5351430000000  0.5187140000000 1.0
C      1  0.5036250000000  0.4823260000000  0.4825680000000 1.0
C      1  0.4380840000000  0.4571000000000  0.4978060000000 1.0
C      1  0.5287080000000  0.4659430000000  0.5208450000000 1.0
C      1  0.4813560000000  0.4944660000000  0.5506940000000 1.0
C      1  0.4698720000000  0.5205390000000  0.4608990000000 1.0
C      1  0.4929260000000  0.5028360000000  0.5245300000000 1.0
C      1  0.5209180000000  0.4623420000000  0.5493550000000 1.0
C      1  0.5054780000000  0.4468760000000  0.5140820000000 1.0
C      1  0.4575840000000  0.5307360000000  0.5073350000000 1.0
C      1  0.4856950000000  0.5473080000000  0.4703030000000 1.0
C      1  0.5420100000000  0.4998320000000  0.4704430000000 1.0
C      1  0.4896730000000  0.4584510000000  0.4940660000000 1.0
C      1  0.4713340000000  0.5054140000000  0.5048360000000 1.0
C      1  0.4935990000000  0.4704330000000  0.5568720000000 1.0
C      1  0.4624470000000  0.4516770000000  0.4936850000000 1.0
C      1  0.4855390000000  0.5053980000000  0.4807450000000 1.0
C      1  0.4599020000000  0.5431230000000  0.4823710000000 1.0
C      1  0.5271510000000  0.5235760000000  0.4657080000000 1.0
C      1  0.4967240000000  0.4465400000000  0.5415500000000 1.0
C      1  0.5215480000000  0.4829310000000  0.4592350000000 1.0
C      1  0.5533640000000  0.4681890000000  0.5071320000000 1.0
C      1  0.5426350000000  0.5091180000000  0.5139720000000 1.0
C      1  0.5161160000000  0.4915590000000  0.5103100000000 1.0
C      1  0.5147760000000  0.4935660000000  0.4337200000000 1.0
C      1  0.4612890000000  0.5135660000000  0.5535830000000 1.0
C      1  0.5112010000000  0.5193260000000  0.4410680000000 1.0
C      1  0.4869490000000  0.5333180000000  0.4428810000000 1.0
END
