TITL C-121235-6217-6 97.5973588341393 125000 -765.800373951064 0 0 110 (C1) n - 1
REM
REM in /rds/project/t2_vol4/rds-t2-cs072/BORA/CARBON/from-Arr/AIRSS/Generating-Clusters/GAP-ML-2020/Only-C1/SD-CG/HFTN-CG
REM
REM
REM
REM
REM
REM ./C.cell (11c1c37f851c82e70ff6c80c92926a4b)
REM AIRSS Version 0.9.1 bugfix July 2018 build 013d7b7c2542+ Fri, 06 Jul 2018 19:26:36 +0100
REM compiler GCC version 9.3.0
REM options -cpp -mtune=generic -march=x86-64 -g -O0
REM seed -356303895 1695834226 -810515362 -62736655 -452406035 1027723751 1613451044 -1288722242 -1577076116 1741532834 1154631977 552189735 -970586591 -1378876295 -309107054 -269857279 -1377141019 1998051538 455407126 527403226 113551786 2004306507 1653339203 -722301588 -1712050337 1699423900 1878005187 2065939507 -1168450612 -1469943014 -1508943818 349666981 1860710176
REM
CELL 1.54180   50.00000   50.00000   50.00000   90.00000   90.00000   90.00000
LATT -1
SFAC C  
C      1  0.4905780000000  0.4776830000000  0.5763550000000 1.0
C      1  0.5129080000000  0.5008800000000  0.4198170000000 1.0
C      1  0.4779910000000  0.4210350000000  0.4621090000000 1.0
C      1  0.4723990000000  0.5208820000000  0.4159110000000 1.0
C      1  0.4752520000000  0.4966670000000  0.4762510000000 1.0
C      1  0.5014590000000  0.4585790000000  0.4753830000000 1.0
C      1  0.4310630000000  0.4560460000000  0.5329030000000 1.0
C      1  0.5196180000000  0.5867160000000  0.4818790000000 1.0
C      1  0.5373840000000  0.4664830000000  0.5799550000000 1.0
C      1  0.4058690000000  0.5207490000000  0.5454810000000 1.0
C      1  0.5277250000000  0.4320210000000  0.5475420000000 1.0
C      1  0.4993390000000  0.5808260000000  0.5044240000000 1.0
C      1  0.4670000000000  0.4929270000000  0.4183180000000 1.0
C      1  0.4959780000000  0.5648830000000  0.4415970000000 1.0
C      1  0.4620460000000  0.4962280000000  0.5260150000000 1.0
C      1  0.4634140000000  0.4173760000000  0.4852840000000 1.0
C      1  0.5520960000000  0.5253890000000  0.4185170000000 1.0
C      1  0.5762930000000  0.5120580000000  0.4679210000000 1.0
C      1  0.5187400000000  0.5388390000000  0.5724490000000 1.0
C      1  0.5396060000000  0.5473460000000  0.4277410000000 1.0
C      1  0.5001010000000  0.5101660000000  0.4852430000000 1.0
C      1  0.4999580000000  0.5869100000000  0.4614350000000 1.0
C      1  0.5505330000000  0.4376010000000  0.4584570000000 1.0
C      1  0.4345580000000  0.4565990000000  0.4760000000000 1.0
C      1  0.4126370000000  0.4731700000000  0.5198690000000 1.0
C      1  0.4926110000000  0.5505460000000  0.5743430000000 1.0
C      1  0.4824240000000  0.4734710000000  0.4577720000000 1.0
C      1  0.4543410000000  0.5544270000000  0.5448360000000 1.0
C      1  0.4670550000000  0.5587050000000  0.4465380000000 1.0
C      1  0.5426200000000  0.5709060000000  0.4772640000000 1.0
C      1  0.5433730000000  0.4955690000000  0.5816250000000 1.0
C      1  0.4245890000000  0.4899150000000  0.5619920000000 1.0
C      1  0.5801410000000  0.5069840000000  0.5412860000000 1.0
C      1  0.4182520000000  0.5313920000000  0.5236870000000 1.0
C      1  0.5758500000000  0.4864190000000  0.4547190000000 1.0
C      1  0.5109420000000  0.4579620000000  0.5824260000000 1.0
C      1  0.4889840000000  0.5087740000000  0.5330660000000 1.0
C      1  0.4476960000000  0.4880400000000  0.4383160000000 1.0
C      1  0.4234220000000  0.5061090000000  0.4923280000000 1.0
C      1  0.4915010000000  0.4788260000000  0.4247190000000 1.0
C      1  0.5484430000000  0.5220770000000  0.4737300000000 1.0
C      1  0.4796980000000  0.5857570000000  0.4812720000000 1.0
C      1  0.4266420000000  0.5184090000000  0.5668720000000 1.0
C      1  0.5282220000000  0.5702460000000  0.5389930000000 1.0
C      1  0.5383620000000  0.4955240000000  0.5434950000000 1.0
C      1  0.5533970000000  0.5731090000000  0.5273840000000 1.0
C      1  0.4686080000000  0.4618960000000  0.5644850000000 1.0
C      1  0.5051550000000  0.4355010000000  0.5644880000000 1.0
C      1  0.5110490000000  0.5143990000000  0.4464650000000 1.0
C      1  0.4194260000000  0.4777000000000  0.4914340000000 1.0
C      1  0.4667340000000  0.4241090000000  0.5318280000000 1.0
C      1  0.5435090000000  0.4993010000000  0.4176440000000 1.0
C      1  0.5062620000000  0.4946490000000  0.5538630000000 1.0
C      1  0.4598670000000  0.5334630000000  0.4375850000000 1.0
C      1  0.4966470000000  0.5380120000000  0.4826020000000 1.0
C      1  0.4409050000000  0.4330560000000  0.4917000000000 1.0
C      1  0.5480390000000  0.4525500000000  0.4335840000000 1.0
C      1  0.4780480000000  0.4367070000000  0.5551220000000 1.0
C      1  0.5244300000000  0.5018800000000  0.4692320000000 1.0
C      1  0.5900100000000  0.5124150000000  0.4938210000000 1.0
C      1  0.5114470000000  0.5518870000000  0.4183920000000 1.0
C      1  0.5094720000000  0.5022230000000  0.5125230000000 1.0
C      1  0.4828220000000  0.5627250000000  0.5483620000000 1.0
C      1  0.5523430000000  0.5286260000000  0.5030570000000 1.0
C      1  0.4044370000000  0.4910820000000  0.5411860000000 1.0
C      1  0.5199180000000  0.5133840000000  0.5850380000000 1.0
C      1  0.5076060000000  0.4167130000000  0.5016510000000 1.0
C      1  0.4704330000000  0.4392300000000  0.4413470000000 1.0
C      1  0.4397800000000  0.5489870000000  0.5186450000000 1.0
C      1  0.4588200000000  0.5685500000000  0.4723000000000 1.0
C      1  0.4803800000000  0.4135270000000  0.5087930000000 1.0
C      1  0.4340560000000  0.5260330000000  0.4756940000000 1.0
C      1  0.4889360000000  0.4623350000000  0.5021720000000 1.0
C      1  0.5207390000000  0.4402090000000  0.4299840000000 1.0
C      1  0.5467320000000  0.4519680000000  0.5565950000000 1.0
C      1  0.4944740000000  0.5390560000000  0.5317710000000 1.0
C      1  0.4423330000000  0.4342540000000  0.5207990000000 1.0
C      1  0.4424490000000  0.5512930000000  0.4887230000000 1.0
C      1  0.5119220000000  0.4720440000000  0.5141250000000 1.0
C      1  0.4472790000000  0.4747490000000  0.5498010000000 1.0
C      1  0.4517670000000  0.5125130000000  0.4566090000000 1.0
C      1  0.5507750000000  0.4567850000000  0.4814020000000 1.0
C      1  0.5329180000000  0.5173400000000  0.5236920000000 1.0
C      1  0.5022110000000  0.5821710000000  0.5344450000000 1.0
C      1  0.5807310000000  0.5273310000000  0.5187680000000 1.0
C      1  0.4982820000000  0.5514190000000  0.5057810000000 1.0
C      1  0.5266160000000  0.4727050000000  0.4708610000000 1.0
C      1  0.4399090000000  0.5140550000000  0.5149020000000 1.0
C      1  0.5388510000000  0.4545040000000  0.5100780000000 1.0
C      1  0.4680670000000  0.4814430000000  0.5015740000000 1.0
C      1  0.5056430000000  0.4260470000000  0.4728410000000 1.0
C      1  0.4500860000000  0.5344790000000  0.5665100000000 1.0
C      1  0.5762140000000  0.4708300000000  0.4784190000000 1.0
C      1  0.4919880000000  0.5054940000000  0.5879590000000 1.0
C      1  0.4995370000000  0.5267730000000  0.4103110000000 1.0
C      1  0.5390530000000  0.5483150000000  0.4586660000000 1.0
C      1  0.5229140000000  0.5403190000000  0.5431590000000 1.0
C      1  0.5604910000000  0.5043590000000  0.5619030000000 1.0
C      1  0.5586230000000  0.4790270000000  0.4323550000000 1.0
C      1  0.5261340000000  0.4238560000000  0.4531260000000 1.0
C      1  0.5533250000000  0.4688580000000  0.5333250000000 1.0
C      1  0.5794190000000  0.4822080000000  0.5272880000000 1.0
C      1  0.5879630000000  0.4849860000000  0.5005390000000 1.0
C      1  0.5551340000000  0.5593430000000  0.5006850000000 1.0
C      1  0.4525900000000  0.4618550000000  0.4521490000000 1.0
C      1  0.5275480000000  0.4278500000000  0.5188780000000 1.0
C      1  0.4940860000000  0.4493950000000  0.4252410000000 1.0
C      1  0.5760240000000  0.5577250000000  0.5221070000000 1.0
C      1  0.5094990000000  0.5426840000000  0.4567780000000 1.0
C      1  0.4754260000000  0.5295900000000  0.5813210000000 1.0
END
