TITL C-121984-5539-9 0.080755094383308 125000 -707.123917923193 0 0 101 (C1) n - 1
REM
REM in /rds/project/t2_vol4/rds-t2-cs072/BORA/CARBON/from-Arr/AIRSS/Generating-Clusters/GAP-ML-2020/Only-C1/SD-CG/HFTN-CG
REM
REM
REM
REM
REM
REM ./C.cell (11c1c37f851c82e70ff6c80c92926a4b)
REM AIRSS Version 0.9.1 bugfix July 2018 build 013d7b7c2542+ Fri, 06 Jul 2018 19:26:36 +0100
REM compiler GCC version 9.3.0
REM options -cpp -mtune=generic -march=x86-64 -g -O0
REM seed 2054149103 -484202565 254986321 1646732774 1184165730 -490510671 -1114919497 1624284959 524851529 -1602528614 -1201587576 2042499115 690075685 -1479876381 865085238 1229162174 -1949162815 -1859911899 1661105827 2041103239 1807699804 -657771520 -72050956 -840751068 -19033302 -1224955580 -1142684024 901041322 252295823 713816584 -1151658317 -31296902 -390183645
REM
CELL 1.54180   50.00000   50.00000   50.00000   90.00000   90.00000   90.00000
LATT -1
SFAC C  
C      1  0.5757430000000  0.5553780000000  0.5315090000000 1.0
C      1  0.5538280000000  0.5206790000000  0.5674800000000 1.0
C      1  0.5360120000000  0.4970590000000  0.5258180000000 1.0
C      1  0.4314360000000  0.4567600000000  0.4633710000000 1.0
C      1  0.4884390000000  0.4656000000000  0.4839990000000 1.0
C      1  0.4922630000000  0.4461530000000  0.4367900000000 1.0
C      1  0.5024440000000  0.4726160000000  0.5080250000000 1.0
C      1  0.4451720000000  0.5651600000000  0.4837550000000 1.0
C      1  0.5641360000000  0.5716010000000  0.5152760000000 1.0
C      1  0.5421650000000  0.4280030000000  0.5231430000000 1.0
C      1  0.5836660000000  0.4872940000000  0.5093170000000 1.0
C      1  0.4307610000000  0.5282080000000  0.4534930000000 1.0
C      1  0.4789900000000  0.4911250000000  0.4714500000000 1.0
C      1  0.4703550000000  0.4791720000000  0.5755380000000 1.0
C      1  0.4302660000000  0.5284640000000  0.5449960000000 1.0
C      1  0.4708610000000  0.5089500000000  0.4246390000000 1.0
C      1  0.4088650000000  0.4934260000000  0.4835240000000 1.0
C      1  0.5276400000000  0.4819460000000  0.5035340000000 1.0
C      1  0.5728830000000  0.4830580000000  0.5547840000000 1.0
C      1  0.5820450000000  0.5013960000000  0.5345880000000 1.0
C      1  0.4967120000000  0.5287040000000  0.4977460000000 1.0
C      1  0.5025510000000  0.4826080000000  0.4099730000000 1.0
C      1  0.4703410000000  0.5047270000000  0.5286660000000 1.0
C      1  0.5024180000000  0.5109100000000  0.4757860000000 1.0
C      1  0.5144030000000  0.4560910000000  0.4183580000000 1.0
C      1  0.5836870000000  0.5025190000000  0.4580250000000 1.0
C      1  0.5444610000000  0.5232320000000  0.5161510000000 1.0
C      1  0.5664950000000  0.5280030000000  0.5388110000000 1.0
C      1  0.4906420000000  0.5114660000000  0.5921160000000 1.0
C      1  0.4913850000000  0.5764730000000  0.4770710000000 1.0
C      1  0.5131790000000  0.5697780000000  0.4596560000000 1.0
C      1  0.4552840000000  0.5312860000000  0.4362790000000 1.0
C      1  0.5481990000000  0.4790870000000  0.4385870000000 1.0
C      1  0.5095630000000  0.5318700000000  0.5931820000000 1.0
C      1  0.4435890000000  0.4708380000000  0.5050200000000 1.0
C      1  0.4977260000000  0.4840080000000  0.5860950000000 1.0
C      1  0.4754210000000  0.5611530000000  0.5253350000000 1.0
C      1  0.4927970000000  0.4876390000000  0.5305390000000 1.0
C      1  0.4700010000000  0.5179140000000  0.5043950000000 1.0
C      1  0.5166560000000  0.5318040000000  0.5195020000000 1.0
C      1  0.4666650000000  0.5690870000000  0.4657200000000 1.0
C      1  0.5139760000000  0.4215990000000  0.5251710000000 1.0
C      1  0.4348300000000  0.4806310000000  0.4477140000000 1.0
C      1  0.4197910000000  0.5024070000000  0.4582190000000 1.0
C      1  0.5379880000000  0.5653850000000  0.4729100000000 1.0
C      1  0.4988950000000  0.5804350000000  0.5364870000000 1.0
C      1  0.5451940000000  0.5276390000000  0.4408260000000 1.0
C      1  0.4945990000000  0.5593890000000  0.5011840000000 1.0
C      1  0.5525130000000  0.5189010000000  0.4870540000000 1.0
C      1  0.5410060000000  0.5765570000000  0.5000380000000 1.0
C      1  0.5350040000000  0.5349990000000  0.5824040000000 1.0
C      1  0.4734390000000  0.5526490000000  0.4430690000000 1.0
C      1  0.4573680000000  0.4990700000000  0.4887710000000 1.0
C      1  0.4204240000000  0.4678360000000  0.4876470000000 1.0
C      1  0.5077440000000  0.4576590000000  0.4618640000000 1.0
C      1  0.5065670000000  0.5770210000000  0.5621980000000 1.0
C      1  0.5520160000000  0.4313790000000  0.4753030000000 1.0
C      1  0.5147240000000  0.5787340000000  0.5119640000000 1.0
C      1  0.4443810000000  0.4821600000000  0.5327020000000 1.0
C      1  0.5608120000000  0.4372150000000  0.5018200000000 1.0
C      1  0.4099570000000  0.5093090000000  0.5067790000000 1.0
C      1  0.5051350000000  0.5294910000000  0.5462360000000 1.0
C      1  0.5779460000000  0.5026810000000  0.4846280000000 1.0
C      1  0.5499880000000  0.5407180000000  0.4659370000000 1.0
C      1  0.5523640000000  0.4925530000000  0.5715470000000 1.0
C      1  0.4537060000000  0.5277170000000  0.5619580000000 1.0
C      1  0.4755920000000  0.5335880000000  0.5421960000000 1.0
C      1  0.4967740000000  0.4170460000000  0.4765900000000 1.0
C      1  0.5416410000000  0.4532700000000  0.4284430000000 1.0
C      1  0.4147090000000  0.5366060000000  0.5012050000000 1.0
C      1  0.4485800000000  0.5650110000000  0.5133940000000 1.0
C      1  0.4282000000000  0.5480190000000  0.5242400000000 1.0
C      1  0.5275260000000  0.4795810000000  0.4577370000000 1.0
C      1  0.5218570000000  0.4311600000000  0.4678270000000 1.0
C      1  0.4716250000000  0.4635660000000  0.4257510000000 1.0
C      1  0.4768280000000  0.4266190000000  0.4578620000000 1.0
C      1  0.4707500000000  0.4302180000000  0.5169490000000 1.0
C      1  0.4261790000000  0.5454790000000  0.4762370000000 1.0
C      1  0.5026900000000  0.5528830000000  0.4393290000000 1.0
C      1  0.5477810000000  0.4428330000000  0.5469670000000 1.0
C      1  0.5447010000000  0.4324600000000  0.4489710000000 1.0
C      1  0.5127240000000  0.5501550000000  0.5693890000000 1.0
C      1  0.4933850000000  0.4166200000000  0.5053710000000 1.0
C      1  0.5243580000000  0.4522530000000  0.5599250000000 1.0
C      1  0.5187470000000  0.5309550000000  0.4288130000000 1.0
C      1  0.5031550000000  0.4365650000000  0.5476250000000 1.0
C      1  0.5773450000000  0.4586260000000  0.5146710000000 1.0
C      1  0.5143060000000  0.4995300000000  0.5461440000000 1.0
C      1  0.4635880000000  0.4860320000000  0.4437500000000 1.0
C      1  0.4222810000000  0.5029300000000  0.5325390000000 1.0
C      1  0.4743230000000  0.4410370000000  0.5435700000000 1.0
C      1  0.4532620000000  0.4385180000000  0.4697280000000 1.0
C      1  0.5286330000000  0.4980690000000  0.4793110000000 1.0
C      1  0.5631180000000  0.5035320000000  0.4398410000000 1.0
C      1  0.4614140000000  0.4487690000000  0.4962670000000 1.0
C      1  0.5712110000000  0.4576850000000  0.5427140000000 1.0
C      1  0.5010660000000  0.5106150000000  0.4196280000000 1.0
C      1  0.4744460000000  0.4826170000000  0.4058170000000 1.0
C      1  0.4640650000000  0.5082790000000  0.5802830000000 1.0
C      1  0.5233320000000  0.4795910000000  0.5706770000000 1.0
C      1  0.4592940000000  0.4639070000000  0.5537660000000 1.0
END
