TITL C-121216-6183-8 0.170949587547242 125000 -917.59737941279 0 0 130 (C1) n - 1
REM
REM in /rds/project/t2_vol4/rds-t2-cs072/BORA/CARBON/from-Arr/AIRSS/Generating-Clusters/GAP-ML-2020/Only-C1/SD-CG/HFTN-CG
REM
REM
REM
REM
REM
REM ./C.cell (11c1c37f851c82e70ff6c80c92926a4b)
REM AIRSS Version 0.9.1 bugfix July 2018 build 013d7b7c2542+ Fri, 06 Jul 2018 19:26:36 +0100
REM compiler GCC version 9.3.0
REM options -cpp -mtune=generic -march=x86-64 -g -O0
REM seed 694819957 -531510910 -29685897 -448222086 950399186 1292016040 2135085077 -1726089165 1240437808 -150160860 138453568 -279542094 605847368 -383506598 1989486486 -1596964371 -1972605445 528035616 988357685 523424799 -1662670146 -782480204 -1146171718 -773361243 -1605284892 -617113968 1402831645 1539400810 1673393856 -346223784 -401975277 345692880 1809937594
REM
CELL 1.54180   50.00000   50.00000   50.00000   90.00000   90.00000   90.00000
LATT -1
SFAC C  
C      1  0.4744440000000  0.4083840000000  0.4770860000000 1.0
C      1  0.4311350000000  0.4636300000000  0.5082850000000 1.0
C      1  0.5079270000000  0.5012380000000  0.5458430000000 1.0
C      1  0.4545760000000  0.5625920000000  0.4464930000000 1.0
C      1  0.4087240000000  0.4967920000000  0.4496000000000 1.0
C      1  0.5282500000000  0.4246730000000  0.5466890000000 1.0
C      1  0.4693900000000  0.4962430000000  0.5177410000000 1.0
C      1  0.4672510000000  0.4521050000000  0.5708060000000 1.0
C      1  0.4978420000000  0.3990250000000  0.5199290000000 1.0
C      1  0.4869300000000  0.4631590000000  0.5886370000000 1.0
C      1  0.5399010000000  0.5291370000000  0.5055530000000 1.0
C      1  0.5772690000000  0.4656540000000  0.5488170000000 1.0
C      1  0.5025840000000  0.5607450000000  0.5017750000000 1.0
C      1  0.5245480000000  0.4052000000000  0.5274460000000 1.0
C      1  0.4982990000000  0.4003960000000  0.4912530000000 1.0
C      1  0.4977210000000  0.5771200000000  0.4367840000000 1.0
C      1  0.4636090000000  0.4561890000000  0.4222850000000 1.0
C      1  0.4935500000000  0.4828420000000  0.5290100000000 1.0
C      1  0.4631070000000  0.5029920000000  0.5902850000000 1.0
C      1  0.4882840000000  0.4610420000000  0.4101890000000 1.0
C      1  0.4202310000000  0.5290040000000  0.5379080000000 1.0
C      1  0.4793340000000  0.5828610000000  0.5142480000000 1.0
C      1  0.4983400000000  0.4903450000000  0.4776950000000 1.0
C      1  0.5389890000000  0.5594040000000  0.5393770000000 1.0
C      1  0.5483940000000  0.5168000000000  0.5685610000000 1.0
C      1  0.4866090000000  0.4544280000000  0.5268620000000 1.0
C      1  0.4557990000000  0.5809870000000  0.4952010000000 1.0
C      1  0.5124850000000  0.5529530000000  0.5761540000000 1.0
C      1  0.5145150000000  0.5127860000000  0.4382130000000 1.0
C      1  0.5222900000000  0.5850250000000  0.5445900000000 1.0
C      1  0.5177940000000  0.5444610000000  0.5212230000000 1.0
C      1  0.4985400000000  0.5264680000000  0.5358660000000 1.0
C      1  0.4971800000000  0.4873520000000  0.4035300000000 1.0
C      1  0.4561310000000  0.4799990000000  0.4963610000000 1.0
C      1  0.4508710000000  0.4170850000000  0.4930570000000 1.0
C      1  0.4342910000000  0.5643980000000  0.5030270000000 1.0
C      1  0.4319240000000  0.5552480000000  0.5303640000000 1.0
C      1  0.5256160000000  0.4087520000000  0.4828700000000 1.0
C      1  0.5337920000000  0.4987810000000  0.5890280000000 1.0
C      1  0.5090370000000  0.4321400000000  0.5650820000000 1.0
C      1  0.4105270000000  0.4857480000000  0.5053990000000 1.0
C      1  0.5001360000000  0.5735730000000  0.5591220000000 1.0
C      1  0.4763260000000  0.5233840000000  0.5180140000000 1.0
C      1  0.4505610000000  0.5415640000000  0.5703030000000 1.0
C      1  0.5276270000000  0.4232730000000  0.4585930000000 1.0
C      1  0.5378050000000  0.5450330000000  0.5652790000000 1.0
C      1  0.4309720000000  0.4744890000000  0.4496740000000 1.0
C      1  0.4246340000000  0.5466020000000  0.4829470000000 1.0
C      1  0.5252290000000  0.5333470000000  0.4584780000000 1.0
C      1  0.5348500000000  0.4712170000000  0.5801170000000 1.0
C      1  0.4166310000000  0.5212720000000  0.4408590000000 1.0
C      1  0.4441570000000  0.4666390000000  0.5618670000000 1.0
C      1  0.5098210000000  0.4454200000000  0.4197690000000 1.0
C      1  0.5170740000000  0.4870800000000  0.5059630000000 1.0
C      1  0.5836210000000  0.5320180000000  0.5176480000000 1.0
C      1  0.5902500000000  0.4873760000000  0.4904020000000 1.0
C      1  0.4818140000000  0.5167090000000  0.4733510000000 1.0
C      1  0.5228130000000  0.5662900000000  0.4269860000000 1.0
C      1  0.5394380000000  0.4483990000000  0.5320810000000 1.0
C      1  0.4092570000000  0.5126300000000  0.5175520000000 1.0
C      1  0.5051550000000  0.4263490000000  0.4409880000000 1.0
C      1  0.4865710000000  0.5106260000000  0.4179880000000 1.0
C      1  0.4334090000000  0.5199440000000  0.5617630000000 1.0
C      1  0.5435790000000  0.4903050000000  0.4671340000000 1.0
C      1  0.4414040000000  0.4930020000000  0.4726920000000 1.0
C      1  0.4862320000000  0.4893770000000  0.5978680000000 1.0
C      1  0.4829590000000  0.4339320000000  0.5521640000000 1.0
C      1  0.4567500000000  0.4363090000000  0.4416500000000 1.0
C      1  0.5925790000000  0.5285440000000  0.5443950000000 1.0
C      1  0.5056420000000  0.6021820000000  0.4810480000000 1.0
C      1  0.5385500000000  0.4987140000000  0.5454690000000 1.0
C      1  0.5676690000000  0.5638550000000  0.4904640000000 1.0
C      1  0.5850160000000  0.4981670000000  0.4644670000000 1.0
C      1  0.5592800000000  0.5091000000000  0.4254610000000 1.0
C      1  0.4338810000000  0.4265110000000  0.5375040000000 1.0
C      1  0.4967390000000  0.4492820000000  0.5010090000000 1.0
C      1  0.4976380000000  0.6061620000000  0.5090080000000 1.0
C      1  0.5749750000000  0.5035420000000  0.5106580000000 1.0
C      1  0.4366410000000  0.5405330000000  0.4564430000000 1.0
C      1  0.5455540000000  0.5203620000000  0.4757080000000 1.0
C      1  0.4627030000000  0.5818340000000  0.4669620000000 1.0
C      1  0.4763910000000  0.4096500000000  0.5349810000000 1.0
C      1  0.4979680000000  0.5344490000000  0.5925010000000 1.0
C      1  0.5462940000000  0.4449520000000  0.4581820000000 1.0
C      1  0.5336250000000  0.4629150000000  0.4166440000000 1.0
C      1  0.5183770000000  0.5434820000000  0.4100250000000 1.0
C      1  0.4513510000000  0.5625890000000  0.5505620000000 1.0
C      1  0.4492950000000  0.4792540000000  0.4281170000000 1.0
C      1  0.4613320000000  0.5042920000000  0.4302340000000 1.0
C      1  0.4696930000000  0.5307680000000  0.5881940000000 1.0
C      1  0.4752600000000  0.5760980000000  0.5437020000000 1.0
C      1  0.5761660000000  0.5247620000000  0.4706840000000 1.0
C      1  0.4991330000000  0.5394670000000  0.4704540000000 1.0
C      1  0.5156300000000  0.6066850000000  0.5297490000000 1.0
C      1  0.5088780000000  0.5080640000000  0.5978850000000 1.0
C      1  0.4095970000000  0.5252220000000  0.4918330000000 1.0
C      1  0.5874270000000  0.5427610000000  0.4894100000000 1.0
C      1  0.4556910000000  0.5145320000000  0.4579920000000 1.0
C      1  0.4839500000000  0.5376760000000  0.4944940000000 1.0
C      1  0.4118800000000  0.4992540000000  0.4789880000000 1.0
C      1  0.4326980000000  0.4534050000000  0.5376810000000 1.0
C      1  0.5254200000000  0.4591770000000  0.5033330000000 1.0
C      1  0.4900110000000  0.5392170000000  0.4114160000000 1.0
C      1  0.4779830000000  0.4199530000000  0.4511700000000 1.0
C      1  0.4811190000000  0.4673380000000  0.4834370000000 1.0
C      1  0.5474570000000  0.5724890000000  0.4720910000000 1.0
C      1  0.4516070000000  0.4128070000000  0.5215090000000 1.0
C      1  0.4353460000000  0.4467500000000  0.4584760000000 1.0
C      1  0.4429010000000  0.4942140000000  0.5721120000000 1.0
C      1  0.4344120000000  0.4399010000000  0.4860450000000 1.0
C      1  0.5252790000000  0.4877130000000  0.4040650000000 1.0
C      1  0.5428130000000  0.4116720000000  0.5059520000000 1.0
C      1  0.5130650000000  0.4536990000000  0.5824430000000 1.0
C      1  0.4767670000000  0.5600840000000  0.4276610000000 1.0
C      1  0.5164730000000  0.4890060000000  0.4556190000000 1.0
C      1  0.5830500000000  0.4502840000000  0.5223400000000 1.0
C      1  0.5793640000000  0.5131620000000  0.5631940000000 1.0
C      1  0.5230740000000  0.5805610000000  0.4852630000000 1.0
C      1  0.5868110000000  0.4862530000000  0.5633750000000 1.0
C      1  0.5960250000000  0.4633910000000  0.5017570000000 1.0
C      1  0.5610220000000  0.4325770000000  0.5181530000000 1.0
C      1  0.5387550000000  0.5587190000000  0.4487510000000 1.0
C      1  0.5645030000000  0.4884350000000  0.4444210000000 1.0
C      1  0.4890450000000  0.5913530000000  0.4606240000000 1.0
C      1  0.5481850000000  0.4697980000000  0.5526030000000 1.0
C      1  0.5340500000000  0.5141970000000  0.4147350000000 1.0
C      1  0.5590280000000  0.5510540000000  0.5160400000000 1.0
C      1  0.5442160000000  0.5026210000000  0.5166930000000 1.0
C      1  0.5435570000000  0.4629940000000  0.4799210000000 1.0
C      1  0.5540530000000  0.4611770000000  0.4355220000000 1.0
END
