TITL C-125560-2254-8 344.192325242074 125000 -992.114445942386 0 0 142 (C1) n - 1
REM
REM in /rds/project/t2_vol4/rds-t2-cs072/BORA/CARBON/from-Arr/AIRSS/Generating-Clusters/GAP-ML-2020/Only-C1/SD-CG/HFTN-CG
REM
REM
REM
REM
REM
REM ./C.cell (11c1c37f851c82e70ff6c80c92926a4b)
REM AIRSS Version 0.9.1 bugfix July 2018 build 013d7b7c2542+ Fri, 06 Jul 2018 19:26:36 +0100
REM compiler GCC version 9.3.0
REM options -cpp -mtune=generic -march=x86-64 -g -O0
REM seed 396355728 -312806139 -51132894 -690340697 1431830872 -511707975 -1456401560 717968735 730042216 137657766 -1798189653 721217273 2065910264 1579298549 2115611971 842327095 1118639103 1652867856 -857087805 111320499 1905635803 747995945 1479410101 -1744990322 250260405 967081896 1827289219 840069950 -507079103 79881906 1971743027 1890494922 -143240991
REM
CELL 1.54180   50.00000   50.00000   50.00000   90.00000   90.00000   90.00000
LATT -1
SFAC C  
C      1  0.5147780000000  0.4432500000000  0.4075670000000 1.0
C      1  0.4897740000000  0.6013940000000  0.4718170000000 1.0
C      1  0.5087870000000  0.5427700000000  0.5291010000000 1.0
C      1  0.4632640000000  0.5665620000000  0.4761340000000 1.0
C      1  0.5731730000000  0.4387050000000  0.4803250000000 1.0
C      1  0.5039880000000  0.4756340000000  0.5414530000000 1.0
C      1  0.5953640000000  0.5020160000000  0.5083830000000 1.0
C      1  0.5221960000000  0.4115270000000  0.5278360000000 1.0
C      1  0.5648450000000  0.5311900000000  0.4632710000000 1.0
C      1  0.4818720000000  0.4763980000000  0.4037560000000 1.0
C      1  0.4526640000000  0.5408390000000  0.4668320000000 1.0
C      1  0.5568760000000  0.5065580000000  0.5808560000000 1.0
C      1  0.4405720000000  0.4921190000000  0.4291010000000 1.0
C      1  0.5143160000000  0.5778680000000  0.4365750000000 1.0
C      1  0.5630760000000  0.4439850000000  0.5353520000000 1.0
C      1  0.5552810000000  0.4588230000000  0.5825190000000 1.0
C      1  0.4581920000000  0.5113240000000  0.5916890000000 1.0
C      1  0.4525420000000  0.5180020000000  0.4879580000000 1.0
C      1  0.4232730000000  0.4722580000000  0.5033290000000 1.0
C      1  0.5054030000000  0.5222010000000  0.5504280000000 1.0
C      1  0.4626580000000  0.4427880000000  0.5576820000000 1.0
C      1  0.4268040000000  0.4622950000000  0.5298650000000 1.0
C      1  0.4525470000000  0.4344480000000  0.4808980000000 1.0
C      1  0.4521020000000  0.5367670000000  0.5817730000000 1.0
C      1  0.4762200000000  0.5465360000000  0.4252690000000 1.0
C      1  0.4643160000000  0.5739770000000  0.5595540000000 1.0
C      1  0.5478380000000  0.4345460000000  0.4644810000000 1.0
C      1  0.5075740000000  0.5217700000000  0.5974930000000 1.0
C      1  0.4848410000000  0.4747390000000  0.4894660000000 1.0
C      1  0.4275750000000  0.4515480000000  0.4843500000000 1.0
C      1  0.5252530000000  0.4976920000000  0.5433240000000 1.0
C      1  0.4251400000000  0.5490110000000  0.4564260000000 1.0
C      1  0.4794540000000  0.5226660000000  0.4091800000000 1.0
C      1  0.5633920000000  0.5381720000000  0.4907290000000 1.0
C      1  0.5679330000000  0.4801590000000  0.5720230000000 1.0
C      1  0.5207010000000  0.4781380000000  0.5994270000000 1.0
C      1  0.4339670000000  0.5401740000000  0.5586950000000 1.0
C      1  0.4127360000000  0.5204530000000  0.5514980000000 1.0
C      1  0.4242890000000  0.5018860000000  0.4973500000000 1.0
C      1  0.4585310000000  0.4994270000000  0.5477690000000 1.0
C      1  0.4862330000000  0.4994060000000  0.5412130000000 1.0
C      1  0.5335560000000  0.4384110000000  0.5350930000000 1.0
C      1  0.5245890000000  0.4065470000000  0.5000200000000 1.0
C      1  0.4952200000000  0.4108380000000  0.5371150000000 1.0
C      1  0.5377110000000  0.4805160000000  0.4995100000000 1.0
C      1  0.4181310000000  0.5477700000000  0.5067720000000 1.0
C      1  0.5386370000000  0.5541160000000  0.5317170000000 1.0
C      1  0.5176550000000  0.4993290000000  0.4539770000000 1.0
C      1  0.5852470000000  0.5318970000000  0.5471240000000 1.0
C      1  0.5390960000000  0.4116490000000  0.4467020000000 1.0
C      1  0.4227240000000  0.4656610000000  0.4620440000000 1.0
C      1  0.4495460000000  0.3950650000000  0.4496380000000 1.0
C      1  0.4752720000000  0.4602990000000  0.5988080000000 1.0
C      1  0.5001180000000  0.4186030000000  0.4445920000000 1.0
C      1  0.5112760000000  0.5869530000000  0.5596430000000 1.0
C      1  0.5066760000000  0.5168260000000  0.4028660000000 1.0
C      1  0.5649140000000  0.5313540000000  0.5664510000000 1.0
C      1  0.4672630000000  0.4367890000000  0.5097950000000 1.0
C      1  0.5313300000000  0.5041470000000  0.5956970000000 1.0
C      1  0.4948790000000  0.5166470000000  0.4641660000000 1.0
C      1  0.5982620000000  0.4560610000000  0.5080500000000 1.0
C      1  0.5137400000000  0.4493700000000  0.5572690000000 1.0
C      1  0.5255650000000  0.4327710000000  0.4855640000000 1.0
C      1  0.4849280000000  0.5529360000000  0.5157060000000 1.0
C      1  0.5679150000000  0.5021980000000  0.4605260000000 1.0
C      1  0.5417470000000  0.4870850000000  0.4709070000000 1.0
C      1  0.4731590000000  0.5309590000000  0.4482930000000 1.0
C      1  0.4774060000000  0.5013190000000  0.4846910000000 1.0
C      1  0.4166190000000  0.5359350000000  0.4336050000000 1.0
C      1  0.4350840000000  0.5699230000000  0.5174310000000 1.0
C      1  0.4731820000000  0.5845560000000  0.4553170000000 1.0
C      1  0.5768570000000  0.4370270000000  0.5100760000000 1.0
C      1  0.5931380000000  0.5297080000000  0.5208970000000 1.0
C      1  0.4193860000000  0.5220210000000  0.5216370000000 1.0
C      1  0.5424490000000  0.5944190000000  0.4723530000000 1.0
C      1  0.4113150000000  0.5123500000000  0.4729330000000 1.0
C      1  0.4629900000000  0.4492670000000  0.4530450000000 1.0
C      1  0.4773920000000  0.4099270000000  0.5151900000000 1.0
C      1  0.5483370000000  0.4730160000000  0.4243360000000 1.0
C      1  0.4637760000000  0.4974940000000  0.4115060000000 1.0
C      1  0.5918340000000  0.4621140000000  0.4808180000000 1.0
C      1  0.5567100000000  0.5540160000000  0.4480010000000 1.0
C      1  0.5075390000000  0.5373910000000  0.4801010000000 1.0
C      1  0.5278950000000  0.5324720000000  0.4159380000000 1.0
C      1  0.5456680000000  0.5523560000000  0.5602470000000 1.0
C      1  0.4495290000000  0.4448360000000  0.5330660000000 1.0
C      1  0.4107950000000  0.4725950000000  0.5500990000000 1.0
C      1  0.5771460000000  0.4673680000000  0.5471190000000 1.0
C      1  0.4926070000000  0.4798840000000  0.6051450000000 1.0
C      1  0.4468030000000  0.4904080000000  0.5738910000000 1.0
C      1  0.4401580000000  0.5660330000000  0.5461290000000 1.0
C      1  0.4949170000000  0.4601900000000  0.5123950000000 1.0
C      1  0.4802330000000  0.3954200000000  0.4913140000000 1.0
C      1  0.5019430000000  0.5425660000000  0.5775000000000 1.0
C      1  0.5752500000000  0.5729340000000  0.4901240000000 1.0
C      1  0.5338540000000  0.5567200000000  0.4298290000000 1.0
C      1  0.4107700000000  0.5413760000000  0.4796980000000 1.0
C      1  0.4536170000000  0.4074410000000  0.4271790000000 1.0
C      1  0.4896340000000  0.4310710000000  0.5559740000000 1.0
C      1  0.5224660000000  0.4230660000000  0.4256480000000 1.0
C      1  0.4477070000000  0.5224000000000  0.5354190000000 1.0
C      1  0.5358780000000  0.5101150000000  0.4311570000000 1.0
C      1  0.4913620000000  0.6041380000000  0.5256190000000 1.0
C      1  0.4876180000000  0.5092090000000  0.5120350000000 1.0
C      1  0.5397170000000  0.4623100000000  0.4514700000000 1.0
C      1  0.4538070000000  0.5835460000000  0.4991690000000 1.0
C      1  0.5284850000000  0.4688600000000  0.4039850000000 1.0
C      1  0.4738020000000  0.5537470000000  0.5775790000000 1.0
C      1  0.5891680000000  0.4914840000000  0.4803080000000 1.0
C      1  0.5162170000000  0.3962550000000  0.4572050000000 1.0
C      1  0.4584340000000  0.4050420000000  0.4748070000000 1.0
C      1  0.4177330000000  0.4949990000000  0.5633750000000 1.0
C      1  0.5607190000000  0.4965450000000  0.4315920000000 1.0
C      1  0.5531660000000  0.5898300000000  0.4995280000000 1.0
C      1  0.5167820000000  0.5964210000000  0.4597270000000 1.0
C      1  0.5012540000000  0.4347930000000  0.4692390000000 1.0
C      1  0.5100010000000  0.4714660000000  0.4486330000000 1.0
C      1  0.5368820000000  0.5028930000000  0.5173950000000 1.0
C      1  0.4733730000000  0.4305010000000  0.4302820000000 1.0
C      1  0.5221350000000  0.5640390000000  0.5721460000000 1.0
C      1  0.4865440000000  0.5718890000000  0.4330920000000 1.0
C      1  0.4840720000000  0.5066360000000  0.6027620000000 1.0
C      1  0.4836400000000  0.5927060000000  0.5515820000000 1.0
C      1  0.4412580000000  0.4678450000000  0.4431630000000 1.0
C      1  0.5877330000000  0.5503220000000  0.5003730000000 1.0
C      1  0.5082450000000  0.3901760000000  0.4834250000000 1.0
C      1  0.5237690000000  0.4540610000000  0.5070240000000 1.0
C      1  0.5949650000000  0.4778470000000  0.5254150000000 1.0
C      1  0.4891840000000  0.4599970000000  0.4647750000000 1.0
C      1  0.4863590000000  0.4479920000000  0.4097160000000 1.0
C      1  0.5287310000000  0.4558000000000  0.5835400000000 1.0
C      1  0.5399730000000  0.5833530000000  0.5231040000000 1.0
C      1  0.4572670000000  0.4616550000000  0.5789360000000 1.0
C      1  0.5454290000000  0.5305600000000  0.5122330000000 1.0
C      1  0.4210990000000  0.5101670000000  0.4421780000000 1.0
C      1  0.5635030000000  0.5768440000000  0.4631620000000 1.0
C      1  0.5191860000000  0.5982420000000  0.5341800000000 1.0
C      1  0.4661480000000  0.5299680000000  0.5137050000000 1.0
C      1  0.4773700000000  0.6017760000000  0.5000910000000 1.0
C      1  0.4911970000000  0.5586400000000  0.4887720000000 1.0
C      1  0.5077620000000  0.4882040000000  0.3981090000000 1.0
C      1  0.5155310000000  0.5246960000000  0.5059720000000 1.0
END
