TITL C-125546-2260-8 -0.175082023292243 125000 -599.559993064987 0 0 87 (C1) n - 1
REM
REM in /rds/project/t2_vol4/rds-t2-cs072/BORA/CARBON/from-Arr/AIRSS/Generating-Clusters/GAP-ML-2020/Only-C1/SD-CG/HFTN-CG
REM
REM
REM
REM
REM
REM ./C.cell (11c1c37f851c82e70ff6c80c92926a4b)
REM AIRSS Version 0.9.1 bugfix July 2018 build 013d7b7c2542+ Fri, 06 Jul 2018 19:26:36 +0100
REM compiler GCC version 9.3.0
REM options -cpp -mtune=generic -march=x86-64 -g -O0
REM seed -530810759 1287283635 1392464748 647935409 -1909421813 1878770575 -2080877347 -87320140 1040347620 -49062291 397984480 -18813790 -1472695383 1258122878 -625901402 -116434286 -70682886 -2073335923 581260995 852513864 -1381849344 -1386130819 823190928 260102410 -156922629 -1014571012 1173066480 1785421334 -331419773 119894104 1347374502 -445623008 -1677545398
REM
CELL 1.54180   50.00000   50.00000   50.00000   90.00000   90.00000   90.00000
LATT -1
SFAC C  
C      1  0.4642670000000  0.5027360000000  0.4113750000000 1.0
C      1  0.5231360000000  0.5275690000000  0.5311130000000 1.0
C      1  0.4340320000000  0.5005410000000  0.5294820000000 1.0
C      1  0.4984550000000  0.5443160000000  0.5303150000000 1.0
C      1  0.5698710000000  0.5197770000000  0.5388850000000 1.0
C      1  0.4473590000000  0.5269350000000  0.5239850000000 1.0
C      1  0.5487030000000  0.5401900000000  0.5419280000000 1.0
C      1  0.5226370000000  0.4345470000000  0.5187810000000 1.0
C      1  0.4801470000000  0.4256770000000  0.5405030000000 1.0
C      1  0.4792380000000  0.5212640000000  0.5226990000000 1.0
C      1  0.4897880000000  0.4870520000000  0.4839270000000 1.0
C      1  0.5354670000000  0.5290990000000  0.4281480000000 1.0
C      1  0.4643120000000  0.4746310000000  0.4165700000000 1.0
C      1  0.4429860000000  0.4950170000000  0.4617180000000 1.0
C      1  0.5319730000000  0.4658080000000  0.4523230000000 1.0
C      1  0.5557810000000  0.4854680000000  0.4532570000000 1.0
C      1  0.4579340000000  0.4696600000000  0.4438950000000 1.0
C      1  0.4747830000000  0.4255790000000  0.4961180000000 1.0
C      1  0.5478790000000  0.5137750000000  0.4493410000000 1.0
C      1  0.4935500000000  0.5133070000000  0.4982120000000 1.0
C      1  0.5159830000000  0.4919390000000  0.5700900000000 1.0
C      1  0.4737410000000  0.4905670000000  0.4595310000000 1.0
C      1  0.4384200000000  0.4544950000000  0.5214260000000 1.0
C      1  0.5349120000000  0.4906020000000  0.4977030000000 1.0
C      1  0.5779510000000  0.4681470000000  0.5163170000000 1.0
C      1  0.4443030000000  0.5226120000000  0.4535580000000 1.0
C      1  0.5327960000000  0.5556320000000  0.4349950000000 1.0
C      1  0.5186640000000  0.5107330000000  0.4579680000000 1.0
C      1  0.4565460000000  0.4438640000000  0.4571570000000 1.0
C      1  0.4130290000000  0.4569280000000  0.4738180000000 1.0
C      1  0.5144300000000  0.5379210000000  0.5829750000000 1.0
C      1  0.4362500000000  0.4429660000000  0.4766490000000 1.0
C      1  0.5095520000000  0.4557360000000  0.4344280000000 1.0
C      1  0.4623670000000  0.4999460000000  0.5719790000000 1.0
C      1  0.4481610000000  0.4355900000000  0.5019820000000 1.0
C      1  0.5170910000000  0.4995610000000  0.5410940000000 1.0
C      1  0.4895210000000  0.4949170000000  0.5298560000000 1.0
C      1  0.4793050000000  0.4293650000000  0.4672910000000 1.0
C      1  0.4539900000000  0.5431740000000  0.4723950000000 1.0
C      1  0.4865100000000  0.4859380000000  0.5783930000000 1.0
C      1  0.5390850000000  0.5397270000000  0.5702770000000 1.0
C      1  0.5823420000000  0.4925150000000  0.5008330000000 1.0
C      1  0.5048180000000  0.4343740000000  0.4545730000000 1.0
C      1  0.5779010000000  0.5187510000000  0.5116780000000 1.0
C      1  0.4665200000000  0.5679180000000  0.5131270000000 1.0
C      1  0.4899990000000  0.4586750000000  0.5719600000000 1.0
C      1  0.5290380000000  0.5731500000000  0.5061460000000 1.0
C      1  0.5630760000000  0.4817410000000  0.4812780000000 1.0
C      1  0.4948700000000  0.4238020000000  0.5178800000000 1.0
C      1  0.5614050000000  0.4733570000000  0.5383390000000 1.0
C      1  0.5310840000000  0.5150150000000  0.5819760000000 1.0
C      1  0.5268290000000  0.5753550000000  0.4778470000000 1.0
C      1  0.5300740000000  0.4400410000000  0.4679900000000 1.0
C      1  0.4619250000000  0.5664800000000  0.5416190000000 1.0
C      1  0.5528320000000  0.5380600000000  0.4712080000000 1.0
C      1  0.5662930000000  0.4963950000000  0.5525740000000 1.0
C      1  0.5175940000000  0.4611980000000  0.5645260000000 1.0
C      1  0.4927270000000  0.5084740000000  0.4428040000000 1.0
C      1  0.4865610000000  0.5603420000000  0.5526450000000 1.0
C      1  0.4635280000000  0.5280810000000  0.5703920000000 1.0
C      1  0.4938010000000  0.4681990000000  0.4151350000000 1.0
C      1  0.4490200000000  0.5425860000000  0.5491660000000 1.0
C      1  0.4976040000000  0.5645510000000  0.5079540000000 1.0
C      1  0.4846640000000  0.5378420000000  0.4371290000000 1.0
C      1  0.5627700000000  0.4549140000000  0.4953840000000 1.0
C      1  0.4258760000000  0.4807090000000  0.4816020000000 1.0
C      1  0.5021150000000  0.5577680000000  0.4788460000000 1.0
C      1  0.5288850000000  0.4541240000000  0.5391250000000 1.0
C      1  0.4590590000000  0.5249140000000  0.4283410000000 1.0
C      1  0.5341720000000  0.4806260000000  0.5264810000000 1.0
C      1  0.5451230000000  0.5634950000000  0.4593590000000 1.0
C      1  0.4285030000000  0.4798060000000  0.5108350000000 1.0
C      1  0.4787280000000  0.5520750000000  0.4617300000000 1.0
C      1  0.4504250000000  0.5479360000000  0.5004250000000 1.0
C      1  0.5178960000000  0.4849400000000  0.4737740000000 1.0
C      1  0.4876950000000  0.5433560000000  0.5757830000000 1.0
C      1  0.5221330000000  0.5177790000000  0.5024630000000 1.0
C      1  0.5106740000000  0.5449310000000  0.4242740000000 1.0
C      1  0.5499540000000  0.5568700000000  0.5164360000000 1.0
C      1  0.5211420000000  0.5332560000000  0.4775230000000 1.0
C      1  0.4473010000000  0.4591710000000  0.5479820000000 1.0
C      1  0.5657180000000  0.5406910000000  0.4978830000000 1.0
C      1  0.4863560000000  0.4756680000000  0.5095850000000 1.0
C      1  0.4438400000000  0.4869280000000  0.5538470000000 1.0
C      1  0.5398180000000  0.4387850000000  0.4948230000000 1.0
C      1  0.4698440000000  0.4438120000000  0.5576910000000 1.0
C      1  0.4925620000000  0.4972370000000  0.4145660000000 1.0
END
