TITL C-125550-2263-2 29.2118758130888 125000 -711.94431683836 0 0 103 (C1) n - 1
REM
REM in /rds/project/t2_vol4/rds-t2-cs072/BORA/CARBON/from-Arr/AIRSS/Generating-Clusters/GAP-ML-2020/Only-C1/SD-CG/HFTN-CG
REM
REM
REM
REM
REM
REM ./C.cell (11c1c37f851c82e70ff6c80c92926a4b)
REM AIRSS Version 0.9.1 bugfix July 2018 build 013d7b7c2542+ Fri, 06 Jul 2018 19:26:36 +0100
REM compiler GCC version 9.3.0
REM options -cpp -mtune=generic -march=x86-64 -g -O0
REM seed 449316207 402162522 512785636 -2052728932 -746729785 -2028404609 1225793367 -1913719050 -592094587 -884116025 -1242124790 1306353321 337361451 1175909869 -1166220648 1092054033 417037985 -1659000335 -1441735225 1416083733 1294407613 1928130682 1040135678 -1545670321 -1021140682 -544467333 1377775469 -811707636 95211545 807651094 2080835187 -764733225 817243358
REM
CELL 1.54180   50.00000   50.00000   50.00000   90.00000   90.00000   90.00000
LATT -1
SFAC C  
C      1  0.5666200000000  0.5366690000000  0.4665740000000 1.0
C      1  0.4953340000000  0.4487300000000  0.4277180000000 1.0
C      1  0.5802580000000  0.5260710000000  0.5141170000000 1.0
C      1  0.4713030000000  0.5725090000000  0.5314680000000 1.0
C      1  0.5719790000000  0.4945180000000  0.5533990000000 1.0
C      1  0.5400490000000  0.4540160000000  0.5467640000000 1.0
C      1  0.5005610000000  0.5397110000000  0.4220580000000 1.0
C      1  0.4683200000000  0.5167690000000  0.5762820000000 1.0
C      1  0.5327390000000  0.4742660000000  0.4054140000000 1.0
C      1  0.5082360000000  0.4905310000000  0.5732030000000 1.0
C      1  0.4904880000000  0.4412850000000  0.5662660000000 1.0
C      1  0.5216170000000  0.5771960000000  0.5427770000000 1.0
C      1  0.4646490000000  0.4223900000000  0.4891250000000 1.0
C      1  0.4814590000000  0.5398720000000  0.4951170000000 1.0
C      1  0.5061540000000  0.5131500000000  0.4614000000000 1.0
C      1  0.5239450000000  0.4999570000000  0.4166790000000 1.0
C      1  0.4985950000000  0.5119930000000  0.4136920000000 1.0
C      1  0.5356070000000  0.4488350000000  0.4656370000000 1.0
C      1  0.5494550000000  0.5400310000000  0.5483330000000 1.0
C      1  0.4800200000000  0.5706250000000  0.4856300000000 1.0
C      1  0.4166770000000  0.5161940000000  0.4537610000000 1.0
C      1  0.4789080000000  0.4959600000000  0.4277260000000 1.0
C      1  0.4502520000000  0.4364420000000  0.5346450000000 1.0
C      1  0.4603330000000  0.5178230000000  0.5244390000000 1.0
C      1  0.4304000000000  0.5098050000000  0.5408270000000 1.0
C      1  0.4184470000000  0.5376630000000  0.5065630000000 1.0
C      1  0.4754330000000  0.5652780000000  0.5601910000000 1.0
C      1  0.4640680000000  0.4747800000000  0.4845780000000 1.0
C      1  0.5456500000000  0.4647100000000  0.4865770000000 1.0
C      1  0.5172020000000  0.4277930000000  0.4666090000000 1.0
C      1  0.4960650000000  0.5695890000000  0.4596500000000 1.0
C      1  0.4916680000000  0.4761770000000  0.4936410000000 1.0
C      1  0.5320570000000  0.5017010000000  0.4445560000000 1.0
C      1  0.4573060000000  0.4577350000000  0.4555470000000 1.0
C      1  0.5242460000000  0.5493520000000  0.4318480000000 1.0
C      1  0.4740830000000  0.5113420000000  0.4518230000000 1.0
C      1  0.5666060000000  0.5479720000000  0.5231550000000 1.0
C      1  0.5549110000000  0.5150580000000  0.5650910000000 1.0
C      1  0.4724710000000  0.4246650000000  0.5483920000000 1.0
C      1  0.5047030000000  0.5610390000000  0.5602560000000 1.0
C      1  0.5386410000000  0.4995370000000  0.5216710000000 1.0
C      1  0.5521180000000  0.4399910000000  0.5223430000000 1.0
C      1  0.4609150000000  0.5375210000000  0.4451650000000 1.0
C      1  0.4341140000000  0.5470960000000  0.4831910000000 1.0
C      1  0.4276040000000  0.5539310000000  0.5282430000000 1.0
C      1  0.4571030000000  0.5228370000000  0.4942020000000 1.0
C      1  0.5782640000000  0.4937550000000  0.4527680000000 1.0
C      1  0.5503940000000  0.5592310000000  0.4719320000000 1.0
C      1  0.4684900000000  0.4309730000000  0.4621920000000 1.0
C      1  0.5325510000000  0.4198230000000  0.5151760000000 1.0
C      1  0.4590380000000  0.4898740000000  0.5752300000000 1.0
C      1  0.5870640000000  0.4955860000000  0.4798030000000 1.0
C      1  0.4799020000000  0.5414010000000  0.5252460000000 1.0
C      1  0.5685040000000  0.4719870000000  0.4356930000000 1.0
C      1  0.4463030000000  0.4362780000000  0.5061880000000 1.0
C      1  0.5358810000000  0.4918350000000  0.4943490000000 1.0
C      1  0.4457700000000  0.5733550000000  0.5186360000000 1.0
C      1  0.4351360000000  0.5373410000000  0.5502670000000 1.0
C      1  0.4915500000000  0.5807610000000  0.5107080000000 1.0
C      1  0.4412540000000  0.4670590000000  0.5048830000000 1.0
C      1  0.4876950000000  0.4112130000000  0.5025280000000 1.0
C      1  0.5163740000000  0.4146960000000  0.5385160000000 1.0
C      1  0.5606090000000  0.4707710000000  0.4106030000000 1.0
C      1  0.4333010000000  0.5381600000000  0.4551170000000 1.0
C      1  0.5026440000000  0.5346410000000  0.5449010000000 1.0
C      1  0.4853480000000  0.4701360000000  0.5695230000000 1.0
C      1  0.5257800000000  0.5641490000000  0.4553220000000 1.0
C      1  0.4570880000000  0.5010970000000  0.4744510000000 1.0
C      1  0.5063180000000  0.5282340000000  0.4876170000000 1.0
C      1  0.5094830000000  0.4978970000000  0.4854460000000 1.0
C      1  0.4983970000000  0.4688360000000  0.5196610000000 1.0
C      1  0.5150410000000  0.4536390000000  0.4091360000000 1.0
C      1  0.5741300000000  0.4994170000000  0.5250490000000 1.0
C      1  0.5497900000000  0.5586300000000  0.5006220000000 1.0
C      1  0.4756920000000  0.4684150000000  0.4335960000000 1.0
C      1  0.4890530000000  0.4098390000000  0.5311240000000 1.0
C      1  0.4930510000000  0.5124910000000  0.5608250000000 1.0
C      1  0.4481410000000  0.4658720000000  0.5357490000000 1.0
C      1  0.4383320000000  0.4862110000000  0.5555940000000 1.0
C      1  0.5173310000000  0.5718530000000  0.5156570000000 1.0
C      1  0.5243630000000  0.4756730000000  0.5305940000000 1.0
C      1  0.4262130000000  0.4932950000000  0.4679580000000 1.0
C      1  0.5835460000000  0.5235660000000  0.4861470000000 1.0
C      1  0.4805330000000  0.5008070000000  0.5356480000000 1.0
C      1  0.5819100000000  0.4803710000000  0.5041140000000 1.0
C      1  0.4821140000000  0.5545060000000  0.4385800000000 1.0
C      1  0.5591020000000  0.5151100000000  0.4490740000000 1.0
C      1  0.5253760000000  0.5443310000000  0.5060110000000 1.0
C      1  0.4206390000000  0.4877660000000  0.4973110000000 1.0
C      1  0.5664220000000  0.4564350000000  0.5043030000000 1.0
C      1  0.4577230000000  0.5423810000000  0.5674150000000 1.0
C      1  0.5279210000000  0.5277720000000  0.5302890000000 1.0
C      1  0.5547340000000  0.4735760000000  0.5635220000000 1.0
C      1  0.5144490000000  0.4158540000000  0.4923730000000 1.0
C      1  0.4311700000000  0.4668740000000  0.4570770000000 1.0
C      1  0.5429540000000  0.4707670000000  0.4501680000000 1.0
C      1  0.5343470000000  0.5624530000000  0.5615210000000 1.0
C      1  0.4775950000000  0.4727500000000  0.5390850000000 1.0
C      1  0.5369150000000  0.4935730000000  0.5750660000000 1.0
C      1  0.4165620000000  0.5095790000000  0.5147640000000 1.0
C      1  0.4941080000000  0.4298280000000  0.4501390000000 1.0
C      1  0.5182360000000  0.4351220000000  0.5575590000000 1.0
C      1  0.4499980000000  0.5710420000000  0.4908280000000 1.0
END
