TITL C-121986-4402-1 487.450962956675 125000 -438.313114959345 0 0 63 (C1) n - 1
REM
REM in /rds/project/t2_vol4/rds-t2-cs072/BORA/CARBON/from-Arr/AIRSS/Generating-Clusters/GAP-ML-2020/Only-C1/SD-CG/HFTN-CG
REM
REM
REM
REM
REM
REM ./C.cell (11c1c37f851c82e70ff6c80c92926a4b)
REM AIRSS Version 0.9.1 bugfix July 2018 build 013d7b7c2542+ Fri, 06 Jul 2018 19:26:36 +0100
REM compiler GCC version 9.3.0
REM options -cpp -mtune=generic -march=x86-64 -g -O0
REM seed 1686410322 728589888 177896121 -2015332975 999017717 1409332651 1606790510 1665943672 1908340595 585854857 1955549676 -751452663 2125405827 -555034384 -911385863 949943736 -1081071592 -1041374585 -312612201 1352109591 -383839582 88875596 166264694 -872470075 1350358180 1598112008 -1974410289 -720014957 1621721756 -204724144 -2057412187 -645964546 -49049215
REM
CELL 1.54180   50.00000   50.00000   50.00000   90.00000   90.00000   90.00000
LATT -1
SFAC C  
C      1  0.5207040000000  0.5134670000000  0.5672700000000 1.0
C      1  0.5558110000000  0.5229770000000  0.4657440000000 1.0
C      1  0.4704320000000  0.5128760000000  0.4371470000000 1.0
C      1  0.5007280000000  0.4750790000000  0.4309190000000 1.0
C      1  0.4337690000000  0.5026130000000  0.4674030000000 1.0
C      1  0.4741360000000  0.5350140000000  0.5413430000000 1.0
C      1  0.5475060000000  0.4526410000000  0.5278240000000 1.0
C      1  0.4706160000000  0.5149780000000  0.5625660000000 1.0
C      1  0.4593500000000  0.4667390000000  0.4551450000000 1.0
C      1  0.4953290000000  0.5024110000000  0.4277260000000 1.0
C      1  0.4616270000000  0.4707820000000  0.5770370000000 1.0
C      1  0.4958020000000  0.5554970000000  0.5376380000000 1.0
C      1  0.4558170000000  0.4535830000000  0.5285820000000 1.0
C      1  0.5332560000000  0.4911570000000  0.4894020000000 1.0
C      1  0.4597040000000  0.4446030000000  0.5009750000000 1.0
C      1  0.5519160000000  0.5129080000000  0.5310770000000 1.0
C      1  0.5256960000000  0.4703140000000  0.5380030000000 1.0
C      1  0.4467380000000  0.4592640000000  0.4802580000000 1.0
C      1  0.4317390000000  0.4940740000000  0.5136640000000 1.0
C      1  0.5222060000000  0.5476940000000  0.5461530000000 1.0
C      1  0.5165870000000  0.5698190000000  0.4930280000000 1.0
C      1  0.4890140000000  0.4743620000000  0.5718330000000 1.0
C      1  0.5386960000000  0.5092950000000  0.4460980000000 1.0
C      1  0.4583530000000  0.5456920000000  0.4730500000000 1.0
C      1  0.4953220000000  0.5155120000000  0.5243210000000 1.0
C      1  0.5396470000000  0.4396680000000  0.5014280000000 1.0
C      1  0.5419640000000  0.5401150000000  0.5262660000000 1.0
C      1  0.4939280000000  0.5618540000000  0.5088770000000 1.0
C      1  0.5244140000000  0.4633820000000  0.4431830000000 1.0
C      1  0.5630720000000  0.5013730000000  0.4842630000000 1.0
C      1  0.5165100000000  0.4761380000000  0.5076660000000 1.0
C      1  0.5584130000000  0.4761910000000  0.4709340000000 1.0
C      1  0.5018260000000  0.4587740000000  0.5514360000000 1.0
C      1  0.5451020000000  0.5469050000000  0.4748880000000 1.0
C      1  0.4424150000000  0.4784330000000  0.5352170000000 1.0
C      1  0.4539660000000  0.5415550000000  0.5203650000000 1.0
C      1  0.5036240000000  0.5441890000000  0.4474980000000 1.0
C      1  0.4849880000000  0.4578950000000  0.4484370000000 1.0
C      1  0.5361950000000  0.4974570000000  0.5489310000000 1.0
C      1  0.5606120000000  0.4546730000000  0.4889800000000 1.0
C      1  0.5199570000000  0.5586610000000  0.4656220000000 1.0
C      1  0.5167840000000  0.5016260000000  0.4700570000000 1.0
C      1  0.5409270000000  0.5554720000000  0.5022920000000 1.0
C      1  0.4373560000000  0.5274640000000  0.4796150000000 1.0
C      1  0.4354490000000  0.5228300000000  0.5083650000000 1.0
C      1  0.5086810000000  0.4483560000000  0.4630410000000 1.0
C      1  0.5117760000000  0.4457820000000  0.4926640000000 1.0
C      1  0.4525330000000  0.4905870000000  0.5595550000000 1.0
C      1  0.4920920000000  0.4928350000000  0.5054820000000 1.0
C      1  0.4931300000000  0.5102080000000  0.4826640000000 1.0
C      1  0.4836150000000  0.4453170000000  0.5343760000000 1.0
C      1  0.4751150000000  0.5383940000000  0.4505490000000 1.0
C      1  0.5671390000000  0.4965950000000  0.5125660000000 1.0
C      1  0.4946220000000  0.5031010000000  0.5725860000000 1.0
C      1  0.4670650000000  0.5556920000000  0.4990580000000 1.0
C      1  0.5460570000000  0.4805480000000  0.4457510000000 1.0
C      1  0.5666630000000  0.4683700000000  0.5148380000000 1.0
C      1  0.5162120000000  0.5219260000000  0.4327730000000 1.0
C      1  0.4307500000000  0.4819770000000  0.4877870000000 1.0
C      1  0.5002530000000  0.5317930000000  0.5015130000000 1.0
C      1  0.4518600000000  0.4940230000000  0.4476100000000 1.0
C      1  0.5271670000000  0.5398740000000  0.5717530000000 1.0
C      1  0.4872700000000  0.4366130000000  0.5069100000000 1.0
END
