TITL C-125557-2240-5 -0.0695968287537083 125000 -158.675762502995 0 0 25 (C1) n - 1
REM
REM in /rds/project/t2_vol4/rds-t2-cs072/BORA/CARBON/from-Arr/AIRSS/Generating-Clusters/GAP-ML-2020/Only-C1/SD-CG/HFTN-CG
REM
REM
REM
REM
REM
REM ./C.cell (11c1c37f851c82e70ff6c80c92926a4b)
REM AIRSS Version 0.9.1 bugfix July 2018 build 013d7b7c2542+ Fri, 06 Jul 2018 19:26:36 +0100
REM compiler GCC version 9.3.0
REM options -cpp -mtune=generic -march=x86-64 -g -O0
REM seed 1197614497 -1119766288 124639226 408668212 460046331 -728870751 1932109947 591360972 2038019526 349494133 2118749843 1717606342 -1878087336 1157107342 1141945872 1247650447 -1392975448 1135334542 250086348 -1595273968 123589876 -169449303 898367984 -2147073115 1545829939 -1802630893 -879590336 1065573855 -1424738993 -1497208007 -1425254727 -901603427 506282729
REM
CELL 1.54180   50.00000   50.00000   50.00000   90.00000   90.00000   90.00000
LATT -1
SFAC C  
C      1  0.5347820000000  0.4748330000000  0.5148120000000 1.0
C      1  0.5173700000000  0.5337890000000  0.5075710000000 1.0
C      1  0.5493760000000  0.4956250000000  0.4665060000000 1.0
C      1  0.4782110000000  0.5077330000000  0.5433530000000 1.0
C      1  0.5198970000000  0.4662000000000  0.4424530000000 1.0
C      1  0.4696940000000  0.4795060000000  0.4888020000000 1.0
C      1  0.5189670000000  0.4752550000000  0.4929730000000 1.0
C      1  0.4932610000000  0.5201730000000  0.4942780000000 1.0
C      1  0.5313790000000  0.4736030000000  0.4664640000000 1.0
C      1  0.4461840000000  0.4937610000000  0.4857390000000 1.0
C      1  0.5387980000000  0.5356490000000  0.4938960000000 1.0
C      1  0.5219550000000  0.4822440000000  0.5384010000000 1.0
C      1  0.4683200000000  0.5312490000000  0.5024250000000 1.0
C      1  0.4935850000000  0.4897950000000  0.5011970000000 1.0
C      1  0.5114810000000  0.5048230000000  0.5747980000000 1.0
C      1  0.5034960000000  0.5165060000000  0.4677140000000 1.0
C      1  0.4592060000000  0.5210100000000  0.5271300000000 1.0
C      1  0.4883690000000  0.4996760000000  0.4516130000000 1.0
C      1  0.4451000000000  0.5151940000000  0.5043220000000 1.0
C      1  0.5295350000000  0.4881580000000  0.5647950000000 1.0
C      1  0.4641570000000  0.4928010000000  0.4642570000000 1.0
C      1  0.5005910000000  0.4819970000000  0.4343840000000 1.0
C      1  0.5333600000000  0.5164310000000  0.4737890000000 1.0
C      1  0.4880680000000  0.5143040000000  0.5689820000000 1.0
C      1  0.4948600000000  0.4896850000000  0.5293460000000 1.0
END
