TITL C-121976-4427-7 -0.0474863025478728 125000 -247.809069092647 0 0 37 (C1) n - 1
REM
REM in /rds/project/t2_vol4/rds-t2-cs072/BORA/CARBON/from-Arr/AIRSS/Generating-Clusters/GAP-ML-2020/Only-C1/SD-CG/HFTN-CG
REM
REM
REM
REM
REM
REM ./C.cell (11c1c37f851c82e70ff6c80c92926a4b)
REM AIRSS Version 0.9.1 bugfix July 2018 build 013d7b7c2542+ Fri, 06 Jul 2018 19:26:36 +0100
REM compiler GCC version 9.3.0
REM options -cpp -mtune=generic -march=x86-64 -g -O0
REM seed -1704324898 -1086462399 -1343099457 -202140769 319957719 1159708826 -467741460 -1967524140 -892643093 -335353345 -1222422202 -819471613 -881829414 -1143574197 176397601 -997124232 -1800046773 -1255525111 -193065176 -1690197423 -1424261411 1741289264 926315068 117919220 756777554 1764592074 -132333477 -866734701 1528806354 1714099770 401318814 -1306507283 -114158661
REM
CELL 1.54180   50.00000   50.00000   50.00000   90.00000   90.00000   90.00000
LATT -1
SFAC C  
C      1  0.5473410000000  0.4967850000000  0.4518540000000 1.0
C      1  0.4905460000000  0.4728060000000  0.5431630000000 1.0
C      1  0.5055030000000  0.5429620000000  0.5321450000000 1.0
C      1  0.4671950000000  0.5389670000000  0.5057190000000 1.0
C      1  0.5249880000000  0.5127260000000  0.4525600000000 1.0
C      1  0.5041540000000  0.4601340000000  0.5211650000000 1.0
C      1  0.4525600000000  0.4946890000000  0.5218620000000 1.0
C      1  0.4962460000000  0.5123500000000  0.4483430000000 1.0
C      1  0.5449540000000  0.5193160000000  0.5340190000000 1.0
C      1  0.4590930000000  0.4601340000000  0.4853110000000 1.0
C      1  0.4989510000000  0.5605170000000  0.4635800000000 1.0
C      1  0.4571440000000  0.5043530000000  0.4730110000000 1.0
C      1  0.5343150000000  0.5458750000000  0.4949130000000 1.0
C      1  0.4859070000000  0.5371390000000  0.4606170000000 1.0
C      1  0.4836830000000  0.4659560000000  0.4690620000000 1.0
C      1  0.5524010000000  0.4750590000000  0.4958510000000 1.0
C      1  0.5089760000000  0.5582820000000  0.4884900000000 1.0
C      1  0.4624060000000  0.4720420000000  0.5378140000000 1.0
C      1  0.5442030000000  0.4740710000000  0.5242610000000 1.0
C      1  0.4632060000000  0.5313120000000  0.4782060000000 1.0
C      1  0.4912260000000  0.5535790000000  0.5101680000000 1.0
C      1  0.5316910000000  0.5186610000000  0.4829250000000 1.0
C      1  0.5042160000000  0.4966430000000  0.5492430000000 1.0
C      1  0.4482890000000  0.4871770000000  0.4934060000000 1.0
C      1  0.5031060000000  0.4799670000000  0.4975340000000 1.0
C      1  0.4901290000000  0.5211740000000  0.5433080000000 1.0
C      1  0.5067990000000  0.5074380000000  0.4968710000000 1.0
C      1  0.4773730000000  0.4918100000000  0.4560890000000 1.0
C      1  0.5347640000000  0.4522610000000  0.4886150000000 1.0
C      1  0.4511500000000  0.4416790000000  0.5040770000000 1.0
C      1  0.5113450000000  0.4615670000000  0.4754570000000 1.0
C      1  0.5328580000000  0.5411240000000  0.5242530000000 1.0
C      1  0.5298440000000  0.4496470000000  0.5192260000000 1.0
C      1  0.4651280000000  0.5195900000000  0.5268610000000 1.0
C      1  0.5337570000000  0.4957640000000  0.5410460000000 1.0
C      1  0.4513730000000  0.4481490000000  0.5291790000000 1.0
C      1  0.5531820000000  0.4982950000000  0.4797970000000 1.0
END
