TITL C-121984-5539-8 10.7656245451201 125000 -805.761465870793 0 0 115 (C1) n - 1
REM
REM in /rds/project/t2_vol4/rds-t2-cs072/BORA/CARBON/from-Arr/AIRSS/Generating-Clusters/GAP-ML-2020/Only-C1/SD-CG/HFTN-CG
REM
REM
REM
REM
REM
REM ./C.cell (11c1c37f851c82e70ff6c80c92926a4b)
REM AIRSS Version 0.9.1 bugfix July 2018 build 013d7b7c2542+ Fri, 06 Jul 2018 19:26:36 +0100
REM compiler GCC version 9.3.0
REM options -cpp -mtune=generic -march=x86-64 -g -O0
REM seed 91772017 1213145044 -1793817315 1204229401 -1404815297 -1924944424 885202760 -586222213 235543427 1136001214 377958677 604541183 -1803714209 1665093360 1879509216 1531426854 -2015588947 -2049944308 -223001081 -1876046517 -681861743 -1912101230 1355123140 75641512 643948987 -1091444594 2082111692 -1070025233 665629633 1634491939 -194223961 -1683969392 1062001265
REM
CELL 1.54180   50.00000   50.00000   50.00000   90.00000   90.00000   90.00000
LATT -1
SFAC C  
C      1  0.5858460000000  0.5289820000000  0.5285820000000 1.0
C      1  0.4605720000000  0.4352210000000  0.4947160000000 1.0
C      1  0.4485170000000  0.4379390000000  0.5226010000000 1.0
C      1  0.4496870000000  0.4759890000000  0.5680030000000 1.0
C      1  0.4746590000000  0.4394780000000  0.5351830000000 1.0
C      1  0.5138890000000  0.5457300000000  0.4299220000000 1.0
C      1  0.5147440000000  0.5588450000000  0.5830190000000 1.0
C      1  0.5356140000000  0.4709780000000  0.4925550000000 1.0
C      1  0.5497720000000  0.5371480000000  0.5558540000000 1.0
C      1  0.5085040000000  0.4849800000000  0.5247870000000 1.0
C      1  0.4410720000000  0.5665000000000  0.4891980000000 1.0
C      1  0.4160620000000  0.5034710000000  0.4346230000000 1.0
C      1  0.4765080000000  0.5762770000000  0.5465600000000 1.0
C      1  0.4817340000000  0.5135020000000  0.4211080000000 1.0
C      1  0.5278910000000  0.4228440000000  0.5275500000000 1.0
C      1  0.4834630000000  0.5324480000000  0.5714460000000 1.0
C      1  0.4879650000000  0.4378700000000  0.5084850000000 1.0
C      1  0.4314710000000  0.4413410000000  0.4557940000000 1.0
C      1  0.5519620000000  0.4226060000000  0.5123210000000 1.0
C      1  0.5272550000000  0.5147050000000  0.4935480000000 1.0
C      1  0.4691310000000  0.5194990000000  0.5148750000000 1.0
C      1  0.5469040000000  0.4210150000000  0.4833280000000 1.0
C      1  0.5307440000000  0.5040520000000  0.5214220000000 1.0
C      1  0.5063200000000  0.4669600000000  0.5019290000000 1.0
C      1  0.5333630000000  0.5708370000000  0.4661000000000 1.0
C      1  0.5215460000000  0.4404160000000  0.5508500000000 1.0
C      1  0.4072090000000  0.5460550000000  0.5180780000000 1.0
C      1  0.5912980000000  0.5167510000000  0.5036930000000 1.0
C      1  0.4382710000000  0.5430960000000  0.5524380000000 1.0
C      1  0.4690350000000  0.5064990000000  0.5389850000000 1.0
C      1  0.5883580000000  0.4789100000000  0.4767470000000 1.0
C      1  0.4166250000000  0.5021940000000  0.5333910000000 1.0
C      1  0.5871370000000  0.5018580000000  0.4592600000000 1.0
C      1  0.4948990000000  0.5576370000000  0.5592500000000 1.0
C      1  0.4618490000000  0.5012500000000  0.4563220000000 1.0
C      1  0.4910940000000  0.4770690000000  0.4789010000000 1.0
C      1  0.4498420000000  0.5665100000000  0.5410260000000 1.0
C      1  0.5619570000000  0.4618920000000  0.5356760000000 1.0
C      1  0.5553810000000  0.5641430000000  0.4834350000000 1.0
C      1  0.5256000000000  0.5013320000000  0.5858700000000 1.0
C      1  0.5593000000000  0.5357800000000  0.4447840000000 1.0
C      1  0.4687980000000  0.5394550000000  0.4262290000000 1.0
C      1  0.5370750000000  0.5542630000000  0.4422120000000 1.0
C      1  0.5407120000000  0.4750100000000  0.4053830000000 1.0
C      1  0.4877090000000  0.5204640000000  0.4637830000000 1.0
C      1  0.4201910000000  0.4542270000000  0.4789440000000 1.0
C      1  0.4631960000000  0.4852100000000  0.4808970000000 1.0
C      1  0.5249760000000  0.5247830000000  0.5430210000000 1.0
C      1  0.4140710000000  0.4963900000000  0.5051390000000 1.0
C      1  0.5056620000000  0.4236410000000  0.4576580000000 1.0
C      1  0.5667890000000  0.5073210000000  0.4399030000000 1.0
C      1  0.4148710000000  0.4673270000000  0.5027480000000 1.0
C      1  0.5070850000000  0.5180270000000  0.4357010000000 1.0
C      1  0.4556990000000  0.5645380000000  0.4640590000000 1.0
C      1  0.5061770000000  0.4459370000000  0.4159500000000 1.0
C      1  0.5463670000000  0.4536170000000  0.4462560000000 1.0
C      1  0.5730890000000  0.4393770000000  0.5209300000000 1.0
C      1  0.4602340000000  0.4616930000000  0.4235880000000 1.0
C      1  0.5847070000000  0.4504610000000  0.4767080000000 1.0
C      1  0.4600680000000  0.5136810000000  0.6050130000000 1.0
C      1  0.5042910000000  0.5840700000000  0.5033200000000 1.0
C      1  0.4784000000000  0.4244950000000  0.4483450000000 1.0
C      1  0.4484230000000  0.4599000000000  0.4849010000000 1.0
C      1  0.4782200000000  0.4397640000000  0.4233810000000 1.0
C      1  0.4554490000000  0.4268320000000  0.4653590000000 1.0
C      1  0.4741280000000  0.4867880000000  0.4329360000000 1.0
C      1  0.5065960000000  0.5804030000000  0.4743130000000 1.0
C      1  0.4520360000000  0.5775710000000  0.5132350000000 1.0
C      1  0.4805150000000  0.5317430000000  0.6010920000000 1.0
C      1  0.5004070000000  0.4750920000000  0.4504340000000 1.0
C      1  0.4348000000000  0.5174150000000  0.4542260000000 1.0
C      1  0.4520410000000  0.5067780000000  0.4969210000000 1.0
C      1  0.5399920000000  0.5553530000000  0.5751070000000 1.0
C      1  0.5436490000000  0.4606670000000  0.5576370000000 1.0
C      1  0.4516340000000  0.5013760000000  0.5821490000000 1.0
C      1  0.5897830000000  0.5252150000000  0.4766510000000 1.0
C      1  0.5240710000000  0.5696250000000  0.5194240000000 1.0
C      1  0.4479420000000  0.5435530000000  0.4450360000000 1.0
C      1  0.4889150000000  0.5591040000000  0.4323350000000 1.0
C      1  0.5481040000000  0.4829760000000  0.4325900000000 1.0
C      1  0.4771880000000  0.4663270000000  0.5604230000000 1.0
C      1  0.5090240000000  0.5475960000000  0.5328940000000 1.0
C      1  0.4832420000000  0.5737650000000  0.4566250000000 1.0
C      1  0.4145860000000  0.4791710000000  0.4272400000000 1.0
C      1  0.4914470000000  0.4904010000000  0.5481240000000 1.0
C      1  0.4272800000000  0.4574840000000  0.5272880000000 1.0
C      1  0.5236440000000  0.4571960000000  0.3976160000000 1.0
C      1  0.4263350000000  0.5182320000000  0.4848120000000 1.0
C      1  0.5259200000000  0.5185860000000  0.6068870000000 1.0
C      1  0.5080870000000  0.4169610000000  0.5075680000000 1.0
C      1  0.5815610000000  0.4903670000000  0.5022120000000 1.0
C      1  0.5920210000000  0.4400510000000  0.5016280000000 1.0
C      1  0.5063520000000  0.5116770000000  0.5642720000000 1.0
C      1  0.5856310000000  0.5091030000000  0.5490410000000 1.0
C      1  0.5544960000000  0.4822900000000  0.5152110000000 1.0
C      1  0.5615660000000  0.4383750000000  0.4647810000000 1.0
C      1  0.5723130000000  0.5456720000000  0.4680610000000 1.0
C      1  0.4926190000000  0.4423760000000  0.5565830000000 1.0
C      1  0.5073700000000  0.5399630000000  0.6050590000000 1.0
C      1  0.4329120000000  0.4578570000000  0.4321440000000 1.0
C      1  0.5194090000000  0.4149010000000  0.4808060000000 1.0
C      1  0.5346190000000  0.4946110000000  0.4753750000000 1.0
C      1  0.4210080000000  0.5457520000000  0.4950870000000 1.0
C      1  0.4575080000000  0.5221850000000  0.5616270000000 1.0
C      1  0.4799910000000  0.5856410000000  0.5190310000000 1.0
C      1  0.5456810000000  0.4861320000000  0.5717260000000 1.0
C      1  0.5512420000000  0.5640150000000  0.5125720000000 1.0
C      1  0.5176490000000  0.4469510000000  0.4436610000000 1.0
C      1  0.4898710000000  0.5367780000000  0.5098850000000 1.0
C      1  0.4288440000000  0.4780640000000  0.5466960000000 1.0
C      1  0.5230910000000  0.4944360000000  0.4468270000000 1.0
C      1  0.5023410000000  0.5258260000000  0.4875300000000 1.0
C      1  0.4164480000000  0.5306890000000  0.5389580000000 1.0
C      1  0.5652750000000  0.5481840000000  0.5324660000000 1.0
C      1  0.5635080000000  0.5076350000000  0.5635590000000 1.0
END
