TITL C-125557-2240-8 -527.663534036364 125000 -913.43740742542 0 0 130 (C1) n - 1
REM
REM in /rds/project/t2_vol4/rds-t2-cs072/BORA/CARBON/from-Arr/AIRSS/Generating-Clusters/GAP-ML-2020/Only-C1/SD-CG/HFTN-CG
REM
REM
REM
REM
REM
REM ./C.cell (11c1c37f851c82e70ff6c80c92926a4b)
REM AIRSS Version 0.9.1 bugfix July 2018 build 013d7b7c2542+ Fri, 06 Jul 2018 19:26:36 +0100
REM compiler GCC version 9.3.0
REM options -cpp -mtune=generic -march=x86-64 -g -O0
REM seed -2079174050 -560037523 1297761501 679591504 -219499023 -362113457 -1968233464 1148265331 1501279799 -309859547 -2071831841 -1700674196 -217870426 -1358858118 1240482998 316197963 -1683989286 -1820368340 -1747557370 -1579828394 301350505 -1439780556 -2068239164 -1021183786 1400706547 -171641218 936298242 435480485 1421053942 -1645865539 -317783604 -1186338865 1452248017
REM
CELL 1.54180   50.00000   50.00000   50.00000   90.00000   90.00000   90.00000
LATT -1
SFAC C  
C      1  0.5192390000000  0.4376660000000  0.5601810000000 1.0
C      1  0.5277500000000  0.5675160000000  0.5424270000000 1.0
C      1  0.5809000000000  0.5431060000000  0.5234060000000 1.0
C      1  0.5583550000000  0.5236300000000  0.4300010000000 1.0
C      1  0.4685060000000  0.5349450000000  0.4612640000000 1.0
C      1  0.5131740000000  0.5150050000000  0.5882980000000 1.0
C      1  0.4245690000000  0.5332940000000  0.4495710000000 1.0
C      1  0.4667610000000  0.5048660000000  0.4932840000000 1.0
C      1  0.4379760000000  0.4894880000000  0.5803240000000 1.0
C      1  0.5201650000000  0.4961840000000  0.4899980000000 1.0
C      1  0.5362030000000  0.5722850000000  0.4497920000000 1.0
C      1  0.4121200000000  0.4940220000000  0.4853060000000 1.0
C      1  0.3980540000000  0.4821780000000  0.5448570000000 1.0
C      1  0.5280070000000  0.4555770000000  0.4320930000000 1.0
C      1  0.4822820000000  0.5511120000000  0.5734790000000 1.0
C      1  0.4821810000000  0.5666320000000  0.5499540000000 1.0
C      1  0.6075720000000  0.4773320000000  0.5091810000000 1.0
C      1  0.4500200000000  0.4156600000000  0.4624500000000 1.0
C      1  0.5520290000000  0.5295320000000  0.5656570000000 1.0
C      1  0.4793710000000  0.4944150000000  0.5417720000000 1.0
C      1  0.5894800000000  0.5046900000000  0.5466090000000 1.0
C      1  0.5992550000000  0.4306050000000  0.5120750000000 1.0
C      1  0.4725970000000  0.5666010000000  0.4390300000000 1.0
C      1  0.5053230000000  0.4980710000000  0.4528070000000 1.0
C      1  0.4331410000000  0.5421840000000  0.5647660000000 1.0
C      1  0.4198290000000  0.5173530000000  0.5603630000000 1.0
C      1  0.4753730000000  0.4581510000000  0.5774720000000 1.0
C      1  0.5000900000000  0.5760480000000  0.5058590000000 1.0
C      1  0.5822270000000  0.4288620000000  0.4914060000000 1.0
C      1  0.4566020000000  0.5886390000000  0.5126940000000 1.0
C      1  0.5169720000000  0.4798890000000  0.5169150000000 1.0
C      1  0.3851670000000  0.4965950000000  0.5256360000000 1.0
C      1  0.6026840000000  0.4733380000000  0.4816480000000 1.0
C      1  0.4992070000000  0.4262250000000  0.5178070000000 1.0
C      1  0.5940410000000  0.4949070000000  0.4650490000000 1.0
C      1  0.5358490000000  0.5319770000000  0.5084310000000 1.0
C      1  0.4042100000000  0.5334720000000  0.4953780000000 1.0
C      1  0.5527280000000  0.4804900000000  0.5729510000000 1.0
C      1  0.4826360000000  0.4622730000000  0.4830000000000 1.0
C      1  0.4675640000000  0.4713680000000  0.5278870000000 1.0
C      1  0.4576410000000  0.5372720000000  0.5800520000000 1.0
C      1  0.4370720000000  0.5809570000000  0.5308710000000 1.0
C      1  0.5602730000000  0.4951380000000  0.4260920000000 1.0
C      1  0.5854020000000  0.4571380000000  0.5477890000000 1.0
C      1  0.4966000000000  0.5160200000000  0.4922970000000 1.0
C      1  0.4539020000000  0.5427510000000  0.4365490000000 1.0
C      1  0.4226700000000  0.4476890000000  0.4830440000000 1.0
C      1  0.4085330000000  0.5428020000000  0.4690730000000 1.0
C      1  0.5587730000000  0.4664610000000  0.5033900000000 1.0
C      1  0.5438700000000  0.5799100000000  0.5232540000000 1.0
C      1  0.4635370000000  0.5492190000000  0.4866380000000 1.0
C      1  0.5451020000000  0.5556150000000  0.4925620000000 1.0
C      1  0.5367000000000  0.5373560000000  0.4167700000000 1.0
C      1  0.5077480000000  0.4533010000000  0.5004760000000 1.0
C      1  0.5090010000000  0.5417280000000  0.5792950000000 1.0
C      1  0.5369020000000  0.4468700000000  0.4872710000000 1.0
C      1  0.4667680000000  0.5250120000000  0.4145840000000 1.0
C      1  0.4601530000000  0.4866690000000  0.4432220000000 1.0
C      1  0.5535870000000  0.5556330000000  0.4644600000000 1.0
C      1  0.4276530000000  0.5550800000000  0.5392250000000 1.0
C      1  0.4910590000000  0.4392520000000  0.5643570000000 1.0
C      1  0.4557040000000  0.5083000000000  0.4657450000000 1.0
C      1  0.3925000000000  0.5070390000000  0.5012710000000 1.0
C      1  0.5229220000000  0.5902690000000  0.4680780000000 1.0
C      1  0.4973110000000  0.5235180000000  0.4641610000000 1.0
C      1  0.4912410000000  0.5367860000000  0.4068640000000 1.0
C      1  0.4982130000000  0.4157100000000  0.4488580000000 1.0
C      1  0.4254300000000  0.5038010000000  0.4609050000000 1.0
C      1  0.4953710000000  0.5605460000000  0.4216580000000 1.0
C      1  0.4773120000000  0.5848950000000  0.4616000000000 1.0
C      1  0.5082860000000  0.4324530000000  0.4300910000000 1.0
C      1  0.4637960000000  0.5855680000000  0.5396090000000 1.0
C      1  0.4795150000000  0.4108380000000  0.4686040000000 1.0
C      1  0.5432870000000  0.4527370000000  0.5663390000000 1.0
C      1  0.5454170000000  0.5073170000000  0.4998110000000 1.0
C      1  0.5321790000000  0.5504210000000  0.5645420000000 1.0
C      1  0.4605560000000  0.5154740000000  0.5339760000000 1.0
C      1  0.5290090000000  0.4882920000000  0.4644700000000 1.0
C      1  0.5499720000000  0.4239450000000  0.5274580000000 1.0
C      1  0.5401280000000  0.5060890000000  0.5786360000000 1.0
C      1  0.5886950000000  0.4496000000000  0.4731010000000 1.0
C      1  0.4800700000000  0.4272290000000  0.5416540000000 1.0
C      1  0.5233550000000  0.4232230000000  0.5353550000000 1.0
C      1  0.5794470000000  0.4817120000000  0.5603200000000 1.0
C      1  0.4803210000000  0.4122390000000  0.4982900000000 1.0
C      1  0.4920210000000  0.4812250000000  0.4094170000000 1.0
C      1  0.5242320000000  0.5616130000000  0.4265880000000 1.0
C      1  0.4969330000000  0.4599310000000  0.4295090000000 1.0
C      1  0.5166680000000  0.4940390000000  0.4031440000000 1.0
C      1  0.4268480000000  0.4720580000000  0.4990800000000 1.0
C      1  0.5928610000000  0.5247960000000  0.5038720000000 1.0
C      1  0.4370910000000  0.4310160000000  0.4430950000000 1.0
C      1  0.4847620000000  0.4727030000000  0.4545220000000 1.0
C      1  0.5260850000000  0.5800100000000  0.4958440000000 1.0
C      1  0.5755450000000  0.5290850000000  0.5485490000000 1.0
C      1  0.5379410000000  0.4796400000000  0.4162360000000 1.0
C      1  0.5881500000000  0.5210950000000  0.4740610000000 1.0
C      1  0.5694030000000  0.5343390000000  0.4552710000000 1.0
C      1  0.4240790000000  0.4531910000000  0.4540750000000 1.0
C      1  0.4102970000000  0.4941330000000  0.5711760000000 1.0
C      1  0.4621350000000  0.4760790000000  0.4998500000000 1.0
C      1  0.6022270000000  0.4542510000000  0.5252490000000 1.0
C      1  0.4315820000000  0.4788260000000  0.4456810000000 1.0
C      1  0.5050560000000  0.5022310000000  0.5322560000000 1.0
C      1  0.5457560000000  0.4853580000000  0.5179350000000 1.0
C      1  0.5782850000000  0.4830660000000  0.4439510000000 1.0
C      1  0.5407870000000  0.4590670000000  0.4595930000000 1.0
C      1  0.5077610000000  0.5288070000000  0.5177280000000 1.0
C      1  0.4538290000000  0.4183060000000  0.5085990000000 1.0
C      1  0.5628030000000  0.4402570000000  0.5489860000000 1.0
C      1  0.4555270000000  0.5291010000000  0.5071030000000 1.0
C      1  0.5653930000000  0.5643500000000  0.5135620000000 1.0
C      1  0.4990300000000  0.6015390000000  0.4606260000000 1.0
C      1  0.5702260000000  0.4583640000000  0.4543010000000 1.0
C      1  0.4599850000000  0.5100530000000  0.5889120000000 1.0
C      1  0.4532690000000  0.4314680000000  0.5336900000000 1.0
C      1  0.4440360000000  0.4590450000000  0.5424000000000 1.0
C      1  0.6014300000000  0.5024970000000  0.5198860000000 1.0
C      1  0.4696280000000  0.4969190000000  0.4171860000000 1.0
C      1  0.4234250000000  0.4765980000000  0.5294890000000 1.0
C      1  0.4367290000000  0.4233280000000  0.4871490000000 1.0
C      1  0.4256660000000  0.5343620000000  0.5173370000000 1.0
C      1  0.5162250000000  0.5225200000000  0.4031510000000 1.0
C      1  0.4854960000000  0.4831280000000  0.5711940000000 1.0
C      1  0.4490510000000  0.4649250000000  0.5708610000000 1.0
C      1  0.4734830000000  0.5762160000000  0.4911490000000 1.0
C      1  0.4310710000000  0.5086670000000  0.5343880000000 1.0
C      1  0.5017830000000  0.5593520000000  0.5295370000000 1.0
C      1  0.4880410000000  0.5015110000000  0.5915920000000 1.0
C      1  0.5541780000000  0.4248820000000  0.4984790000000 1.0
END
