TITL C-125564-2252-9 -0.0246572907448993 125000 -90.8379649200358 0 0 15 (C1) n - 1
REM
REM in /rds/project/t2_vol4/rds-t2-cs072/BORA/CARBON/from-Arr/AIRSS/Generating-Clusters/GAP-ML-2020/Only-C1/SD-CG/HFTN-CG
REM
REM
REM
REM
REM
REM ./C.cell (11c1c37f851c82e70ff6c80c92926a4b)
REM AIRSS Version 0.9.1 bugfix July 2018 build 013d7b7c2542+ Fri, 06 Jul 2018 19:26:36 +0100
REM compiler GCC version 9.3.0
REM options -cpp -mtune=generic -march=x86-64 -g -O0
REM seed 946887 -140652806 -1133280417 -100537516 -409292377 -1602468442 -1017782363 142353258 -1926590715 -1248995867 -192110393 -1240499169 -210173997 -1950245901 -1814123182 373990742 1733588574 -1810496121 1467586229 1049975740 377780919 -2121298209 844135114 1789334745 111608116 197087415 -1376190978 -265487747 1330187094 2241729 2106835660 -1867428776 1789124437
REM
CELL 1.54180   50.00000   50.00000   50.00000   90.00000   90.00000   90.00000
LATT -1
SFAC C  
C      1  0.5196300000000  0.5201580000000  0.5231430000000 1.0
C      1  0.4517790000000  0.4973080000000  0.5249760000000 1.0
C      1  0.4752250000000  0.5420090000000  0.4694000000000 1.0
C      1  0.5099030000000  0.4870800000000  0.4876390000000 1.0
C      1  0.5505060000000  0.4734570000000  0.5167650000000 1.0
C      1  0.5428670000000  0.5227520000000  0.5319910000000 1.0
C      1  0.4824920000000  0.5276840000000  0.4910080000000 1.0
C      1  0.5610340000000  0.4886960000000  0.4973240000000 1.0
C      1  0.4778910000000  0.4964090000000  0.5195900000000 1.0
C      1  0.4657970000000  0.5150550000000  0.4721930000000 1.0
C      1  0.4653840000000  0.4750690000000  0.5336240000000 1.0
C      1  0.4933570000000  0.4779840000000  0.4674450000000 1.0
C      1  0.5344350000000  0.4774170000000  0.4919810000000 1.0
C      1  0.4990050000000  0.5089450000000  0.5059880000000 1.0
C      1  0.4706950000000  0.4899780000000  0.4669320000000 1.0
END
