TITL C-121982-4448-5 -209.292160655199 125000 -555.396441570165 0 0 79 (C1) n - 1
REM
REM in /rds/project/t2_vol4/rds-t2-cs072/BORA/CARBON/from-Arr/AIRSS/Generating-Clusters/GAP-ML-2020/Only-C1/SD-CG/HFTN-CG
REM
REM
REM
REM
REM
REM ./C.cell (11c1c37f851c82e70ff6c80c92926a4b)
REM AIRSS Version 0.9.1 bugfix July 2018 build 013d7b7c2542+ Fri, 06 Jul 2018 19:26:36 +0100
REM compiler GCC version 9.3.0
REM options -cpp -mtune=generic -march=x86-64 -g -O0
REM seed -313315357 -1753164575 607108918 1792283243 1090053309 941858223 -2027966275 -2055776832 -849880942 -359252482 -1952564065 -1309204711 -240038942 1863519591 166357517 158936371 509989624 -777807315 999044737 -767033556 -2093963182 -2141084560 -833597731 1657027748 -2139585358 1189031261 -1564616361 351842240 596724676 -223626162 1733395978 -1854317213 -1414297595
REM
CELL 1.54180   50.00000   50.00000   50.00000   90.00000   90.00000   90.00000
LATT -1
SFAC C  
C      1  0.4435150000000  0.4711890000000  0.5194380000000 1.0
C      1  0.5703780000000  0.5198710000000  0.4646020000000 1.0
C      1  0.5485660000000  0.4780100000000  0.5555510000000 1.0
C      1  0.4461340000000  0.4978180000000  0.5028840000000 1.0
C      1  0.5170140000000  0.4595000000000  0.4352020000000 1.0
C      1  0.4835590000000  0.5240630000000  0.4226570000000 1.0
C      1  0.4313390000000  0.5039110000000  0.4530430000000 1.0
C      1  0.5719870000000  0.5325250000000  0.5110400000000 1.0
C      1  0.4122690000000  0.4906540000000  0.5541620000000 1.0
C      1  0.5867470000000  0.5090530000000  0.5061600000000 1.0
C      1  0.4488160000000  0.4477090000000  0.5012240000000 1.0
C      1  0.4552220000000  0.5193150000000  0.5501460000000 1.0
C      1  0.5357840000000  0.5007660000000  0.4328150000000 1.0
C      1  0.4585890000000  0.5430950000000  0.4570010000000 1.0
C      1  0.4412160000000  0.5537930000000  0.4817240000000 1.0
C      1  0.4197390000000  0.5359550000000  0.4833330000000 1.0
C      1  0.5082700000000  0.5478250000000  0.4537210000000 1.0
C      1  0.5654630000000  0.5412260000000  0.4840140000000 1.0
C      1  0.4939000000000  0.4270840000000  0.4921460000000 1.0
C      1  0.5216150000000  0.4331700000000  0.4987930000000 1.0
C      1  0.5340890000000  0.4402130000000  0.4731300000000 1.0
C      1  0.4776920000000  0.5371130000000  0.5013620000000 1.0
C      1  0.4658080000000  0.5148570000000  0.5215300000000 1.0
C      1  0.4877380000000  0.4985310000000  0.5789630000000 1.0
C      1  0.4263440000000  0.5085500000000  0.4816280000000 1.0
C      1  0.5294850000000  0.4414580000000  0.5258640000000 1.0
C      1  0.5065740000000  0.4412380000000  0.5434870000000 1.0
C      1  0.4719910000000  0.4324410000000  0.5092800000000 1.0
C      1  0.4688180000000  0.4679410000000  0.4364400000000 1.0
C      1  0.4569410000000  0.5601440000000  0.5052460000000 1.0
C      1  0.5332820000000  0.5182000000000  0.5753900000000 1.0
C      1  0.4695300000000  0.4696980000000  0.5385010000000 1.0
C      1  0.4747700000000  0.5222010000000  0.4744470000000 1.0
C      1  0.5352660000000  0.5031860000000  0.4943810000000 1.0
C      1  0.4320730000000  0.5078100000000  0.5558490000000 1.0
C      1  0.4908010000000  0.4848030000000  0.4941390000000 1.0
C      1  0.4870300000000  0.4928140000000  0.5228470000000 1.0
C      1  0.4802310000000  0.4427490000000  0.5334900000000 1.0
C      1  0.4918950000000  0.5456000000000  0.5671770000000 1.0
C      1  0.5369460000000  0.5466170000000  0.4465150000000 1.0
C      1  0.5513060000000  0.5220770000000  0.4429590000000 1.0
C      1  0.5166270000000  0.5604230000000  0.4794730000000 1.0
C      1  0.5035920000000  0.5537170000000  0.5027950000000 1.0
C      1  0.4669560000000  0.4949850000000  0.4825390000000 1.0
C      1  0.5127080000000  0.4971150000000  0.4810010000000 1.0
C      1  0.5717310000000  0.4675650000000  0.5134920000000 1.0
C      1  0.5312310000000  0.5114700000000  0.5194700000000 1.0
C      1  0.4757060000000  0.5227230000000  0.5701290000000 1.0
C      1  0.5012960000000  0.5168720000000  0.4617370000000 1.0
C      1  0.4404860000000  0.5276860000000  0.4399210000000 1.0
C      1  0.4807440000000  0.4731470000000  0.5666660000000 1.0
C      1  0.4952710000000  0.4759820000000  0.4293790000000 1.0
C      1  0.5518650000000  0.4589410000000  0.5331050000000 1.0
C      1  0.5270960000000  0.4733710000000  0.5737050000000 1.0
C      1  0.5514180000000  0.5295730000000  0.5334530000000 1.0
C      1  0.5159750000000  0.4980300000000  0.5840270000000 1.0
C      1  0.5717220000000  0.4718770000000  0.4831270000000 1.0
C      1  0.4196180000000  0.4740800000000  0.5354730000000 1.0
C      1  0.4626960000000  0.5714990000000  0.5298760000000 1.0
C      1  0.5876750000000  0.4881140000000  0.5234670000000 1.0
C      1  0.4495270000000  0.4886770000000  0.4342510000000 1.0
C      1  0.5528730000000  0.5083070000000  0.5567000000000 1.0
C      1  0.5538210000000  0.4600960000000  0.4642530000000 1.0
C      1  0.4654540000000  0.4467480000000  0.4557160000000 1.0
C      1  0.4826560000000  0.5484750000000  0.4389340000000 1.0
C      1  0.5208700000000  0.5423860000000  0.5681010000000 1.0
C      1  0.5050520000000  0.4580320000000  0.5659220000000 1.0
C      1  0.5446280000000  0.5573000000000  0.4726790000000 1.0
C      1  0.5136010000000  0.4388590000000  0.4534390000000 1.0
C      1  0.4582960000000  0.5129960000000  0.4218160000000 1.0
C      1  0.4458850000000  0.4499470000000  0.4744640000000 1.0
C      1  0.5045330000000  0.5041760000000  0.4315800000000 1.0
C      1  0.5099600000000  0.5614050000000  0.5290640000000 1.0
C      1  0.4854300000000  0.5631670000000  0.5441840000000 1.0
C      1  0.5322220000000  0.5508690000000  0.5441070000000 1.0
C      1  0.4887660000000  0.4328490000000  0.4646830000000 1.0
C      1  0.5817320000000  0.4983720000000  0.4795120000000 1.0
C      1  0.5104130000000  0.5016160000000  0.5344880000000 1.0
C      1  0.5411390000000  0.4737790000000  0.4409920000000 1.0
END
