TITL C-120595-4529-6 -121.836765217531 125000 -244.878832366474 0 0 37 (C1) n - 1
REM
REM in /rds/project/t2_vol4/rds-t2-cs072/BORA/CARBON/from-Arr/AIRSS/Generating-Clusters/GAP-ML-2020/Only-C1/SD-CG/HFTN-CG
REM
REM
REM
REM
REM
REM ./C.cell (11c1c37f851c82e70ff6c80c92926a4b)
REM AIRSS Version 0.9.1 bugfix July 2018 build 013d7b7c2542+ Fri, 06 Jul 2018 19:26:36 +0100
REM compiler GCC version 9.3.0
REM options -cpp -mtune=generic -march=x86-64 -g -O0
REM seed 110849797 -1132237634 260970949 320400622 352136892 1743948385 1683600892 -1930289251 -696032608 -494170265 2133728491 -295208103 -198254770 -1907630272 -453875269 1654198634 -2118278783 -592597224 -255470176 -1252021047 567187984 -2107534056 1111739320 -707654350 116164807 -1889774709 -184057994 -2105105383 1751970232 -672865357 -524698316 -1231408493 113112743
REM
CELL 1.54180   50.00000   50.00000   50.00000   90.00000   90.00000   90.00000
LATT -1
SFAC C  
C      1  0.5257470000000  0.4505720000000  0.5083220000000 1.0
C      1  0.5330100000000  0.5328470000000  0.5253000000000 1.0
C      1  0.4624330000000  0.4967060000000  0.5398080000000 1.0
C      1  0.4830530000000  0.5672950000000  0.5031160000000 1.0
C      1  0.5503000000000  0.5068090000000  0.4998270000000 1.0
C      1  0.4964640000000  0.4442280000000  0.5098390000000 1.0
C      1  0.4782740000000  0.4784590000000  0.5005510000000 1.0
C      1  0.4839770000000  0.5421920000000  0.5190850000000 1.0
C      1  0.5379030000000  0.5328530000000  0.4968150000000 1.0
C      1  0.4535370000000  0.4848940000000  0.5147190000000 1.0
C      1  0.5504460000000  0.4873260000000  0.4809560000000 1.0
C      1  0.5065160000000  0.4960760000000  0.5580740000000 1.0
C      1  0.5445140000000  0.5065380000000  0.5283690000000 1.0
C      1  0.4959890000000  0.4554350000000  0.5375490000000 1.0
C      1  0.4995310000000  0.4968390000000  0.5062940000000 1.0
C      1  0.4975070000000  0.5226680000000  0.5547300000000 1.0
C      1  0.4922190000000  0.4631230000000  0.4618920000000 1.0
C      1  0.4705550000000  0.5240130000000  0.4721400000000 1.0
C      1  0.5354570000000  0.4630640000000  0.4862990000000 1.0
C      1  0.5144290000000  0.5372030000000  0.4804330000000 1.0
C      1  0.4479510000000  0.4861970000000  0.4631930000000 1.0
C      1  0.4390450000000  0.4907050000000  0.4909380000000 1.0
C      1  0.4846020000000  0.4786450000000  0.5502980000000 1.0
C      1  0.4714370000000  0.5242460000000  0.5425590000000 1.0
C      1  0.4443300000000  0.5124840000000  0.4727020000000 1.0
C      1  0.5094690000000  0.5403810000000  0.5362700000000 1.0
C      1  0.5249110000000  0.4614960000000  0.5347790000000 1.0
C      1  0.4750410000000  0.4838530000000  0.4510400000000 1.0
C      1  0.5018330000000  0.5641500000000  0.4849600000000 1.0
C      1  0.4900890000000  0.5235030000000  0.4961300000000 1.0
C      1  0.5337560000000  0.5129460000000  0.4380380000000 1.0
C      1  0.5308150000000  0.4874930000000  0.5441450000000 1.0
C      1  0.4821040000000  0.4529310000000  0.4875540000000 1.0
C      1  0.5123490000000  0.5215580000000  0.4544310000000 1.0
C      1  0.4854460000000  0.5109380000000  0.4518900000000 1.0
C      1  0.5197240000000  0.4673380000000  0.4616770000000 1.0
C      1  0.5352380000000  0.4920000000000  0.4552780000000 1.0
END
