TITL C-125553-2278-11 0.0400103104972067 125000 -327.99462331704 0 0 49 (C1) n - 1
REM
REM in /rds/project/t2_vol4/rds-t2-cs072/BORA/CARBON/from-Arr/AIRSS/Generating-Clusters/GAP-ML-2020/Only-C1/SD-CG/HFTN-CG
REM
REM
REM
REM
REM
REM ./C.cell (11c1c37f851c82e70ff6c80c92926a4b)
REM AIRSS Version 0.9.1 bugfix July 2018 build 013d7b7c2542+ Fri, 06 Jul 2018 19:26:36 +0100
REM compiler GCC version 9.3.0
REM options -cpp -mtune=generic -march=x86-64 -g -O0
REM seed -1712971985 -665737303 -985171301 1154442 303341359 -1483000262 1455385657 -775557838 -53490728 313890627 767337269 -1551026914 -1491021722 -1987407765 1749860603 -324283354 -1572871370 523471222 -1551587268 -438386387 -1160468880 1040446339 952993223 910323341 405398567 1999991177 -2037229484 606914129 -325776078 -824147142 -718005511 -299441752 413629982
REM
CELL 1.54180   50.00000   50.00000   50.00000   90.00000   90.00000   90.00000
LATT -1
SFAC C  
C      1  0.5357170000000  0.4986900000000  0.5447320000000 1.0
C      1  0.5149030000000  0.5222440000000  0.5085460000000 1.0
C      1  0.4768900000000  0.5162670000000  0.4823420000000 1.0
C      1  0.4455730000000  0.5051420000000  0.5422680000000 1.0
C      1  0.4833130000000  0.4303700000000  0.5176260000000 1.0
C      1  0.4897430000000  0.5706180000000  0.5049690000000 1.0
C      1  0.5073120000000  0.5233280000000  0.4393140000000 1.0
C      1  0.4889140000000  0.4583630000000  0.4674840000000 1.0
C      1  0.5233470000000  0.5456570000000  0.5239080000000 1.0
C      1  0.4601120000000  0.4927590000000  0.4521320000000 1.0
C      1  0.5241300000000  0.5254840000000  0.5466860000000 1.0
C      1  0.4364400000000  0.4976530000000  0.4965410000000 1.0
C      1  0.4825920000000  0.4891160000000  0.4951230000000 1.0
C      1  0.5484970000000  0.5381180000000  0.4787090000000 1.0
C      1  0.4637290000000  0.4852390000000  0.5520370000000 1.0
C      1  0.5263920000000  0.4967190000000  0.5089970000000 1.0
C      1  0.4658420000000  0.4626890000000  0.4855710000000 1.0
C      1  0.5030130000000  0.5283930000000  0.4840470000000 1.0
C      1  0.4937290000000  0.5609890000000  0.4568010000000 1.0
C      1  0.5337760000000  0.5558940000000  0.4959960000000 1.0
C      1  0.5229970000000  0.4535280000000  0.5418660000000 1.0
C      1  0.5088770000000  0.4336430000000  0.5248940000000 1.0
C      1  0.5280340000000  0.4412520000000  0.5029860000000 1.0
C      1  0.5265070000000  0.5223730000000  0.4629060000000 1.0
C      1  0.4511960000000  0.4658980000000  0.5315040000000 1.0
C      1  0.4962090000000  0.5583750000000  0.5274710000000 1.0
C      1  0.4337680000000  0.4865550000000  0.5221260000000 1.0
C      1  0.5305310000000  0.4937020000000  0.4543040000000 1.0
C      1  0.4971070000000  0.5217040000000  0.5550910000000 1.0
C      1  0.5676900000000  0.5210460000000  0.4870520000000 1.0
C      1  0.5654700000000  0.4949070000000  0.4966450000000 1.0
C      1  0.5169890000000  0.4792290000000  0.5542530000000 1.0
C      1  0.4635560000000  0.4482130000000  0.5115630000000 1.0
C      1  0.4650330000000  0.5199720000000  0.4545990000000 1.0
C      1  0.5611780000000  0.4756100000000  0.4777170000000 1.0
C      1  0.4910120000000  0.4933560000000  0.5586670000000 1.0
C      1  0.4455040000000  0.4802220000000  0.4744540000000 1.0
C      1  0.4571630000000  0.5269240000000  0.5287780000000 1.0
C      1  0.5507120000000  0.4856400000000  0.5216220000000 1.0
C      1  0.5156180000000  0.4569180000000  0.4816720000000 1.0
C      1  0.5047600000000  0.5601590000000  0.4824510000000 1.0
C      1  0.4795120000000  0.5396580000000  0.5412130000000 1.0
C      1  0.4841000000000  0.5387460000000  0.4423740000000 1.0
C      1  0.4536480000000  0.5209340000000  0.5007170000000 1.0
C      1  0.5064360000000  0.4783230000000  0.5031780000000 1.0
C      1  0.5437720000000  0.4571790000000  0.5222460000000 1.0
C      1  0.5373920000000  0.4700420000000  0.4671440000000 1.0
C      1  0.4849930000000  0.4776420000000  0.4471970000000 1.0
C      1  0.5062730000000  0.4945190000000  0.4394800000000 1.0
END
