TITL C-121984-5539-7 185.350522282829 125000 -963.676457767658 0 0 135 (C1) n - 1
REM
REM in /rds/project/t2_vol4/rds-t2-cs072/BORA/CARBON/from-Arr/AIRSS/Generating-Clusters/GAP-ML-2020/Only-C1/SD-CG/HFTN-CG
REM
REM
REM
REM
REM
REM ./C.cell (11c1c37f851c82e70ff6c80c92926a4b)
REM AIRSS Version 0.9.1 bugfix July 2018 build 013d7b7c2542+ Fri, 06 Jul 2018 19:26:36 +0100
REM compiler GCC version 9.3.0
REM options -cpp -mtune=generic -march=x86-64 -g -O0
REM seed 1802902205 663398691 956154283 -1100642434 -1262741335 449202859 1768090999 1693387187 356761454 -538081844 733731651 -1130021733 545789901 2127134703 1397416218 1212535219 -1711450574 -1135554219 1052167970 -693365668 -37497486 13807192 446527887 -1221039497 -1359059049 -1746809819 -638525581 -3238989 -331140030 -631625430 1707418375 -129041299 -2077576474
REM
CELL 1.54180   50.00000   50.00000   50.00000   90.00000   90.00000   90.00000
LATT -1
SFAC C  
C      1  0.4935090000000  0.5500880000000  0.5864050000000 1.0
C      1  0.4844920000000  0.5085600000000  0.4172040000000 1.0
C      1  0.5102810000000  0.5267900000000  0.5220760000000 1.0
C      1  0.4895060000000  0.6023110000000  0.5041890000000 1.0
C      1  0.5418950000000  0.4134410000000  0.4685540000000 1.0
C      1  0.5227690000000  0.5158360000000  0.5462670000000 1.0
C      1  0.4524570000000  0.5245560000000  0.4860970000000 1.0
C      1  0.5089050000000  0.5938550000000  0.5238380000000 1.0
C      1  0.4062050000000  0.4776170000000  0.5079000000000 1.0
C      1  0.4962630000000  0.4532290000000  0.4139230000000 1.0
C      1  0.4110410000000  0.5458140000000  0.5011080000000 1.0
C      1  0.4766620000000  0.4160850000000  0.5341630000000 1.0
C      1  0.5387390000000  0.5762700000000  0.4604690000000 1.0
C      1  0.4629570000000  0.5933700000000  0.5004390000000 1.0
C      1  0.4958650000000  0.4974210000000  0.4815940000000 1.0
C      1  0.4255070000000  0.5252610000000  0.5646380000000 1.0
C      1  0.4706420000000  0.4626280000000  0.4229500000000 1.0
C      1  0.4369450000000  0.4443950000000  0.4498570000000 1.0
C      1  0.5286040000000  0.5938880000000  0.4805220000000 1.0
C      1  0.5359990000000  0.4765180000000  0.5712820000000 1.0
C      1  0.4272600000000  0.5073530000000  0.4450270000000 1.0
C      1  0.4451140000000  0.4491710000000  0.5609920000000 1.0
C      1  0.5601520000000  0.4953000000000  0.5625110000000 1.0
C      1  0.5629630000000  0.5459250000000  0.4376870000000 1.0
C      1  0.4946780000000  0.5451670000000  0.4840670000000 1.0
C      1  0.4711410000000  0.5526890000000  0.4360450000000 1.0
C      1  0.5067620000000  0.4582290000000  0.5077560000000 1.0
C      1  0.5127760000000  0.5485390000000  0.5043850000000 1.0
C      1  0.4403200000000  0.4602960000000  0.4266430000000 1.0
C      1  0.5199600000000  0.4838430000000  0.5964660000000 1.0
C      1  0.5768330000000  0.4501440000000  0.4604580000000 1.0
C      1  0.5366560000000  0.5462490000000  0.4252100000000 1.0
C      1  0.5889930000000  0.5186810000000  0.4832140000000 1.0
C      1  0.5820520000000  0.4489800000000  0.4882500000000 1.0
C      1  0.4674210000000  0.5477230000000  0.4906840000000 1.0
C      1  0.4127440000000  0.4889550000000  0.4635560000000 1.0
C      1  0.5620810000000  0.4795840000000  0.4245730000000 1.0
C      1  0.4284420000000  0.5568770000000  0.5218970000000 1.0
C      1  0.4568620000000  0.5919160000000  0.4719200000000 1.0
C      1  0.5351310000000  0.4459990000000  0.5678520000000 1.0
C      1  0.5171140000000  0.5025140000000  0.5035870000000 1.0
C      1  0.5867160000000  0.5041590000000  0.4557310000000 1.0
C      1  0.4167070000000  0.4993500000000  0.5531090000000 1.0
C      1  0.5156710000000  0.4870410000000  0.5478670000000 1.0
C      1  0.5516880000000  0.4111760000000  0.4950830000000 1.0
C      1  0.4798700000000  0.4093320000000  0.5063280000000 1.0
C      1  0.4644820000000  0.4897160000000  0.4136850000000 1.0
C      1  0.4357190000000  0.5742520000000  0.4638050000000 1.0
C      1  0.4222220000000  0.4556690000000  0.4981200000000 1.0
C      1  0.5051450000000  0.4014150000000  0.4954220000000 1.0
C      1  0.5109970000000  0.5020090000000  0.4092050000000 1.0
C      1  0.4844510000000  0.5324050000000  0.5364480000000 1.0
C      1  0.5408170000000  0.4626850000000  0.4176610000000 1.0
C      1  0.6076770000000  0.5130620000000  0.5079920000000 1.0
C      1  0.4163350000000  0.5531310000000  0.4731550000000 1.0
C      1  0.5510290000000  0.5219640000000  0.5506630000000 1.0
C      1  0.4785400000000  0.5239750000000  0.4420190000000 1.0
C      1  0.5076500000000  0.5329180000000  0.6032020000000 1.0
C      1  0.5292870000000  0.4034270000000  0.5108480000000 1.0
C      1  0.4606260000000  0.4244380000000  0.4902410000000 1.0
C      1  0.4638990000000  0.4922160000000  0.5540960000000 1.0
C      1  0.4544540000000  0.5094210000000  0.4594370000000 1.0
C      1  0.5957450000000  0.5111490000000  0.5325350000000 1.0
C      1  0.4919700000000  0.5726770000000  0.4398420000000 1.0
C      1  0.5298070000000  0.5192640000000  0.4623710000000 1.0
C      1  0.5673760000000  0.5052220000000  0.5003920000000 1.0
C      1  0.4903480000000  0.4429720000000  0.5889390000000 1.0
C      1  0.4281260000000  0.4641560000000  0.4700630000000 1.0
C      1  0.4578870000000  0.4969300000000  0.5829750000000 1.0
C      1  0.4539940000000  0.5613190000000  0.5608840000000 1.0
C      1  0.5367750000000  0.4377570000000  0.4304070000000 1.0
C      1  0.5173990000000  0.5098260000000  0.6060460000000 1.0
C      1  0.4569590000000  0.4799240000000  0.4695940000000 1.0
C      1  0.5715620000000  0.4375500000000  0.5328630000000 1.0
C      1  0.5768680000000  0.4738690000000  0.5058830000000 1.0
C      1  0.5555220000000  0.4306230000000  0.4505450000000 1.0
C      1  0.4964680000000  0.4685890000000  0.6014880000000 1.0
C      1  0.5482060000000  0.4666250000000  0.5065210000000 1.0
C      1  0.5400050000000  0.4735430000000  0.4793320000000 1.0
C      1  0.5153270000000  0.4600560000000  0.4795500000000 1.0
C      1  0.5770810000000  0.5471640000000  0.4838580000000 1.0
C      1  0.5208820000000  0.5668260000000  0.4389410000000 1.0
C      1  0.5000890000000  0.4750670000000  0.4627730000000 1.0
C      1  0.5336530000000  0.5197290000000  0.4130370000000 1.0
C      1  0.5022120000000  0.4168750000000  0.5489280000000 1.0
C      1  0.5159830000000  0.4737010000000  0.4092350000000 1.0
C      1  0.5398550000000  0.5522630000000  0.5621340000000 1.0
C      1  0.5551630000000  0.5751340000000  0.5205680000000 1.0
C      1  0.4824950000000  0.4688770000000  0.5165160000000 1.0
C      1  0.4562650000000  0.5673610000000  0.5141880000000 1.0
C      1  0.4866920000000  0.4801140000000  0.5427740000000 1.0
C      1  0.5341990000000  0.5913710000000  0.5088990000000 1.0
C      1  0.5016510000000  0.6022160000000  0.4781090000000 1.0
C      1  0.4751280000000  0.4624870000000  0.4546150000000 1.0
C      1  0.5500220000000  0.5709530000000  0.5466250000000 1.0
C      1  0.4733750000000  0.5634900000000  0.5389830000000 1.0
C      1  0.4375550000000  0.4784210000000  0.5582610000000 1.0
C      1  0.5112270000000  0.5631670000000  0.5669170000000 1.0
C      1  0.4415540000000  0.4368660000000  0.5091380000000 1.0
C      1  0.5126140000000  0.4074860000000  0.4684480000000 1.0
C      1  0.5586560000000  0.5065890000000  0.4179960000000 1.0
C      1  0.5005740000000  0.5228400000000  0.4651860000000 1.0
C      1  0.4436480000000  0.5566580000000  0.4421320000000 1.0
C      1  0.5280370000000  0.4123510000000  0.5370110000000 1.0
C      1  0.5400100000000  0.5036390000000  0.4839850000000 1.0
C      1  0.4937140000000  0.4192420000000  0.4505690000000 1.0
C      1  0.5693440000000  0.5260330000000  0.5256610000000 1.0
C      1  0.5631260000000  0.5600990000000  0.4618440000000 1.0
C      1  0.5091080000000  0.4335910000000  0.5710460000000 1.0
C      1  0.4372000000000  0.4886040000000  0.4231740000000 1.0
C      1  0.5831340000000  0.4644510000000  0.5327830000000 1.0
C      1  0.5245740000000  0.4781650000000  0.5200750000000 1.0
C      1  0.4680550000000  0.4754760000000  0.5985930000000 1.0
C      1  0.5724590000000  0.4279390000000  0.5051970000000 1.0
C      1  0.4004980000000  0.5193360000000  0.5059580000000 1.0
C      1  0.5485710000000  0.4295280000000  0.5484050000000 1.0
C      1  0.5082810000000  0.4323110000000  0.4297010000000 1.0
C      1  0.5792410000000  0.4764800000000  0.4476110000000 1.0
C      1  0.4828560000000  0.5928640000000  0.4584140000000 1.0
C      1  0.5838190000000  0.4882190000000  0.5485440000000 1.0
C      1  0.4226370000000  0.5372920000000  0.4486330000000 1.0
C      1  0.4518670000000  0.4327440000000  0.5369760000000 1.0
C      1  0.4711620000000  0.4862790000000  0.4958340000000 1.0
C      1  0.5756610000000  0.5210980000000  0.4352320000000 1.0
C      1  0.4664730000000  0.4325500000000  0.4619570000000 1.0
C      1  0.4655370000000  0.5130110000000  0.5345080000000 1.0
C      1  0.4627190000000  0.4501150000000  0.5838620000000 1.0
C      1  0.4641680000000  0.5474660000000  0.5828370000000 1.0
C      1  0.4989760000000  0.5777940000000  0.5454620000000 1.0
C      1  0.5691410000000  0.5515980000000  0.5103820000000 1.0
C      1  0.4575950000000  0.5075810000000  0.5080540000000 1.0
C      1  0.4469940000000  0.5237400000000  0.5846840000000 1.0
C      1  0.4296900000000  0.5500280000000  0.5496970000000 1.0
C      1  0.4049740000000  0.4993970000000  0.5276770000000 1.0
C      1  0.4007830000000  0.4974500000000  0.4867710000000 1.0
END
