TITL C-125551-2216-2 3.0018849441315 125000 -842.921727255366 0 0 121 (C1) n - 1
REM
REM in /rds/project/t2_vol4/rds-t2-cs072/BORA/CARBON/from-Arr/AIRSS/Generating-Clusters/GAP-ML-2020/Only-C1/SD-CG/HFTN-CG
REM
REM
REM
REM
REM
REM ./C.cell (11c1c37f851c82e70ff6c80c92926a4b)
REM AIRSS Version 0.9.1 bugfix July 2018 build 013d7b7c2542+ Fri, 06 Jul 2018 19:26:36 +0100
REM compiler GCC version 9.3.0
REM options -cpp -mtune=generic -march=x86-64 -g -O0
REM seed 1417565967 -1274743878 -457723813 -443793378 -397786364 -1632759601 -2056606964 1020127888 -399461477 -61608577 2130357525 770897312 2059063505 -296867721 897996239 -2128453360 -1233627538 -896590467 -1229998040 2035601513 1298873759 -844726916 -1170399097 -1536905554 -230864346 878086064 -706365785 -1360090174 2086172541 785270273 803871579 809871243 -313300944
REM
CELL 1.54180   50.00000   50.00000   50.00000   90.00000   90.00000   90.00000
LATT -1
SFAC C  
C      1  0.5230870000000  0.3973730000000  0.4889270000000 1.0
C      1  0.4983700000000  0.5429720000000  0.5865180000000 1.0
C      1  0.5829210000000  0.4919400000000  0.4922680000000 1.0
C      1  0.5395310000000  0.5281120000000  0.5720810000000 1.0
C      1  0.5316730000000  0.5808440000000  0.4814070000000 1.0
C      1  0.5054750000000  0.5450640000000  0.4538200000000 1.0
C      1  0.5591530000000  0.4566690000000  0.5150690000000 1.0
C      1  0.5330550000000  0.5443140000000  0.5299900000000 1.0
C      1  0.5292520000000  0.5180990000000  0.5457500000000 1.0
C      1  0.4657630000000  0.4921660000000  0.4181490000000 1.0
C      1  0.5829840000000  0.4749230000000  0.5149850000000 1.0
C      1  0.5601910000000  0.5704700000000  0.5170640000000 1.0
C      1  0.5516440000000  0.5252940000000  0.4558880000000 1.0
C      1  0.4866940000000  0.5945540000000  0.5216300000000 1.0
C      1  0.4777760000000  0.5198660000000  0.4196650000000 1.0
C      1  0.4444800000000  0.5722910000000  0.5242100000000 1.0
C      1  0.4863470000000  0.5965170000000  0.4667370000000 1.0
C      1  0.4497130000000  0.4665590000000  0.5882200000000 1.0
C      1  0.4871420000000  0.5411590000000  0.5412660000000 1.0
C      1  0.4555990000000  0.4261820000000  0.5036660000000 1.0
C      1  0.4374920000000  0.4772660000000  0.5668540000000 1.0
C      1  0.4349120000000  0.4352930000000  0.4860260000000 1.0
C      1  0.5575040000000  0.5667170000000  0.4727280000000 1.0
C      1  0.4429870000000  0.4660380000000  0.5386700000000 1.0
C      1  0.4805220000000  0.4176490000000  0.4900740000000 1.0
C      1  0.5018780000000  0.5148000000000  0.5370410000000 1.0
C      1  0.4520790000000  0.4728720000000  0.4876300000000 1.0
C      1  0.4749210000000  0.4754740000000  0.5955020000000 1.0
C      1  0.5832130000000  0.4875470000000  0.5404760000000 1.0
C      1  0.4380110000000  0.5073290000000  0.5653530000000 1.0
C      1  0.5555420000000  0.4337340000000  0.4972640000000 1.0
C      1  0.4416610000000  0.5418010000000  0.5218490000000 1.0
C      1  0.5293420000000  0.4108100000000  0.4658520000000 1.0
C      1  0.4849740000000  0.5606820000000  0.4964260000000 1.0
C      1  0.4385610000000  0.4388970000000  0.4563280000000 1.0
C      1  0.5055880000000  0.4138590000000  0.5323670000000 1.0
C      1  0.5138220000000  0.5919040000000  0.4601260000000 1.0
C      1  0.4865340000000  0.4617590000000  0.5126420000000 1.0
C      1  0.5360540000000  0.5864560000000  0.5100050000000 1.0
C      1  0.4672520000000  0.5854040000000  0.4506980000000 1.0
C      1  0.5726880000000  0.5145660000000  0.5335000000000 1.0
C      1  0.4363890000000  0.5144740000000  0.5367380000000 1.0
C      1  0.4995820000000  0.5301690000000  0.4057130000000 1.0
C      1  0.4700070000000  0.5130780000000  0.4660200000000 1.0
C      1  0.4122570000000  0.4735730000000  0.4690530000000 1.0
C      1  0.5460160000000  0.4968290000000  0.5373430000000 1.0
C      1  0.4161880000000  0.5012950000000  0.4697880000000 1.0
C      1  0.4146810000000  0.5148880000000  0.4941980000000 1.0
C      1  0.4389140000000  0.5600740000000  0.4787170000000 1.0
C      1  0.4857210000000  0.4870080000000  0.4624130000000 1.0
C      1  0.5060100000000  0.5146750000000  0.5058660000000 1.0
C      1  0.4175630000000  0.5004210000000  0.5188330000000 1.0
C      1  0.4401890000000  0.5063310000000  0.4546040000000 1.0
C      1  0.5295030000000  0.4374370000000  0.5647670000000 1.0
C      1  0.5723430000000  0.5215340000000  0.5021480000000 1.0
C      1  0.4998810000000  0.4623990000000  0.5885870000000 1.0
C      1  0.5560970000000  0.5535690000000  0.4480200000000 1.0
C      1  0.4600860000000  0.4915610000000  0.5339270000000 1.0
C      1  0.4470600000000  0.5806570000000  0.4967360000000 1.0
C      1  0.5522570000000  0.4286390000000  0.5232560000000 1.0
C      1  0.4717490000000  0.5410050000000  0.5141720000000 1.0
C      1  0.4857930000000  0.4283210000000  0.5472600000000 1.0
C      1  0.4218660000000  0.4602070000000  0.4935270000000 1.0
C      1  0.5440860000000  0.4365470000000  0.4712300000000 1.0
C      1  0.5022950000000  0.4043240000000  0.5052990000000 1.0
C      1  0.5016420000000  0.4399910000000  0.5702980000000 1.0
C      1  0.5527870000000  0.4595600000000  0.4296600000000 1.0
C      1  0.4810770000000  0.4434940000000  0.4240540000000 1.0
C      1  0.4758160000000  0.5893890000000  0.4938370000000 1.0
C      1  0.4678980000000  0.4875840000000  0.5059830000000 1.0
C      1  0.5761140000000  0.4809280000000  0.4664180000000 1.0
C      1  0.5253880000000  0.4772920000000  0.5880610000000 1.0
C      1  0.5247560000000  0.5368490000000  0.5006740000000 1.0
C      1  0.5442820000000  0.4619960000000  0.5723940000000 1.0
C      1  0.5135280000000  0.5859580000000  0.5283950000000 1.0
C      1  0.5376290000000  0.5619370000000  0.4256080000000 1.0
C      1  0.5155340000000  0.4830810000000  0.4666060000000 1.0
C      1  0.5266800000000  0.4516120000000  0.4203600000000 1.0
C      1  0.4277280000000  0.5397820000000  0.4960830000000 1.0
C      1  0.4202830000000  0.4719880000000  0.5199920000000 1.0
C      1  0.4641900000000  0.5864430000000  0.5359030000000 1.0
C      1  0.5676320000000  0.5009870000000  0.4480500000000 1.0
C      1  0.4280140000000  0.4640590000000  0.4474740000000 1.0
C      1  0.5520490000000  0.4875920000000  0.4293740000000 1.0
C      1  0.4773620000000  0.5145130000000  0.4961750000000 1.0
C      1  0.4929010000000  0.4480480000000  0.4869830000000 1.0
C      1  0.5267160000000  0.4959250000000  0.4922560000000 1.0
C      1  0.5609580000000  0.4784650000000  0.5573000000000 1.0
C      1  0.4642610000000  0.4432150000000  0.5286750000000 1.0
C      1  0.5115270000000  0.4753120000000  0.4162660000000 1.0
C      1  0.5319500000000  0.4217830000000  0.5412630000000 1.0
C      1  0.5149960000000  0.5713090000000  0.4396110000000 1.0
C      1  0.4425840000000  0.4864640000000  0.4347430000000 1.0
C      1  0.4768360000000  0.5041670000000  0.5964440000000 1.0
C      1  0.4898690000000  0.4907770000000  0.5442740000000 1.0
C      1  0.4751570000000  0.5411620000000  0.5698890000000 1.0
C      1  0.5246210000000  0.5378010000000  0.4136330000000 1.0
C      1  0.4656210000000  0.4352530000000  0.4476620000000 1.0
C      1  0.5711300000000  0.5551860000000  0.4954990000000 1.0
C      1  0.5101510000000  0.5545210000000  0.4828140000000 1.0
C      1  0.5460760000000  0.5203550000000  0.4869890000000 1.0
C      1  0.5068350000000  0.4128920000000  0.4484520000000 1.0
C      1  0.4812150000000  0.4137930000000  0.4603600000000 1.0
C      1  0.5208000000000  0.5516500000000  0.5730470000000 1.0
C      1  0.5588050000000  0.5564570000000  0.5404680000000 1.0
C      1  0.5339800000000  0.4787320000000  0.5169520000000 1.0
C      1  0.5632360000000  0.4544650000000  0.4555100000000 1.0
C      1  0.4722120000000  0.4620100000000  0.4695820000000 1.0
C      1  0.5073760000000  0.4316970000000  0.4269300000000 1.0
C      1  0.4764440000000  0.5358140000000  0.4477270000000 1.0
C      1  0.5236460000000  0.4939960000000  0.4375800000000 1.0
C      1  0.4570660000000  0.5599790000000  0.4546970000000 1.0
C      1  0.5126520000000  0.5604670000000  0.5445520000000 1.0
C      1  0.5268730000000  0.5062320000000  0.5909340000000 1.0
C      1  0.5019540000000  0.5175730000000  0.5985680000000 1.0
C      1  0.5172050000000  0.4545120000000  0.4724690000000 1.0
C      1  0.5073330000000  0.4713090000000  0.5296070000000 1.0
C      1  0.5661650000000  0.5344920000000  0.5556670000000 1.0
C      1  0.5249530000000  0.5237350000000  0.4409060000000 1.0
C      1  0.4589530000000  0.5199700000000  0.5800460000000 1.0
C      1  0.4836330000000  0.4702080000000  0.4133100000000 1.0
END
