TITL C-121242-6221-8 -35.0381992394615 125000 -200.502737387355 0 0 31 (C1) n - 1
REM
REM in /rds/project/t2_vol4/rds-t2-cs072/BORA/CARBON/from-Arr/AIRSS/Generating-Clusters/GAP-ML-2020/Only-C1/SD-CG/HFTN-CG
REM
REM
REM
REM
REM
REM ./C.cell (11c1c37f851c82e70ff6c80c92926a4b)
REM AIRSS Version 0.9.1 bugfix July 2018 build 013d7b7c2542+ Fri, 06 Jul 2018 19:26:36 +0100
REM compiler GCC version 9.3.0
REM options -cpp -mtune=generic -march=x86-64 -g -O0
REM seed 1136894043 -1069553665 756647436 -281628074 94729717 1013259647 1765669967 -584528910 694720076 -381216324 -2089784824 -1091567473 -1918733718 1995236101 1187976666 -429254557 1631692218 -1166582015 1250518802 1456889172 -608072367 1262190114 -538587194 -2077236208 553679062 -656419567 -44428687 -1189302064 -1916895144 -1895745488 2036897447 785030510 2128695483
REM
CELL 1.54180   50.00000   50.00000   50.00000   90.00000   90.00000   90.00000
LATT -1
SFAC C  
C      1  0.5418450000000  0.5004170000000  0.4873000000000 1.0
C      1  0.5188160000000  0.4626860000000  0.5436010000000 1.0
C      1  0.5126920000000  0.5149500000000  0.4518940000000 1.0
C      1  0.4669240000000  0.4857400000000  0.4723680000000 1.0
C      1  0.5040900000000  0.4979950000000  0.5113210000000 1.0
C      1  0.4684000000000  0.5296190000000  0.4930290000000 1.0
C      1  0.4718030000000  0.5317650000000  0.4510010000000 1.0
C      1  0.4836530000000  0.4673770000000  0.4817840000000 1.0
C      1  0.5141070000000  0.5028340000000  0.5416080000000 1.0
C      1  0.4818080000000  0.4569190000000  0.5099190000000 1.0
C      1  0.4599620000000  0.4989500000000  0.5267820000000 1.0
C      1  0.5233320000000  0.4352690000000  0.5063150000000 1.0
C      1  0.5233710000000  0.5202870000000  0.4976760000000 1.0
C      1  0.5061400000000  0.4486390000000  0.5218550000000 1.0
C      1  0.5294610000000  0.4580670000000  0.4937330000000 1.0
C      1  0.4460040000000  0.4817440000000  0.5417700000000 1.0
C      1  0.4611840000000  0.5116050000000  0.4699580000000 1.0
C      1  0.5153300000000  0.5333210000000  0.4738440000000 1.0
C      1  0.5140070000000  0.5660000000000  0.5053490000000 1.0
C      1  0.5121640000000  0.4679310000000  0.4724480000000 1.0
C      1  0.4791600000000  0.5170990000000  0.5164420000000 1.0
C      1  0.4664310000000  0.4707440000000  0.5278320000000 1.0
C      1  0.4915340000000  0.5222440000000  0.4350310000000 1.0
C      1  0.5371480000000  0.4846630000000  0.5334380000000 1.0
C      1  0.5009210000000  0.5281970000000  0.5350370000000 1.0
C      1  0.5446960000000  0.4792690000000  0.5059710000000 1.0
C      1  0.5180640000000  0.5424140000000  0.5181580000000 1.0
C      1  0.5029340000000  0.5594310000000  0.4793060000000 1.0
C      1  0.5027480000000  0.4811230000000  0.5559190000000 1.0
C      1  0.4761820000000  0.5512690000000  0.4753240000000 1.0
C      1  0.5250880000000  0.4914340000000  0.4639880000000 1.0
END
