TITL C-121230-6167-1 -95.0543977483165 125000 -182.922911761926 0 0 28 (C1) n - 1
REM
REM in /rds/project/t2_vol4/rds-t2-cs072/BORA/CARBON/from-Arr/AIRSS/Generating-Clusters/GAP-ML-2020/Only-C1/SD-CG/HFTN-CG
REM
REM
REM
REM
REM
REM ./C.cell (11c1c37f851c82e70ff6c80c92926a4b)
REM AIRSS Version 0.9.1 bugfix July 2018 build 013d7b7c2542+ Fri, 06 Jul 2018 19:26:36 +0100
REM compiler GCC version 9.3.0
REM options -cpp -mtune=generic -march=x86-64 -g -O0
REM seed 874259669 671404506 1117068399 -1369255315 1457417014 661685373 1142327455 -602549800 1384108195 422783504 515706631 1358239103 -633119110 498621389 -1810600004 1860769654 -375646144 -984448313 278631439 1926348020 1238046832 -731686591 -320777619 -668486373 1328748758 -246806259 1683547687 -838931690 1379123693 1812862167 245272314 -1769363730 -141061857
REM
CELL 1.54180   50.00000   50.00000   50.00000   90.00000   90.00000   90.00000
LATT -1
SFAC C  
C      1  0.5175670000000  0.4520000000000  0.4873140000000 1.0
C      1  0.5097880000000  0.5102030000000  0.4678020000000 1.0
C      1  0.5233180000000  0.4750160000000  0.5382800000000 1.0
C      1  0.5195110000000  0.5252040000000  0.5376340000000 1.0
C      1  0.4802090000000  0.5227960000000  0.4644560000000 1.0
C      1  0.4706430000000  0.4682120000000  0.5098730000000 1.0
C      1  0.4811410000000  0.4952900000000  0.5478730000000 1.0
C      1  0.4955040000000  0.4499050000000  0.5059430000000 1.0
C      1  0.5434540000000  0.5080320000000  0.5072540000000 1.0
C      1  0.4608940000000  0.4954630000000  0.5052040000000 1.0
C      1  0.5005130000000  0.5578420000000  0.4746050000000 1.0
C      1  0.5284140000000  0.5213780000000  0.4856320000000 1.0
C      1  0.5153680000000  0.5466600000000  0.4943660000000 1.0
C      1  0.5008910000000  0.4849410000000  0.4578650000000 1.0
C      1  0.5459610000000  0.5242010000000  0.5295630000000 1.0
C      1  0.4544270000000  0.4890100000000  0.4325690000000 1.0
C      1  0.5025770000000  0.4557000000000  0.5336350000000 1.0
C      1  0.5096700000000  0.5001660000000  0.5485150000000 1.0
C      1  0.5432470000000  0.4575050000000  0.4981480000000 1.0
C      1  0.4751250000000  0.4967240000000  0.4461790000000 1.0
C      1  0.4669290000000  0.5193260000000  0.4895150000000 1.0
C      1  0.4653340000000  0.5108630000000  0.5305710000000 1.0
C      1  0.5026240000000  0.5417680000000  0.5197290000000 1.0
C      1  0.4760800000000  0.5323890000000  0.5147900000000 1.0
C      1  0.4774080000000  0.4684140000000  0.5381610000000 1.0
C      1  0.4815500000000  0.5519410000000  0.4582770000000 1.0
C      1  0.5108140000000  0.4596460000000  0.4610920000000 1.0
C      1  0.5410410000000  0.4794060000000  0.5151540000000 1.0
END
