TITL C-120618-4456-7 -0.113731660495581 125000 -100.490187714306 0 0 16 (C1) n - 1
REM
REM in /rds/project/t2_vol4/rds-t2-cs072/BORA/CARBON/from-Arr/AIRSS/Generating-Clusters/GAP-ML-2020/Only-C1/SD-CG/HFTN-CG
REM
REM
REM
REM
REM
REM ./C.cell (11c1c37f851c82e70ff6c80c92926a4b)
REM AIRSS Version 0.9.1 bugfix July 2018 build 013d7b7c2542+ Fri, 06 Jul 2018 19:26:36 +0100
REM compiler GCC version 9.3.0
REM options -cpp -mtune=generic -march=x86-64 -g -O0
REM seed 41063216 -517910881 -1829315100 -765388371 -1720771773 653409658 920879005 652040883 -1551942132 -1249629708 -47621067 679366203 1974577794 88727436 574705511 664966338 -2044065585 327592644 1874065266 -2136340944 -381429592 703410923 1759969859 1110396561 71586007 -1670985896 117847484 -1160824111 1619732594 679701394 1030265195 141141117 -347711037
REM
CELL 1.54180   50.00000   50.00000   50.00000   90.00000   90.00000   90.00000
LATT -1
SFAC C  
C      1  0.5027780000000  0.4675260000000  0.5242960000000 1.0
C      1  0.4913340000000  0.5354150000000  0.4749430000000 1.0
C      1  0.4762760000000  0.4708510000000  0.4449250000000 1.0
C      1  0.4929200000000  0.4875070000000  0.4574990000000 1.0
C      1  0.5070080000000  0.4673120000000  0.5001390000000 1.0
C      1  0.5099210000000  0.5373070000000  0.4970520000000 1.0
C      1  0.5358220000000  0.5226240000000  0.4909260000000 1.0
C      1  0.4991420000000  0.4754140000000  0.5493820000000 1.0
C      1  0.4881750000000  0.5153360000000  0.4599060000000 1.0
C      1  0.5332920000000  0.4993750000000  0.4810420000000 1.0
C      1  0.4866310000000  0.5299610000000  0.5692650000000 1.0
C      1  0.4989090000000  0.5344140000000  0.5465670000000 1.0
C      1  0.5142390000000  0.4787800000000  0.4760350000000 1.0
C      1  0.4608440000000  0.4565050000000  0.4314170000000 1.0
C      1  0.5033790000000  0.5403270000000  0.5224470000000 1.0
C      1  0.4993290000000  0.4813450000000  0.5741600000000 1.0
END
