TITL C-121220-6199-11 -87.2327676167266 125000 -524.607008935679 0 0 75 (C1) n - 1
REM
REM in /rds/project/t2_vol4/rds-t2-cs072/BORA/CARBON/from-Arr/AIRSS/Generating-Clusters/GAP-ML-2020/Only-C1/SD-CG/HFTN-CG
REM
REM
REM
REM
REM
REM ./C.cell (11c1c37f851c82e70ff6c80c92926a4b)
REM AIRSS Version 0.9.1 bugfix July 2018 build 013d7b7c2542+ Fri, 06 Jul 2018 19:26:36 +0100
REM compiler GCC version 9.3.0
REM options -cpp -mtune=generic -march=x86-64 -g -O0
REM seed 661455074 330255496 1330169370 -2096460301 966190919 -93065846 -550820644 -709592027 -1919279873 1313550498 1657992396 -1452078106 -2084990820 -1009522386 -1080618586 -992440210 431906826 -1812601895 1410860649 1990208042 -651613533 1807530798 26166609 -770691415 1056782187 -1514584230 -1418089069 -1746871664 -943188836 -1296020258 -444732662 -1194387449 -2118844856
REM
CELL 1.54180   50.00000   50.00000   50.00000   90.00000   90.00000   90.00000
LATT -1
SFAC C  
C      1  0.5054910000000  0.4927680000000  0.4786090000000 1.0
C      1  0.4954360000000  0.5695740000000  0.5352020000000 1.0
C      1  0.5085820000000  0.4765630000000  0.4259650000000 1.0
C      1  0.5062180000000  0.5048860000000  0.4214030000000 1.0
C      1  0.4708560000000  0.5547600000000  0.5396520000000 1.0
C      1  0.5481510000000  0.5610090000000  0.5277330000000 1.0
C      1  0.4873550000000  0.4453180000000  0.4548220000000 1.0
C      1  0.5676100000000  0.5068530000000  0.5269580000000 1.0
C      1  0.4848780000000  0.5429510000000  0.4429720000000 1.0
C      1  0.4219510000000  0.5202100000000  0.4917770000000 1.0
C      1  0.4954930000000  0.5191360000000  0.4821800000000 1.0
C      1  0.5048920000000  0.5838090000000  0.5149600000000 1.0
C      1  0.5612310000000  0.5428670000000  0.4874330000000 1.0
C      1  0.4411570000000  0.4949910000000  0.4542320000000 1.0
C      1  0.5235780000000  0.4879380000000  0.5012620000000 1.0
C      1  0.5461510000000  0.5637630000000  0.5007400000000 1.0
C      1  0.4827600000000  0.5119390000000  0.5717960000000 1.0
C      1  0.4817370000000  0.5157460000000  0.4318290000000 1.0
C      1  0.5064710000000  0.4967130000000  0.5736610000000 1.0
C      1  0.5009990000000  0.5237910000000  0.5116210000000 1.0
C      1  0.5659750000000  0.5074130000000  0.4567740000000 1.0
C      1  0.4777650000000  0.5604740000000  0.4671460000000 1.0
C      1  0.5377900000000  0.5458540000000  0.5474990000000 1.0
C      1  0.4652070000000  0.5204350000000  0.4849230000000 1.0
C      1  0.5490080000000  0.4950690000000  0.4369790000000 1.0
C      1  0.5315890000000  0.5155960000000  0.4268230000000 1.0
C      1  0.5567240000000  0.4509580000000  0.4806410000000 1.0
C      1  0.4657020000000  0.4916560000000  0.4391920000000 1.0
C      1  0.4403110000000  0.5209310000000  0.4691510000000 1.0
C      1  0.4854400000000  0.5384820000000  0.5607170000000 1.0
C      1  0.4526960000000  0.5520160000000  0.5161790000000 1.0
C      1  0.4826900000000  0.4760910000000  0.4906560000000 1.0
C      1  0.4727010000000  0.4490150000000  0.4787760000000 1.0
C      1  0.4292990000000  0.5342020000000  0.5160680000000 1.0
C      1  0.5266510000000  0.5126880000000  0.5158370000000 1.0
C      1  0.5673440000000  0.4780230000000  0.5223720000000 1.0
C      1  0.5511150000000  0.4599440000000  0.5384400000000 1.0
C      1  0.5341820000000  0.4997190000000  0.5640040000000 1.0
C      1  0.5118430000000  0.5545400000000  0.4452080000000 1.0
C      1  0.5725430000000  0.5194610000000  0.5013600000000 1.0
C      1  0.5388690000000  0.4369340000000  0.5262820000000 1.0
C      1  0.5050120000000  0.5710960000000  0.4680100000000 1.0
C      1  0.5358520000000  0.4712150000000  0.5591670000000 1.0
C      1  0.5356510000000  0.5401070000000  0.4406550000000 1.0
C      1  0.5757830000000  0.4983490000000  0.4821000000000 1.0
C      1  0.4604200000000  0.4380490000000  0.5232220000000 1.0
C      1  0.5347760000000  0.4701830000000  0.4367580000000 1.0
C      1  0.5377250000000  0.4510110000000  0.4578540000000 1.0
C      1  0.5448620000000  0.5172180000000  0.5437590000000 1.0
C      1  0.5711160000000  0.4728020000000  0.4939430000000 1.0
C      1  0.4584710000000  0.4959880000000  0.5669960000000 1.0
C      1  0.5199550000000  0.5764030000000  0.4924390000000 1.0
C      1  0.5452440000000  0.4331450000000  0.4989100000000 1.0
C      1  0.4841780000000  0.4673010000000  0.4357580000000 1.0
C      1  0.4633360000000  0.4957170000000  0.5033370000000 1.0
C      1  0.5132580000000  0.4375110000000  0.4653790000000 1.0
C      1  0.5081600000000  0.4681350000000  0.5679470000000 1.0
C      1  0.5001230000000  0.4777230000000  0.5150130000000 1.0
C      1  0.4608610000000  0.4686300000000  0.5581930000000 1.0
C      1  0.4460750000000  0.4601120000000  0.5346580000000 1.0
C      1  0.5101780000000  0.5519390000000  0.5545140000000 1.0
C      1  0.4353860000000  0.5085410000000  0.5581920000000 1.0
C      1  0.5174030000000  0.4262460000000  0.4926990000000 1.0
C      1  0.4161790000000  0.4931270000000  0.4953020000000 1.0
C      1  0.4537100000000  0.4368560000000  0.4947270000000 1.0
C      1  0.4235910000000  0.5207640000000  0.5397810000000 1.0
C      1  0.4255650000000  0.4776390000000  0.4712480000000 1.0
C      1  0.4861030000000  0.4347300000000  0.5359800000000 1.0
C      1  0.4373830000000  0.4780000000000  0.5115380000000 1.0
C      1  0.4637050000000  0.5501020000000  0.4898630000000 1.0
C      1  0.4856940000000  0.4538660000000  0.5584320000000 1.0
C      1  0.4362560000000  0.4576580000000  0.4886420000000 1.0
C      1  0.5568430000000  0.5345070000000  0.4602450000000 1.0
C      1  0.5105040000000  0.4286490000000  0.5218490000000 1.0
C      1  0.4842020000000  0.5015960000000  0.5230530000000 1.0
END
