TITL C-121973-4462-1 -0.264411365360777 125000 -861.04645015841 0 0 124 (C1) n - 1
REM
REM in /rds/project/t2_vol4/rds-t2-cs072/BORA/CARBON/from-Arr/AIRSS/Generating-Clusters/GAP-ML-2020/Only-C1/SD-CG/HFTN-CG
REM
REM
REM
REM
REM
REM ./C.cell (11c1c37f851c82e70ff6c80c92926a4b)
REM AIRSS Version 0.9.1 bugfix July 2018 build 013d7b7c2542+ Fri, 06 Jul 2018 19:26:36 +0100
REM compiler GCC version 9.3.0
REM options -cpp -mtune=generic -march=x86-64 -g -O0
REM seed -1638306329 -1014484160 1341054739 123551073 1778513982 -1414471609 -1499716523 -1404267398 -1366277579 1576760665 -254350575 513729124 1264420080 -998361612 -1757994641 -743332347 135802762 4733261 186489695 -1524528467 1666016053 -713909098 -637104430 359703879 1103068042 1269716187 777645815 1947368923 -1804991705 -6243241 140522935 -1355734524 1088433790
REM
CELL 1.54180   50.00000   50.00000   50.00000   90.00000   90.00000   90.00000
LATT -1
SFAC C  
C      1  0.5007500000000  0.5282580000000  0.4144560000000 1.0
C      1  0.4787590000000  0.4895750000000  0.5512920000000 1.0
C      1  0.4511520000000  0.4328810000000  0.4976650000000 1.0
C      1  0.5165110000000  0.4362540000000  0.5613030000000 1.0
C      1  0.5833190000000  0.4823660000000  0.5168700000000 1.0
C      1  0.5601090000000  0.4554150000000  0.5512830000000 1.0
C      1  0.5585900000000  0.5383160000000  0.4596450000000 1.0
C      1  0.5058570000000  0.4899010000000  0.4601620000000 1.0
C      1  0.4631830000000  0.5758900000000  0.5042530000000 1.0
C      1  0.5682540000000  0.5260680000000  0.5071580000000 1.0
C      1  0.4890100000000  0.4263900000000  0.5547460000000 1.0
C      1  0.4459680000000  0.5022340000000  0.5092460000000 1.0
C      1  0.4479140000000  0.4573170000000  0.5346780000000 1.0
C      1  0.4512950000000  0.5133500000000  0.5898710000000 1.0
C      1  0.4908630000000  0.5877150000000  0.5045910000000 1.0
C      1  0.5317780000000  0.4893780000000  0.5006910000000 1.0
C      1  0.5584780000000  0.5305550000000  0.5350710000000 1.0
C      1  0.5282510000000  0.5798520000000  0.5420510000000 1.0
C      1  0.4998350000000  0.4479700000000  0.5124700000000 1.0
C      1  0.4696500000000  0.5713620000000  0.5518760000000 1.0
C      1  0.4492520000000  0.5119820000000  0.4156580000000 1.0
C      1  0.4355200000000  0.5560370000000  0.4590910000000 1.0
C      1  0.4874960000000  0.5058980000000  0.5075050000000 1.0
C      1  0.4782980000000  0.5192740000000  0.5527910000000 1.0
C      1  0.4341110000000  0.4489570000000  0.4472560000000 1.0
C      1  0.4187100000000  0.4996500000000  0.5564490000000 1.0
C      1  0.4719010000000  0.4451410000000  0.5717810000000 1.0
C      1  0.4683470000000  0.5793240000000  0.4531220000000 1.0
C      1  0.4704460000000  0.5219720000000  0.4603410000000 1.0
C      1  0.4217180000000  0.5038560000000  0.4572100000000 1.0
C      1  0.5414020000000  0.4343160000000  0.5467900000000 1.0
C      1  0.5376560000000  0.5503570000000  0.4416770000000 1.0
C      1  0.6035280000000  0.5021860000000  0.5221350000000 1.0
C      1  0.5249800000000  0.5454190000000  0.5059000000000 1.0
C      1  0.4785730000000  0.4947730000000  0.4562650000000 1.0
C      1  0.5083900000000  0.5718520000000  0.5215170000000 1.0
C      1  0.4392030000000  0.5292360000000  0.4980760000000 1.0
C      1  0.5385110000000  0.5051280000000  0.4264330000000 1.0
C      1  0.4365640000000  0.5276400000000  0.4672760000000 1.0
C      1  0.5195050000000  0.5627100000000  0.4603390000000 1.0
C      1  0.5186080000000  0.4630460000000  0.4943530000000 1.0
C      1  0.5124070000000  0.4553450000000  0.5838940000000 1.0
C      1  0.4686270000000  0.4541580000000  0.5127470000000 1.0
C      1  0.4390490000000  0.4680750000000  0.4269080000000 1.0
C      1  0.5098740000000  0.4542970000000  0.5388290000000 1.0
C      1  0.5953700000000  0.5129400000000  0.4732400000000 1.0
C      1  0.4697080000000  0.4941900000000  0.4047120000000 1.0
C      1  0.4384270000000  0.4912660000000  0.5734000000000 1.0
C      1  0.4888630000000  0.4107440000000  0.5317920000000 1.0
C      1  0.5752910000000  0.5177680000000  0.5561160000000 1.0
C      1  0.4790210000000  0.5353800000000  0.4322600000000 1.0
C      1  0.4866070000000  0.4500410000000  0.4178700000000 1.0
C      1  0.4613460000000  0.4191520000000  0.4762080000000 1.0
C      1  0.5698230000000  0.4620740000000  0.4624130000000 1.0
C      1  0.4884680000000  0.4116970000000  0.4789690000000 1.0
C      1  0.4887780000000  0.4478660000000  0.5944710000000 1.0
C      1  0.4571130000000  0.4693740000000  0.5599460000000 1.0
C      1  0.4583960000000  0.5328160000000  0.5689490000000 1.0
C      1  0.4144610000000  0.4848300000000  0.4775080000000 1.0
C      1  0.5589130000000  0.5576030000000  0.5464020000000 1.0
C      1  0.5767580000000  0.4575470000000  0.5277950000000 1.0
C      1  0.5113820000000  0.4640460000000  0.4682250000000 1.0
C      1  0.4908490000000  0.5433420000000  0.5917920000000 1.0
C      1  0.5311400000000  0.4132730000000  0.5005060000000 1.0
C      1  0.5322900000000  0.5839090000000  0.4797230000000 1.0
C      1  0.5492960000000  0.5085400000000  0.4561130000000 1.0
C      1  0.5196090000000  0.4864440000000  0.4119630000000 1.0
C      1  0.5523070000000  0.5755120000000  0.4981150000000 1.0
C      1  0.5277640000000  0.5315480000000  0.4227070000000 1.0
C      1  0.5621670000000  0.4954220000000  0.5000590000000 1.0
C      1  0.4192490000000  0.5353810000000  0.5214830000000 1.0
C      1  0.5562680000000  0.4584300000000  0.4392900000000 1.0
C      1  0.5118130000000  0.5367850000000  0.4810170000000 1.0
C      1  0.5003840000000  0.4173340000000  0.4536420000000 1.0
C      1  0.5542620000000  0.5467080000000  0.4914110000000 1.0
C      1  0.4679260000000  0.4815140000000  0.4979140000000 1.0
C      1  0.4119070000000  0.5086750000000  0.5313510000000 1.0
C      1  0.4256120000000  0.4442220000000  0.4960080000000 1.0
C      1  0.4241870000000  0.4611910000000  0.5184190000000 1.0
C      1  0.4514690000000  0.5741030000000  0.4765000000000 1.0
C      1  0.4511330000000  0.5618430000000  0.4356170000000 1.0
C      1  0.4495660000000  0.5732210000000  0.5317030000000 1.0
C      1  0.4642330000000  0.4675030000000  0.4123590000000 1.0
C      1  0.5586020000000  0.5037310000000  0.5747080000000 1.0
C      1  0.4959980000000  0.5822380000000  0.4571810000000 1.0
C      1  0.5320560000000  0.5113140000000  0.5827010000000 1.0
C      1  0.5018020000000  0.4156580000000  0.5054960000000 1.0
C      1  0.6010110000000  0.5122070000000  0.5477980000000 1.0
C      1  0.4802260000000  0.4296550000000  0.4366300000000 1.0
C      1  0.5877460000000  0.5338490000000  0.4576420000000 1.0
C      1  0.4547350000000  0.5398590000000  0.4178250000000 1.0
C      1  0.4192330000000  0.4570480000000  0.4712250000000 1.0
C      1  0.5711350000000  0.4919840000000  0.4710160000000 1.0
C      1  0.5346890000000  0.4439980000000  0.4315920000000 1.0
C      1  0.4841700000000  0.5296650000000  0.4867610000000 1.0
C      1  0.5258580000000  0.5266660000000  0.5295510000000 1.0
C      1  0.4969690000000  0.5023140000000  0.4040770000000 1.0
C      1  0.4311630000000  0.4953470000000  0.4311430000000 1.0
C      1  0.5145720000000  0.4584820000000  0.4162160000000 1.0
C      1  0.4188710000000  0.4882970000000  0.5087060000000 1.0
C      1  0.4746890000000  0.5223580000000  0.6019460000000 1.0
C      1  0.5475770000000  0.4231290000000  0.5210090000000 1.0
C      1  0.4551300000000  0.4293720000000  0.4501900000000 1.0
C      1  0.5429140000000  0.4211820000000  0.4751390000000 1.0
C      1  0.5364640000000  0.5612980000000  0.5636620000000 1.0
C      1  0.5517410000000  0.4760320000000  0.5689740000000 1.0
C      1  0.4264830000000  0.5581170000000  0.5339150000000 1.0
C      1  0.5180920000000  0.5377200000000  0.5776850000000 1.0
C      1  0.5528670000000  0.5793040000000  0.5271190000000 1.0
C      1  0.5230280000000  0.4824520000000  0.5736770000000 1.0
C      1  0.5686930000000  0.4375500000000  0.5089370000000 1.0
C      1  0.5975500000000  0.5203780000000  0.5006780000000 1.0
C      1  0.4635620000000  0.5465790000000  0.4996190000000 1.0
C      1  0.5281180000000  0.4227770000000  0.4507610000000 1.0
C      1  0.5651210000000  0.4390070000000  0.4803240000000 1.0
C      1  0.5070060000000  0.4821090000000  0.5463210000000 1.0
C      1  0.4680970000000  0.5095690000000  0.5290000000000 1.0
C      1  0.4668080000000  0.4757260000000  0.4711820000000 1.0
C      1  0.5153700000000  0.5000520000000  0.5220560000000 1.0
C      1  0.4937790000000  0.5610890000000  0.5427780000000 1.0
C      1  0.5243560000000  0.5082190000000  0.4739390000000 1.0
C      1  0.5052490000000  0.5952440000000  0.4816980000000 1.0
C      1  0.4700130000000  0.5576370000000  0.5766850000000 1.0
C      1  0.5041000000000  0.5348840000000  0.5507490000000 1.0
END
