TITL C-125535-2203-4 0.00792087918168091 125000 -28.2972592922345 0 0 5 (D2h) n - 1
REM
REM in /rds/project/t2_vol4/rds-t2-cs072/BORA/CARBON/from-Arr/AIRSS/Generating-Clusters/GAP-ML-2020/Only-C1/SD-CG/HFTN-CG
REM
REM
REM
REM
REM
REM ./C.cell (11c1c37f851c82e70ff6c80c92926a4b)
REM AIRSS Version 0.9.1 bugfix July 2018 build 013d7b7c2542+ Fri, 06 Jul 2018 19:26:36 +0100
REM compiler GCC version 9.3.0
REM options -cpp -mtune=generic -march=x86-64 -g -O0
REM seed 1828896439 1187526014 -698504172 656913616 87087127 -1427393 -2130089120 -267886899 -725938360 729947580 600061734 1014933407 1305420647 -586903184 -187456214 -1762624216 -1727436355 -341188438 -1279909370 337171672 753917593 420392994 1795526916 654795551 456929848 866078647 -25662822 -1215057825 457137456 -201373831 603171390 12684548 2045200414
REM
CELL 1.54180   50.00000   50.00000   50.00000   90.00000   90.00000   90.00000
LATT -1
SFAC C  
C      1  0.4934300000000  0.5090450000000  0.5264910000000 1.0
C      1  0.4867090000000  0.5245170000000  0.5069990000000 1.0
C      1  0.5000000000000  0.5000000000000  0.5000000000000 1.0
C      1  0.5132910000000  0.4754830000000  0.4930010000000 1.0
C      1  0.5065700000000  0.4909550000000  0.4735090000000 1.0
END
