TITL C-121991-4459-8 0.0142892410952007 125000 -468.102161596078 0 0 70 (C1) n - 1
REM
REM in /rds/project/t2_vol4/rds-t2-cs072/BORA/CARBON/from-Arr/AIRSS/Generating-Clusters/GAP-ML-2020/Only-C1/SD-CG/HFTN-CG
REM
REM
REM
REM
REM
REM ./C.cell (11c1c37f851c82e70ff6c80c92926a4b)
REM AIRSS Version 0.9.1 bugfix July 2018 build 013d7b7c2542+ Fri, 06 Jul 2018 19:26:36 +0100
REM compiler GCC version 9.3.0
REM options -cpp -mtune=generic -march=x86-64 -g -O0
REM seed -443804173 -1999225520 1245717314 -1377144136 1184727471 2030611992 946508281 -1667739563 1880360915 -1794911436 -1481552330 1169750834 -1536793267 1330774591 -2067383885 1645753835 -1819533566 -31373365 1440590828 -1839810915 -2110037023 -1663688127 1264688566 -1322819839 1606190851 -867969110 -414853305 -1124794726 1629815936 -2028296868 -625993951 549957691 -1596080168
REM
CELL 1.54180   50.00000   50.00000   50.00000   90.00000   90.00000   90.00000
LATT -1
SFAC C  
C      1  0.5208300000000  0.5602650000000  0.4834590000000 1.0
C      1  0.5033840000000  0.5123490000000  0.5650160000000 1.0
C      1  0.4264970000000  0.4797060000000  0.4918830000000 1.0
C      1  0.5133200000000  0.5357970000000  0.5025060000000 1.0
C      1  0.4649350000000  0.4262870000000  0.5266600000000 1.0
C      1  0.5873540000000  0.4973300000000  0.5056380000000 1.0
C      1  0.5614420000000  0.4958460000000  0.4547340000000 1.0
C      1  0.5258720000000  0.4635390000000  0.4648040000000 1.0
C      1  0.4987170000000  0.5549300000000  0.4633450000000 1.0
C      1  0.4758730000000  0.4436970000000  0.4641450000000 1.0
C      1  0.5439000000000  0.4882250000000  0.5499670000000 1.0
C      1  0.4642170000000  0.5530280000000  0.4970980000000 1.0
C      1  0.4588140000000  0.4955120000000  0.5533820000000 1.0
C      1  0.5222240000000  0.4895960000000  0.5695130000000 1.0
C      1  0.5812350000000  0.5181720000000  0.5226130000000 1.0
C      1  0.5446970000000  0.5482480000000  0.4706270000000 1.0
C      1  0.5057750000000  0.5245330000000  0.4593000000000 1.0
C      1  0.4374100000000  0.5251960000000  0.5164370000000 1.0
C      1  0.4310910000000  0.4684970000000  0.4659460000000 1.0
C      1  0.5471470000000  0.4936690000000  0.5018400000000 1.0
C      1  0.4468400000000  0.4362280000000  0.5047230000000 1.0
C      1  0.5583340000000  0.4668500000000  0.5370370000000 1.0
C      1  0.4764460000000  0.5400160000000  0.5409310000000 1.0
C      1  0.5644140000000  0.5385140000000  0.5149740000000 1.0
C      1  0.4908040000000  0.4835350000000  0.5223320000000 1.0
C      1  0.5190710000000  0.4978960000000  0.4259800000000 1.0
C      1  0.5354800000000  0.5061790000000  0.5278720000000 1.0
C      1  0.4922290000000  0.5091680000000  0.4353410000000 1.0
C      1  0.5168370000000  0.4402330000000  0.5479580000000 1.0
C      1  0.4834090000000  0.4214330000000  0.5052710000000 1.0
C      1  0.4675020000000  0.4748990000000  0.4875400000000 1.0
C      1  0.4632220000000  0.4724140000000  0.5343690000000 1.0
C      1  0.4808550000000  0.4993330000000  0.4972030000000 1.0
C      1  0.5264250000000  0.4726690000000  0.4345240000000 1.0
C      1  0.4549240000000  0.5207130000000  0.5404260000000 1.0
C      1  0.5688920000000  0.5069220000000  0.4810360000000 1.0
C      1  0.4865800000000  0.5513380000000  0.5164610000000 1.0
C      1  0.4638190000000  0.4269850000000  0.4839460000000 1.0
C      1  0.4367430000000  0.5529710000000  0.5101640000000 1.0
C      1  0.4504360000000  0.5131560000000  0.4444700000000 1.0
C      1  0.4941540000000  0.4483850000000  0.5602390000000 1.0
C      1  0.5046820000000  0.4385910000000  0.4978620000000 1.0
C      1  0.4681590000000  0.4905960000000  0.4414740000000 1.0
C      1  0.5359060000000  0.5359000000000  0.5251060000000 1.0
C      1  0.5126040000000  0.4637530000000  0.5111130000000 1.0
C      1  0.5182900000000  0.5820420000000  0.5027410000000 1.0
C      1  0.4610530000000  0.5226920000000  0.4927330000000 1.0
C      1  0.5076620000000  0.5027020000000  0.5354670000000 1.0
C      1  0.5076810000000  0.5731200000000  0.5256280000000 1.0
C      1  0.5003750000000  0.5395440000000  0.5576800000000 1.0
C      1  0.4256410000000  0.5079530000000  0.4924890000000 1.0
C      1  0.4596590000000  0.4682720000000  0.4584840000000 1.0
C      1  0.5649800000000  0.5358710000000  0.4853870000000 1.0
C      1  0.5239280000000  0.4826400000000  0.4888360000000 1.0
C      1  0.5063480000000  0.5096110000000  0.4867150000000 1.0
C      1  0.4413410000000  0.5181070000000  0.4709250000000 1.0
C      1  0.5331720000000  0.4549960000000  0.5322080000000 1.0
C      1  0.4695290000000  0.4461650000000  0.5457100000000 1.0
C      1  0.4717280000000  0.5642240000000  0.4709370000000 1.0
C      1  0.5497790000000  0.4697160000000  0.4491720000000 1.0
C      1  0.4710460000000  0.5311850000000  0.4334200000000 1.0
C      1  0.4987400000000  0.4722710000000  0.5742840000000 1.0
C      1  0.5331420000000  0.5322920000000  0.4512160000000 1.0
C      1  0.5442320000000  0.5116000000000  0.4373310000000 1.0
C      1  0.4479730000000  0.4653790000000  0.5077080000000 1.0
C      1  0.4750610000000  0.5566270000000  0.4451820000000 1.0
C      1  0.5047640000000  0.4438850000000  0.4697090000000 1.0
C      1  0.5208370000000  0.5544130000000  0.5436200000000 1.0
C      1  0.4801020000000  0.4947890000000  0.5716300000000 1.0
C      1  0.5694350000000  0.4768070000000  0.5135220000000 1.0
END
