TITL C-121233-6239-6 -7.67400497934001 125000 -213.81841065221 0 0 32 (C1) n - 1
REM
REM in /rds/project/t2_vol4/rds-t2-cs072/BORA/CARBON/from-Arr/AIRSS/Generating-Clusters/GAP-ML-2020/Only-C1/SD-CG/HFTN-CG
REM
REM
REM
REM
REM
REM ./C.cell (11c1c37f851c82e70ff6c80c92926a4b)
REM AIRSS Version 0.9.1 bugfix July 2018 build 013d7b7c2542+ Fri, 06 Jul 2018 19:26:36 +0100
REM compiler GCC version 9.3.0
REM options -cpp -mtune=generic -march=x86-64 -g -O0
REM seed 1904741211 970358319 943669989 -1457117476 51141734 1727180066 -1490882760 1585435514 1515443681 -989417131 1586773892 -2118785473 -1466811532 -1775717410 1972488829 1083268088 -1009518871 -1406914780 -1635245155 -232771921 -234634270 1264949073 -797420139 1764980270 -710329218 -1900906469 -1392761276 -1086065566 -4011478 1806079097 -357810644 -148496145 -1205647404
REM
CELL 1.54180   50.00000   50.00000   50.00000   90.00000   90.00000   90.00000
LATT -1
SFAC C  
C      1  0.4810940000000  0.5110200000000  0.4649150000000 1.0
C      1  0.5006470000000  0.4724120000000  0.4864010000000 1.0
C      1  0.4874390000000  0.4453430000000  0.4833160000000 1.0
C      1  0.5529140000000  0.5124790000000  0.5042400000000 1.0
C      1  0.4975540000000  0.4928900000000  0.5482200000000 1.0
C      1  0.4698660000000  0.4942780000000  0.5412070000000 1.0
C      1  0.5017010000000  0.4918250000000  0.4638260000000 1.0
C      1  0.5162340000000  0.5434530000000  0.4734630000000 1.0
C      1  0.4870900000000  0.5377650000000  0.5371840000000 1.0
C      1  0.4626520000000  0.4528210000000  0.4698160000000 1.0
C      1  0.5203090000000  0.5508780000000  0.5017760000000 1.0
C      1  0.5464570000000  0.4861590000000  0.5011740000000 1.0
C      1  0.5078340000000  0.5201960000000  0.5475220000000 1.0
C      1  0.4639070000000  0.5203710000000  0.5311680000000 1.0
C      1  0.5335130000000  0.5269870000000  0.5430460000000 1.0
C      1  0.4880850000000  0.4342490000000  0.5086010000000 1.0
C      1  0.4742180000000  0.5453090000000  0.4936630000000 1.0
C      1  0.4725460000000  0.4789460000000  0.4990840000000 1.0
C      1  0.4508390000000  0.4749370000000  0.4786320000000 1.0
C      1  0.4598010000000  0.5025790000000  0.4830730000000 1.0
C      1  0.4654160000000  0.4703340000000  0.5259840000000 1.0
C      1  0.5546220000000  0.4790760000000  0.4750720000000 1.0
C      1  0.5498360000000  0.4829450000000  0.4505910000000 1.0
C      1  0.4937340000000  0.5527250000000  0.5135450000000 1.0
C      1  0.5331370000000  0.5273780000000  0.4597570000000 1.0
C      1  0.4569350000000  0.5240150000000  0.5032950000000 1.0
C      1  0.5391450000000  0.5330470000000  0.5163920000000 1.0
C      1  0.5272390000000  0.5008270000000  0.4539850000000 1.0
C      1  0.5091770000000  0.4702810000000  0.5339580000000 1.0
C      1  0.5212120000000  0.4746390000000  0.5084950000000 1.0
C      1  0.4877040000000  0.5383940000000  0.4693200000000 1.0
C      1  0.4871410000000  0.4514410000000  0.5292790000000 1.0
END
