TITL C-120602-4510-8 0.128799443324784 125000 -342.63579797008 0 0 51 (C1) n - 1
REM
REM in /rds/project/t2_vol4/rds-t2-cs072/BORA/CARBON/from-Arr/AIRSS/Generating-Clusters/GAP-ML-2020/Only-C1/SD-CG/HFTN-CG
REM
REM
REM
REM
REM
REM ./C.cell (11c1c37f851c82e70ff6c80c92926a4b)
REM AIRSS Version 0.9.1 bugfix July 2018 build 013d7b7c2542+ Fri, 06 Jul 2018 19:26:36 +0100
REM compiler GCC version 9.3.0
REM options -cpp -mtune=generic -march=x86-64 -g -O0
REM seed -1152141817 840444536 -2131675665 1539636863 1571115805 1171734111 1383310928 -333072457 -685022925 -1170669426 737561786 1563868063 -1365856885 -603217371 -493547484 465976640 2004800060 -2070529306 -1359428825 -1586713813 1908950142 1582612267 -181578499 1152471564 -383351260 1552638815 1740265943 2132935636 420315954 -589464001 1790546654 2075010128 467863938
REM
CELL 1.54180   50.00000   50.00000   50.00000   90.00000   90.00000   90.00000
LATT -1
SFAC C  
C      1  0.5022800000000  0.5653020000000  0.4802290000000 1.0
C      1  0.5040440000000  0.5162050000000  0.4358870000000 1.0
C      1  0.4754490000000  0.4638390000000  0.4472820000000 1.0
C      1  0.5196220000000  0.5367670000000  0.4448190000000 1.0
C      1  0.4632200000000  0.5012860000000  0.5438130000000 1.0
C      1  0.4942480000000  0.4854590000000  0.5735700000000 1.0
C      1  0.4699740000000  0.4512060000000  0.5137410000000 1.0
C      1  0.5122680000000  0.4550070000000  0.5432270000000 1.0
C      1  0.4749570000000  0.5162170000000  0.4429510000000 1.0
C      1  0.5408340000000  0.4981680000000  0.4833600000000 1.0
C      1  0.4470610000000  0.5353260000000  0.4801790000000 1.0
C      1  0.5446860000000  0.4867430000000  0.5301790000000 1.0
C      1  0.5690170000000  0.4587910000000  0.4649240000000 1.0
C      1  0.4765610000000  0.4353790000000  0.4891140000000 1.0
C      1  0.4972730000000  0.5139620000000  0.5730600000000 1.0
C      1  0.5314060000000  0.4457460000000  0.4989550000000 1.0
C      1  0.4733280000000  0.4771210000000  0.5554730000000 1.0
C      1  0.5369330000000  0.4930620000000  0.5574260000000 1.0
C      1  0.4747290000000  0.5245900000000  0.5580730000000 1.0
C      1  0.5437730000000  0.4485120000000  0.4725450000000 1.0
C      1  0.5393450000000  0.5091190000000  0.5098120000000 1.0
C      1  0.4897850000000  0.5231380000000  0.5092980000000 1.0
C      1  0.4642900000000  0.4903210000000  0.4518580000000 1.0
C      1  0.4760510000000  0.5612120000000  0.4707810000000 1.0
C      1  0.4786760000000  0.5523270000000  0.5171800000000 1.0
C      1  0.4742550000000  0.5482410000000  0.5452060000000 1.0
C      1  0.4532750000000  0.4886460000000  0.4779850000000 1.0
C      1  0.5241190000000  0.5197800000000  0.5620970000000 1.0
C      1  0.5040260000000  0.4645330000000  0.4413620000000 1.0
C      1  0.4993460000000  0.5201300000000  0.4824790000000 1.0
C      1  0.5617700000000  0.4822630000000  0.4734870000000 1.0
C      1  0.5046550000000  0.4451770000000  0.4852530000000 1.0
C      1  0.4715960000000  0.4781720000000  0.5000750000000 1.0
C      1  0.5275250000000  0.5549080000000  0.5189050000000 1.0
C      1  0.5131020000000  0.4909600000000  0.4456870000000 1.0
C      1  0.5381220000000  0.5381020000000  0.4981350000000 1.0
C      1  0.5129620000000  0.4949290000000  0.4753280000000 1.0
C      1  0.4829330000000  0.4545750000000  0.5385280000000 1.0
C      1  0.5187930000000  0.4464210000000  0.4586840000000 1.0
C      1  0.4463690000000  0.5113100000000  0.4930760000000 1.0
C      1  0.5183700000000  0.4728970000000  0.5656580000000 1.0
C      1  0.4664240000000  0.5044380000000  0.5145790000000 1.0
C      1  0.5133300000000  0.5165250000000  0.5245400000000 1.0
C      1  0.5333340000000  0.4598090000000  0.5233420000000 1.0
C      1  0.4639100000000  0.5389620000000  0.4559160000000 1.0
C      1  0.4663140000000  0.4440430000000  0.4649960000000 1.0
C      1  0.5039820000000  0.5674420000000  0.5084380000000 1.0
C      1  0.4597040000000  0.5570880000000  0.4941170000000 1.0
C      1  0.5192900000000  0.5425620000000  0.4730880000000 1.0
C      1  0.5239530000000  0.5389230000000  0.5420460000000 1.0
C      1  0.4987280000000  0.4743590000000  0.4892560000000 1.0
END
