TITL C-120610-4547-5 -10.1668040193838 125000 -688.898214018043 0 0 99 (C1) n - 1
REM
REM in /rds/project/t2_vol4/rds-t2-cs072/BORA/CARBON/from-Arr/AIRSS/Generating-Clusters/GAP-ML-2020/Only-C1/SD-CG/HFTN-CG
REM
REM
REM
REM
REM
REM ./C.cell (11c1c37f851c82e70ff6c80c92926a4b)
REM AIRSS Version 0.9.1 bugfix July 2018 build 013d7b7c2542+ Fri, 06 Jul 2018 19:26:36 +0100
REM compiler GCC version 9.3.0
REM options -cpp -mtune=generic -march=x86-64 -g -O0
REM seed 1481073733 2122949210 -1029462426 1369786060 -535172016 1186914982 -15873874 -512842425 638752255 -1745973126 -1457783761 -1416800018 -1007366804 -206357060 309495728 1276361331 867753771 -664363103 -470168046 -39946534 -2102255401 284404566 283155911 -1242316017 -1287133747 -1437869436 345966875 1767335715 -2023023331 -767307737 -1275013909 -962870053 -782176239
REM
CELL 1.54180   50.00000   50.00000   50.00000   90.00000   90.00000   90.00000
LATT -1
SFAC C  
C      1  0.5738780000000  0.5549160000000  0.5070270000000 1.0
C      1  0.4214600000000  0.4868020000000  0.4978290000000 1.0
C      1  0.4241370000000  0.5148640000000  0.5351760000000 1.0
C      1  0.5714730000000  0.5047280000000  0.5196410000000 1.0
C      1  0.5615580000000  0.5654340000000  0.4823870000000 1.0
C      1  0.5838010000000  0.5281920000000  0.5039300000000 1.0
C      1  0.5412050000000  0.4792590000000  0.4350880000000 1.0
C      1  0.4921940000000  0.5748270000000  0.4991540000000 1.0
C      1  0.4394400000000  0.4672790000000  0.4536510000000 1.0
C      1  0.5244110000000  0.4972680000000  0.5739690000000 1.0
C      1  0.4581340000000  0.5607870000000  0.4648310000000 1.0
C      1  0.4804240000000  0.4781590000000  0.5386400000000 1.0
C      1  0.5655110000000  0.5438620000000  0.4638760000000 1.0
C      1  0.5586360000000  0.4610220000000  0.5396070000000 1.0
C      1  0.5377400000000  0.5811190000000  0.4885190000000 1.0
C      1  0.4467020000000  0.5346400000000  0.4560530000000 1.0
C      1  0.4498350000000  0.5019490000000  0.4200630000000 1.0
C      1  0.4299590000000  0.4867870000000  0.4330740000000 1.0
C      1  0.4580000000000  0.5448610000000  0.5421940000000 1.0
C      1  0.4683160000000  0.4488050000000  0.5687220000000 1.0
C      1  0.5373550000000  0.4746950000000  0.5834680000000 1.0
C      1  0.4670320000000  0.4914600000000  0.5186790000000 1.0
C      1  0.5069550000000  0.4879220000000  0.4656290000000 1.0
C      1  0.5584960000000  0.4364330000000  0.5027700000000 1.0
C      1  0.4824840000000  0.5235000000000  0.5745080000000 1.0
C      1  0.4742550000000  0.4571200000000  0.4234020000000 1.0
C      1  0.5311570000000  0.4436190000000  0.4937580000000 1.0
C      1  0.4429350000000  0.5233550000000  0.5538980000000 1.0
C      1  0.4979540000000  0.4962820000000  0.4148610000000 1.0
C      1  0.5570550000000  0.5626190000000  0.5284910000000 1.0
C      1  0.4209190000000  0.5224850000000  0.4639180000000 1.0
C      1  0.5534330000000  0.4329450000000  0.5299760000000 1.0
C      1  0.5176140000000  0.5305120000000  0.4741410000000 1.0
C      1  0.5022250000000  0.4516840000000  0.4260920000000 1.0
C      1  0.4762970000000  0.5262130000000  0.4968010000000 1.0
C      1  0.5766960000000  0.4753080000000  0.5204280000000 1.0
C      1  0.4952010000000  0.4437790000000  0.5611460000000 1.0
C      1  0.4719340000000  0.4846490000000  0.4136490000000 1.0
C      1  0.5674050000000  0.4974860000000  0.4704850000000 1.0
C      1  0.5231340000000  0.5421470000000  0.5884560000000 1.0
C      1  0.5371300000000  0.4467150000000  0.5789800000000 1.0
C      1  0.4970720000000  0.5456680000000  0.4881930000000 1.0
C      1  0.4338800000000  0.4702480000000  0.5436560000000 1.0
C      1  0.5143930000000  0.5163750000000  0.5238500000000 1.0
C      1  0.5495270000000  0.4986950000000  0.4974360000000 1.0
C      1  0.4594660000000  0.4468430000000  0.4459910000000 1.0
C      1  0.4540860000000  0.5462210000000  0.5124530000000 1.0
C      1  0.5712280000000  0.4686400000000  0.4710080000000 1.0
C      1  0.5424760000000  0.5306870000000  0.4525730000000 1.0
C      1  0.4987980000000  0.5217950000000  0.4279900000000 1.0
C      1  0.4851160000000  0.4709580000000  0.4676530000000 1.0
C      1  0.5288010000000  0.5518840000000  0.5635140000000 1.0
C      1  0.4189040000000  0.4877080000000  0.5285810000000 1.0
C      1  0.4153320000000  0.4753520000000  0.4705330000000 1.0
C      1  0.5506270000000  0.4584980000000  0.4534030000000 1.0
C      1  0.4817100000000  0.4405180000000  0.4666220000000 1.0
C      1  0.4280490000000  0.5316860000000  0.5124490000000 1.0
C      1  0.4606080000000  0.4847640000000  0.4716910000000 1.0
C      1  0.5815310000000  0.5232400000000  0.4758830000000 1.0
C      1  0.4434120000000  0.4446560000000  0.5318380000000 1.0
C      1  0.4627970000000  0.5681680000000  0.4933490000000 1.0
C      1  0.5303910000000  0.5008000000000  0.5447460000000 1.0
C      1  0.4791990000000  0.5655350000000  0.4449250000000 1.0
C      1  0.4791140000000  0.5425860000000  0.4253040000000 1.0
C      1  0.5299520000000  0.4735700000000  0.5330040000000 1.0
C      1  0.4991320000000  0.5837870000000  0.4523380000000 1.0
C      1  0.5565820000000  0.5150940000000  0.5429910000000 1.0
C      1  0.5305040000000  0.4752370000000  0.5030340000000 1.0
C      1  0.4690310000000  0.5140330000000  0.4701920000000 1.0
C      1  0.4119380000000  0.4983320000000  0.4519930000000 1.0
C      1  0.5049940000000  0.4843820000000  0.4934800000000 1.0
C      1  0.4802290000000  0.4347670000000  0.4961160000000 1.0
C      1  0.5026980000000  0.4589450000000  0.5363670000000 1.0
C      1  0.4494800000000  0.4326070000000  0.5559380000000 1.0
C      1  0.5108480000000  0.5862320000000  0.4770240000000 1.0
C      1  0.4815340000000  0.5471810000000  0.5575260000000 1.0
C      1  0.4561770000000  0.4474810000000  0.5063010000000 1.0
C      1  0.5080240000000  0.5760320000000  0.5250410000000 1.0
C      1  0.5049260000000  0.5616960000000  0.5495120000000 1.0
C      1  0.5518100000000  0.5433550000000  0.5480720000000 1.0
C      1  0.5086770000000  0.5180090000000  0.5856110000000 1.0
C      1  0.4903950000000  0.5044140000000  0.5112010000000 1.0
C      1  0.4597110000000  0.5065400000000  0.5695270000000 1.0
C      1  0.5306680000000  0.4410680000000  0.4642290000000 1.0
C      1  0.5577850000000  0.4616130000000  0.5685280000000 1.0
C      1  0.5281570000000  0.4232920000000  0.5368730000000 1.0
C      1  0.4516120000000  0.4765360000000  0.4986380000000 1.0
C      1  0.5304330000000  0.5212690000000  0.4999430000000 1.0
C      1  0.4595650000000  0.4775610000000  0.5604210000000 1.0
C      1  0.5195250000000  0.4301910000000  0.5635460000000 1.0
C      1  0.5351970000000  0.5786250000000  0.5169850000000 1.0
C      1  0.4980910000000  0.5143380000000  0.4580150000000 1.0
C      1  0.5065200000000  0.4370860000000  0.4505120000000 1.0
C      1  0.5075640000000  0.4361260000000  0.5131910000000 1.0
C      1  0.5505090000000  0.5036370000000  0.4471290000000 1.0
C      1  0.4539650000000  0.5296350000000  0.4274870000000 1.0
C      1  0.5172510000000  0.4752110000000  0.4202460000000 1.0
C      1  0.4193260000000  0.5162130000000  0.4913620000000 1.0
C      1  0.5761940000000  0.4578950000000  0.4970140000000 1.0
END
