TITL C-125537-3335-6 -0.0931462086413978 125000 -769.375173168874 0 0 108 (C1) n - 1
REM
REM in /rds/project/t2_vol4/rds-t2-cs072/BORA/CARBON/from-Arr/AIRSS/Generating-Clusters/GAP-ML-2020/Only-C1/SD-CG/HFTN-CG
REM
REM
REM
REM
REM
REM ./C.cell (11c1c37f851c82e70ff6c80c92926a4b)
REM AIRSS Version 0.9.1 bugfix July 2018 build 013d7b7c2542+ Fri, 06 Jul 2018 19:26:36 +0100
REM compiler GCC version 9.3.0
REM options -cpp -mtune=generic -march=x86-64 -g -O0
REM seed 1820117504 -1671997291 -64558385 -1120371922 1056775236 -286521009 -178462298 -2031403512 1106036751 1446112189 2126991798 1417627167 54753154 2103830107 1087354409 553465143 1557515215 -1057886435 -136093910 1989726827 495580174 897881992 -149978949 -1355913152 229994171 1190968180 -1461592587 -160194836 -1958907881 -695330208 -530616612 -1380750759 -1775960321
REM
CELL 1.54180   50.00000   50.00000   50.00000   90.00000   90.00000   90.00000
LATT -1
SFAC C  
C      1  0.5196790000000  0.4575210000000  0.5057640000000 1.0
C      1  0.5822000000000  0.5365490000000  0.5235700000000 1.0
C      1  0.4117160000000  0.5098430000000  0.4852580000000 1.0
C      1  0.4081330000000  0.5257020000000  0.4393690000000 1.0
C      1  0.5047440000000  0.4470350000000  0.4390380000000 1.0
C      1  0.5855050000000  0.5002120000000  0.4938620000000 1.0
C      1  0.4841610000000  0.4923180000000  0.5905520000000 1.0
C      1  0.4267180000000  0.5172870000000  0.4188100000000 1.0
C      1  0.5527940000000  0.5035590000000  0.4566970000000 1.0
C      1  0.4797810000000  0.5771790000000  0.4626730000000 1.0
C      1  0.5720290000000  0.4593440000000  0.4682060000000 1.0
C      1  0.5347350000000  0.5238160000000  0.5823470000000 1.0
C      1  0.4543250000000  0.4409250000000  0.5182260000000 1.0
C      1  0.5432420000000  0.4782480000000  0.5428930000000 1.0
C      1  0.4722900000000  0.4212540000000  0.5081160000000 1.0
C      1  0.5169430000000  0.4362430000000  0.5656460000000 1.0
C      1  0.5333460000000  0.4300600000000  0.5428590000000 1.0
C      1  0.4674220000000  0.4647270000000  0.5036830000000 1.0
C      1  0.5559550000000  0.5262950000000  0.4374400000000 1.0
C      1  0.5337470000000  0.4975250000000  0.5918010000000 1.0
C      1  0.5487030000000  0.4744520000000  0.5815640000000 1.0
C      1  0.4678670000000  0.4472880000000  0.5652070000000 1.0
C      1  0.5327180000000  0.5600380000000  0.5203960000000 1.0
C      1  0.5748880000000  0.5247370000000  0.5467750000000 1.0
C      1  0.5240390000000  0.4576070000000  0.5831420000000 1.0
C      1  0.4752770000000  0.4298860000000  0.4791970000000 1.0
C      1  0.4609070000000  0.4565210000000  0.4744870000000 1.0
C      1  0.4574680000000  0.4970890000000  0.4471260000000 1.0
C      1  0.5813140000000  0.5294590000000  0.4975450000000 1.0
C      1  0.5438640000000  0.4541570000000  0.5274580000000 1.0
C      1  0.5287760000000  0.5788910000000  0.4755630000000 1.0
C      1  0.4915960000000  0.5739610000000  0.5057780000000 1.0
C      1  0.4612730000000  0.5323800000000  0.5703410000000 1.0
C      1  0.5660690000000  0.4788600000000  0.5603620000000 1.0
C      1  0.4908530000000  0.4159120000000  0.5308140000000 1.0
C      1  0.4874030000000  0.4677590000000  0.4286750000000 1.0
C      1  0.5562340000000  0.4193460000000  0.4896230000000 1.0
C      1  0.5368890000000  0.5221270000000  0.4172970000000 1.0
C      1  0.4476500000000  0.4472520000000  0.5449840000000 1.0
C      1  0.5022680000000  0.4894940000000  0.4670870000000 1.0
C      1  0.4967210000000  0.4936830000000  0.4149080000000 1.0
C      1  0.4061620000000  0.5048770000000  0.4582650000000 1.0
C      1  0.4487980000000  0.5597470000000  0.5277510000000 1.0
C      1  0.5351540000000  0.5686320000000  0.4494480000000 1.0
C      1  0.5054690000000  0.5062730000000  0.5363840000000 1.0
C      1  0.4417440000000  0.5446830000000  0.4697090000000 1.0
C      1  0.4897760000000  0.4302590000000  0.5575380000000 1.0
C      1  0.4628380000000  0.5716580000000  0.5060820000000 1.0
C      1  0.4253000000000  0.5480430000000  0.4444390000000 1.0
C      1  0.4649270000000  0.4737820000000  0.5794980000000 1.0
C      1  0.4326700000000  0.4712910000000  0.5467400000000 1.0
C      1  0.5390610000000  0.5209680000000  0.4812170000000 1.0
C      1  0.4309360000000  0.4676320000000  0.4742520000000 1.0
C      1  0.4572000000000  0.5682040000000  0.4782720000000 1.0
C      1  0.5131030000000  0.5622410000000  0.4314400000000 1.0
C      1  0.4418710000000  0.5410800000000  0.4210370000000 1.0
C      1  0.4936900000000  0.4815130000000  0.5394640000000 1.0
C      1  0.5098490000000  0.4814380000000  0.5933820000000 1.0
C      1  0.4296700000000  0.4900400000000  0.5244980000000 1.0
C      1  0.5728090000000  0.4428740000000  0.4918230000000 1.0
C      1  0.5524130000000  0.4458450000000  0.4514590000000 1.0
C      1  0.4219310000000  0.4819880000000  0.4507500000000 1.0
C      1  0.5718010000000  0.4574890000000  0.5156690000000 1.0
C      1  0.5806540000000  0.4960050000000  0.5437900000000 1.0
C      1  0.5147810000000  0.5384860000000  0.4155600000000 1.0
C      1  0.5461220000000  0.4206650000000  0.4625360000000 1.0
C      1  0.5302130000000  0.4091800000000  0.4992100000000 1.0
C      1  0.5107870000000  0.5578340000000  0.5637160000000 1.0
C      1  0.5011890000000  0.5837370000000  0.4804180000000 1.0
C      1  0.4277220000000  0.5171250000000  0.5370820000000 1.0
C      1  0.5519070000000  0.5360150000000  0.5618140000000 1.0
C      1  0.4421650000000  0.4864830000000  0.5685910000000 1.0
C      1  0.5189440000000  0.4121460000000  0.5251950000000 1.0
C      1  0.4976540000000  0.4276750000000  0.4609630000000 1.0
C      1  0.5843060000000  0.4838820000000  0.5177360000000 1.0
C      1  0.4905020000000  0.5226680000000  0.4150960000000 1.0
C      1  0.5348170000000  0.5010540000000  0.5014170000000 1.0
C      1  0.5193080000000  0.4798880000000  0.4900990000000 1.0
C      1  0.4222380000000  0.4855580000000  0.4962100000000 1.0
C      1  0.5066550000000  0.5482180000000  0.5095850000000 1.0
C      1  0.4745750000000  0.5127390000000  0.5022380000000 1.0
C      1  0.4949100000000  0.4664950000000  0.5161300000000 1.0
C      1  0.4857470000000  0.5647100000000  0.4381820000000 1.0
C      1  0.5086120000000  0.5360050000000  0.5824680000000 1.0
C      1  0.5199890000000  0.4129360000000  0.4713410000000 1.0
C      1  0.5358150000000  0.5562430000000  0.5487340000000 1.0
C      1  0.5600900000000  0.5447110000000  0.4822060000000 1.0
C      1  0.4631810000000  0.5562600000000  0.5531720000000 1.0
C      1  0.4704040000000  0.5396900000000  0.4294700000000 1.0
C      1  0.4758480000000  0.4752640000000  0.4543130000000 1.0
C      1  0.5307900000000  0.4586860000000  0.4401920000000 1.0
C      1  0.4412180000000  0.5143810000000  0.5619380000000 1.0
C      1  0.5749710000000  0.4877810000000  0.4699330000000 1.0
C      1  0.5115930000000  0.5342180000000  0.4808370000000 1.0
C      1  0.4876110000000  0.5681310000000  0.5550460000000 1.0
C      1  0.5569260000000  0.5505030000000  0.4522330000000 1.0
C      1  0.4644630000000  0.5238090000000  0.4564500000000 1.0
C      1  0.4910750000000  0.5256230000000  0.5216770000000 1.0
C      1  0.4836230000000  0.5213200000000  0.5847840000000 1.0
C      1  0.4570680000000  0.4911340000000  0.5095540000000 1.0
C      1  0.4248630000000  0.5341770000000  0.4924530000000 1.0
C      1  0.4368490000000  0.4917880000000  0.4284200000000 1.0
C      1  0.5456690000000  0.5673610000000  0.4958370000000 1.0
C      1  0.5329720000000  0.5025640000000  0.5291030000000 1.0
C      1  0.5288820000000  0.4873070000000  0.4458740000000 1.0
C      1  0.4888020000000  0.5162030000000  0.4751970000000 1.0
C      1  0.5241090000000  0.4966510000000  0.4190550000000 1.0
C      1  0.4299650000000  0.5395940000000  0.5198890000000 1.0
END
