TITL C-121986-4402-2 -1304.13315422005 125000 -886.146065885725 0 0 128 (C1) n - 1
REM
REM in /rds/project/t2_vol4/rds-t2-cs072/BORA/CARBON/from-Arr/AIRSS/Generating-Clusters/GAP-ML-2020/Only-C1/SD-CG/HFTN-CG
REM
REM
REM
REM
REM
REM ./C.cell (11c1c37f851c82e70ff6c80c92926a4b)
REM AIRSS Version 0.9.1 bugfix July 2018 build 013d7b7c2542+ Fri, 06 Jul 2018 19:26:36 +0100
REM compiler GCC version 9.3.0
REM options -cpp -mtune=generic -march=x86-64 -g -O0
REM seed -2101785849 -1723367598 -1946580697 -716961998 -913193453 1547047361 530018537 -2014000067 -915939366 591566553 -1126492324 -468719577 1801366407 1310910940 1318114594 547889690 947889553 -1007996945 -1095851818 -518013522 -893725949 -1695982665 -1145841048 1090570685 1819852865 965194240 1428104673 1179155776 -676803564 39760769 1973350076 -1140755539 158259834
REM
CELL 1.54180   50.00000   50.00000   50.00000   90.00000   90.00000   90.00000
LATT -1
SFAC C  
C      1  0.4473200000000  0.4319520000000  0.5411170000000 1.0
C      1  0.4890680000000  0.4469420000000  0.4247640000000 1.0
C      1  0.4608190000000  0.4035090000000  0.4851900000000 1.0
C      1  0.4939830000000  0.5270620000000  0.5141930000000 1.0
C      1  0.5033070000000  0.5673150000000  0.4390900000000 1.0
C      1  0.5177870000000  0.5361450000000  0.4116610000000 1.0
C      1  0.5941590000000  0.5325490000000  0.5019290000000 1.0
C      1  0.4930890000000  0.4705440000000  0.5481710000000 1.0
C      1  0.4154040000000  0.5028560000000  0.4527770000000 1.0
C      1  0.5246080000000  0.4954340000000  0.5041110000000 1.0
C      1  0.5109210000000  0.5609270000000  0.4696040000000 1.0
C      1  0.4957910000000  0.4525800000000  0.5752590000000 1.0
C      1  0.4813360000000  0.5163130000000  0.4698550000000 1.0
C      1  0.4721470000000  0.5878260000000  0.4716960000000 1.0
C      1  0.5380440000000  0.5744000000000  0.4749020000000 1.0
C      1  0.5211210000000  0.4692650000000  0.5405550000000 1.0
C      1  0.4741460000000  0.5030750000000  0.4140840000000 1.0
C      1  0.4554340000000  0.4726230000000  0.4819950000000 1.0
C      1  0.5418000000000  0.5367730000000  0.5182760000000 1.0
C      1  0.5565600000000  0.5101440000000  0.5262080000000 1.0
C      1  0.5355320000000  0.4418420000000  0.4347030000000 1.0
C      1  0.5840420000000  0.5377950000000  0.5297900000000 1.0
C      1  0.5450470000000  0.4887270000000  0.4128730000000 1.0
C      1  0.5261530000000  0.5111760000000  0.4545690000000 1.0
C      1  0.4387520000000  0.4073360000000  0.4971700000000 1.0
C      1  0.4838290000000  0.4989830000000  0.5441000000000 1.0
C      1  0.4918450000000  0.5805610000000  0.5394930000000 1.0
C      1  0.4200100000000  0.5294970000000  0.4430050000000 1.0
C      1  0.4750720000000  0.4865140000000  0.4632110000000 1.0
C      1  0.5424520000000  0.5919190000000  0.4966760000000 1.0
C      1  0.4668940000000  0.4562290000000  0.5814320000000 1.0
C      1  0.5724020000000  0.4194090000000  0.4942510000000 1.0
C      1  0.4923200000000  0.5458690000000  0.4193430000000 1.0
C      1  0.5045280000000  0.5189580000000  0.5936430000000 1.0
C      1  0.4667340000000  0.5705610000000  0.5459130000000 1.0
C      1  0.5511350000000  0.4220960000000  0.4769920000000 1.0
C      1  0.5028450000000  0.4391600000000  0.4719860000000 1.0
C      1  0.5287050000000  0.5887310000000  0.5225040000000 1.0
C      1  0.5611750000000  0.4759760000000  0.5747320000000 1.0
C      1  0.4756570000000  0.5488400000000  0.5035860000000 1.0
C      1  0.4988220000000  0.4800390000000  0.5016930000000 1.0
C      1  0.4992840000000  0.4715950000000  0.4723720000000 1.0
C      1  0.4108210000000  0.4692310000000  0.4848850000000 1.0
C      1  0.4610350000000  0.5327640000000  0.4824390000000 1.0
C      1  0.5679880000000  0.4416720000000  0.5120600000000 1.0
C      1  0.4127620000000  0.5482230000000  0.4914470000000 1.0
C      1  0.4583880000000  0.4461820000000  0.4935230000000 1.0
C      1  0.5669240000000  0.4680240000000  0.4931380000000 1.0
C      1  0.5540510000000  0.5480330000000  0.4419080000000 1.0
C      1  0.5048750000000  0.4654010000000  0.4090930000000 1.0
C      1  0.5788050000000  0.4930500000000  0.5601550000000 1.0
C      1  0.5614020000000  0.5606240000000  0.4667710000000 1.0
C      1  0.5658930000000  0.4976030000000  0.4306100000000 1.0
C      1  0.5012500000000  0.5890460000000  0.5131420000000 1.0
C      1  0.4921930000000  0.4928980000000  0.5969240000000 1.0
C      1  0.4135460000000  0.4909480000000  0.5402970000000 1.0
C      1  0.5330470000000  0.4625270000000  0.4145860000000 1.0
C      1  0.5415230000000  0.4319970000000  0.5197810000000 1.0
C      1  0.4575090000000  0.5146850000000  0.5551200000000 1.0
C      1  0.4788580000000  0.4984660000000  0.5140780000000 1.0
C      1  0.4988010000000  0.4931260000000  0.4050250000000 1.0
C      1  0.4802950000000  0.4276350000000  0.4892990000000 1.0
C      1  0.4683860000000  0.5307410000000  0.4181500000000 1.0
C      1  0.5972220000000  0.5059080000000  0.4919940000000 1.0
C      1  0.5249180000000  0.4282670000000  0.4950000000000 1.0
C      1  0.5371650000000  0.4859160000000  0.5873280000000 1.0
C      1  0.5839170000000  0.4832260000000  0.4488090000000 1.0
C      1  0.4454370000000  0.4954550000000  0.5744200000000 1.0
C      1  0.4857800000000  0.5397610000000  0.5895420000000 1.0
C      1  0.4165210000000  0.4553190000000  0.5087630000000 1.0
C      1  0.4509170000000  0.4904740000000  0.5047660000000 1.0
C      1  0.5788750000000  0.4519200000000  0.5383370000000 1.0
C      1  0.5187840000000  0.5717050000000  0.5446000000000 1.0
C      1  0.4617360000000  0.5340830000000  0.5773060000000 1.0
C      1  0.4681300000000  0.4148600000000  0.5442170000000 1.0
C      1  0.4429070000000  0.5174440000000  0.5010700000000 1.0
C      1  0.5603120000000  0.4508750000000  0.5594820000000 1.0
C      1  0.5780880000000  0.5526940000000  0.4890460000000 1.0
C      1  0.5192890000000  0.5252140000000  0.4993560000000 1.0
C      1  0.4064730000000  0.4973450000000  0.4798440000000 1.0
C      1  0.4998400000000  0.4292970000000  0.5131100000000 1.0
C      1  0.5324550000000  0.5146260000000  0.5854820000000 1.0
C      1  0.4630400000000  0.4561220000000  0.4294680000000 1.0
C      1  0.5652370000000  0.5565770000000  0.5161500000000 1.0
C      1  0.4378570000000  0.4355120000000  0.5117800000000 1.0
C      1  0.4991750000000  0.4589810000000  0.5211740000000 1.0
C      1  0.5466420000000  0.5310340000000  0.5668640000000 1.0
C      1  0.5881500000000  0.4783020000000  0.5369440000000 1.0
C      1  0.4709130000000  0.5586360000000  0.5706770000000 1.0
C      1  0.4448370000000  0.4517780000000  0.5622160000000 1.0
C      1  0.5101650000000  0.5288520000000  0.4713850000000 1.0
C      1  0.5790990000000  0.4898770000000  0.5108090000000 1.0
C      1  0.4460500000000  0.5389470000000  0.4337410000000 1.0
C      1  0.4334330000000  0.5663910000000  0.5011710000000 1.0
C      1  0.4869270000000  0.5893850000000  0.4485830000000 1.0
C      1  0.5231250000000  0.5081280000000  0.4057650000000 1.0
C      1  0.4275800000000  0.4775030000000  0.5204990000000 1.0
C      1  0.4618730000000  0.4856160000000  0.4341970000000 1.0
C      1  0.5311990000000  0.5568350000000  0.4274100000000 1.0
C      1  0.4315470000000  0.4840750000000  0.4390910000000 1.0
C      1  0.5102600000000  0.4308960000000  0.5606620000000 1.0
C      1  0.4460900000000  0.5772120000000  0.4762460000000 1.0
C      1  0.4655450000000  0.4828980000000  0.5907130000000 1.0
C      1  0.5703870000000  0.5202270000000  0.5516420000000 1.0
C      1  0.5075160000000  0.5180030000000  0.5406170000000 1.0
C      1  0.4292040000000  0.4767550000000  0.5605410000000 1.0
C      1  0.5295910000000  0.4962560000000  0.5325290000000 1.0
C      1  0.4413470000000  0.5287500000000  0.5319960000000 1.0
C      1  0.5084110000000  0.4345120000000  0.4425970000000 1.0
C      1  0.5560890000000  0.4395500000000  0.4546240000000 1.0
C      1  0.4112970000000  0.5200590000000  0.5003430000000 1.0
C      1  0.5286590000000  0.5427170000000  0.5457820000000 1.0
C      1  0.5113760000000  0.4728500000000  0.5914220000000 1.0
C      1  0.5575870000000  0.5842260000000  0.5175280000000 1.0
C      1  0.4137430000000  0.5171920000000  0.5304790000000 1.0
C      1  0.4946960000000  0.4177590000000  0.5411300000000 1.0
C      1  0.4519570000000  0.5564450000000  0.5233630000000 1.0
C      1  0.4170010000000  0.5481880000000  0.4637890000000 1.0
C      1  0.4326740000000  0.4596760000000  0.4685590000000 1.0
C      1  0.5420530000000  0.4817690000000  0.4860170000000 1.0
C      1  0.4471870000000  0.5516220000000  0.4611020000000 1.0
C      1  0.6004280000000  0.4967950000000  0.4664750000000 1.0
C      1  0.5529890000000  0.5196180000000  0.4437530000000 1.0
C      1  0.4361230000000  0.4559140000000  0.4403570000000 1.0
C      1  0.4907550000000  0.5724210000000  0.4906920000000 1.0
C      1  0.5738080000000  0.4610110000000  0.4633990000000 1.0
C      1  0.5248530000000  0.4844400000000  0.4637460000000 1.0
C      1  0.5343270000000  0.4423750000000  0.5475900000000 1.0
END
