TITL C-121234-6231-2 -0.0147708192130736 125000 -399.966409627672 0 0 59 (C1) n - 1
REM
REM in /rds/project/t2_vol4/rds-t2-cs072/BORA/CARBON/from-Arr/AIRSS/Generating-Clusters/GAP-ML-2020/Only-C1/SD-CG/HFTN-CG
REM
REM
REM
REM
REM
REM ./C.cell (11c1c37f851c82e70ff6c80c92926a4b)
REM AIRSS Version 0.9.1 bugfix July 2018 build 013d7b7c2542+ Fri, 06 Jul 2018 19:26:36 +0100
REM compiler GCC version 9.3.0
REM options -cpp -mtune=generic -march=x86-64 -g -O0
REM seed 1276389712 1436911413 1778256417 -37500276 -962030203 1430206559 654974354 -91827489 -1942520923 1948394847 -817472906 372913016 -1409664154 -1744635209 -289644114 -616666268 1994664104 -120150262 -1616871907 -1615156258 -39361695 -5486487 655356437 -967878487 151757363 -106873706 -904011918 711980185 910734775 704781159 535683743 1502238553 241007821
REM
CELL 1.54180   50.00000   50.00000   50.00000   90.00000   90.00000   90.00000
LATT -1
SFAC C  
C      1  0.4644630000000  0.5484150000000  0.5325100000000 1.0
C      1  0.5052470000000  0.4900750000000  0.5203430000000 1.0
C      1  0.4856310000000  0.5252520000000  0.4954960000000 1.0
C      1  0.5209060000000  0.5129670000000  0.5218060000000 1.0
C      1  0.5348880000000  0.4963200000000  0.4576430000000 1.0
C      1  0.5400570000000  0.4573940000000  0.4948720000000 1.0
C      1  0.4928300000000  0.4768340000000  0.4789210000000 1.0
C      1  0.4602910000000  0.5111870000000  0.4577150000000 1.0
C      1  0.4731640000000  0.4658510000000  0.4584260000000 1.0
C      1  0.5212110000000  0.4921330000000  0.5664250000000 1.0
C      1  0.5357130000000  0.4796980000000  0.4331930000000 1.0
C      1  0.4748120000000  0.4214030000000  0.4737080000000 1.0
C      1  0.4821010000000  0.4393040000000  0.4534460000000 1.0
C      1  0.5183040000000  0.5414420000000  0.5624800000000 1.0
C      1  0.5100910000000  0.5633830000000  0.5434840000000 1.0
C      1  0.4678400000000  0.5515400000000  0.5036280000000 1.0
C      1  0.5118520000000  0.4441810000000  0.4524590000000 1.0
C      1  0.4405480000000  0.5086060000000  0.5221410000000 1.0
C      1  0.4653460000000  0.4877690000000  0.4421900000000 1.0
C      1  0.4876450000000  0.5230100000000  0.4659030000000 1.0
C      1  0.5141380000000  0.4535640000000  0.4803670000000 1.0
C      1  0.5159070000000  0.4506050000000  0.5491130000000 1.0
C      1  0.4901850000000  0.4599040000000  0.5576730000000 1.0
C      1  0.5053520000000  0.4987630000000  0.4605890000000 1.0
C      1  0.5420120000000  0.5644280000000  0.5050700000000 1.0
C      1  0.4828100000000  0.5585570000000  0.5507460000000 1.0
C      1  0.5131660000000  0.5461580000000  0.4279950000000 1.0
C      1  0.4533010000000  0.4839170000000  0.5164790000000 1.0
C      1  0.4742420000000  0.4168150000000  0.4984340000000 1.0
C      1  0.5592730000000  0.5484170000000  0.4946290000000 1.0
C      1  0.5463390000000  0.5119760000000  0.5366210000000 1.0
C      1  0.5539290000000  0.4797460000000  0.5029160000000 1.0
C      1  0.4573010000000  0.5221010000000  0.5406750000000 1.0
C      1  0.5348800000000  0.4719080000000  0.5503090000000 1.0
C      1  0.4832240000000  0.4931210000000  0.5033760000000 1.0
C      1  0.4507160000000  0.4608040000000  0.5293400000000 1.0
C      1  0.5177770000000  0.5225650000000  0.4202470000000 1.0
C      1  0.4766610000000  0.5126500000000  0.5609770000000 1.0
C      1  0.5527930000000  0.4846000000000  0.5316940000000 1.0
C      1  0.5299920000000  0.4520830000000  0.4339260000000 1.0
C      1  0.4925970000000  0.4879340000000  0.5652200000000 1.0
C      1  0.4395830000000  0.5205410000000  0.4732640000000 1.0
C      1  0.4937230000000  0.4911180000000  0.4342630000000 1.0
C      1  0.5539090000000  0.5000270000000  0.4805130000000 1.0
C      1  0.5335430000000  0.5179010000000  0.5613740000000 1.0
C      1  0.4307630000000  0.5228350000000  0.5000520000000 1.0
C      1  0.5650390000000  0.5247470000000  0.4855970000000 1.0
C      1  0.5235230000000  0.4380650000000  0.5039440000000 1.0
C      1  0.5097170000000  0.5332560000000  0.5086690000000 1.0
C      1  0.4983940000000  0.5498170000000  0.4521600000000 1.0
C      1  0.4832740000000  0.4261820000000  0.5241100000000 1.0
C      1  0.5158560000000  0.4954730000000  0.4166510000000 1.0
C      1  0.4433120000000  0.5449340000000  0.4894640000000 1.0
C      1  0.5113270000000  0.4321480000000  0.5276910000000 1.0
C      1  0.5142250000000  0.5620200000000  0.5140560000000 1.0
C      1  0.4905650000000  0.5366900000000  0.5685330000000 1.0
C      1  0.4701470000000  0.4457850000000  0.5410330000000 1.0
C      1  0.4895650000000  0.5706920000000  0.4957560000000 1.0
C      1  0.4940020000000  0.5703870000000  0.4696840000000 1.0
END
