TITL C-121230-6167-4 -0.0772124262745684 125000 -324.121766057647 0 0 49 (C1) n - 1
REM
REM in /rds/project/t2_vol4/rds-t2-cs072/BORA/CARBON/from-Arr/AIRSS/Generating-Clusters/GAP-ML-2020/Only-C1/SD-CG/HFTN-CG
REM
REM
REM
REM
REM
REM ./C.cell (11c1c37f851c82e70ff6c80c92926a4b)
REM AIRSS Version 0.9.1 bugfix July 2018 build 013d7b7c2542+ Fri, 06 Jul 2018 19:26:36 +0100
REM compiler GCC version 9.3.0
REM options -cpp -mtune=generic -march=x86-64 -g -O0
REM seed -2105322709 8046006 -956127010 -2091223084 -1283336451 1254809089 -1178705368 -881578728 -175284346 1408415375 296328066 287831312 -1475486863 140079100 -1016782641 -1025420040 -1595008902 1131728551 -2064196961 1899173621 -1806112529 887663174 55763789 -933252741 324437502 1159482518 1463444375 1232093067 1702478203 -1864749260 -1711725723 1158103644 -574909840
REM
CELL 1.54180   50.00000   50.00000   50.00000   90.00000   90.00000   90.00000
LATT -1
SFAC C  
C      1  0.5247000000000  0.5004430000000  0.5780620000000 1.0
C      1  0.4894440000000  0.5542500000000  0.5103480000000 1.0
C      1  0.4926620000000  0.5199170000000  0.5425660000000 1.0
C      1  0.5148930000000  0.4501700000000  0.5162790000000 1.0
C      1  0.5085340000000  0.5060710000000  0.4559970000000 1.0
C      1  0.4556500000000  0.4632790000000  0.5145020000000 1.0
C      1  0.5043720000000  0.4791740000000  0.5166210000000 1.0
C      1  0.5056390000000  0.5385670000000  0.5260040000000 1.0
C      1  0.5275940000000  0.4970250000000  0.5229350000000 1.0
C      1  0.4483660000000  0.5018220000000  0.5504190000000 1.0
C      1  0.5289600000000  0.4510690000000  0.4916810000000 1.0
C      1  0.4435420000000  0.5150860000000  0.4751490000000 1.0
C      1  0.4983890000000  0.4441030000000  0.5404900000000 1.0
C      1  0.4569470000000  0.5010570000000  0.4546730000000 1.0
C      1  0.4703310000000  0.4760720000000  0.4541770000000 1.0
C      1  0.5544190000000  0.4860540000000  0.5142400000000 1.0
C      1  0.5757140000000  0.5277500000000  0.4672300000000 1.0
C      1  0.4658850000000  0.5149520000000  0.5305960000000 1.0
C      1  0.5220330000000  0.5223080000000  0.5079360000000 1.0
C      1  0.5753760000000  0.5026680000000  0.5163810000000 1.0
C      1  0.5553450000000  0.5113560000000  0.4604270000000 1.0
C      1  0.5349350000000  0.5412810000000  0.4251710000000 1.0
C      1  0.4836350000000  0.4635030000000  0.4766190000000 1.0
C      1  0.5509320000000  0.4698440000000  0.4906970000000 1.0
C      1  0.4871250000000  0.4886490000000  0.4943090000000 1.0
C      1  0.4993430000000  0.5591740000000  0.4834340000000 1.0
C      1  0.5868580000000  0.5254280000000  0.5133870000000 1.0
C      1  0.4786050000000  0.5484840000000  0.4698380000000 1.0
C      1  0.4135560000000  0.4949800000000  0.5150390000000 1.0
C      1  0.4573470000000  0.5379990000000  0.4843950000000 1.0
C      1  0.4642080000000  0.4768520000000  0.5547700000000 1.0
C      1  0.5695700000000  0.5367030000000  0.4927380000000 1.0
C      1  0.4262490000000  0.4878420000000  0.5381580000000 1.0
C      1  0.4606730000000  0.4919850000000  0.5073850000000 1.0
C      1  0.5000360000000  0.5122800000000  0.4845340000000 1.0
C      1  0.5497740000000  0.4844600000000  0.4657240000000 1.0
C      1  0.4714150000000  0.4468500000000  0.4988260000000 1.0
C      1  0.5251540000000  0.5516140000000  0.4751260000000 1.0
C      1  0.5116550000000  0.4586860000000  0.4700680000000 1.0
C      1  0.4917250000000  0.4729100000000  0.5466110000000 1.0
C      1  0.5287560000000  0.5294340000000  0.4505120000000 1.0
C      1  0.4892310000000  0.4356110000000  0.5163490000000 1.0
C      1  0.5117360000000  0.4977010000000  0.5539350000000 1.0
C      1  0.4434940000000  0.4630720000000  0.5394110000000 1.0
C      1  0.4821330000000  0.4994970000000  0.4444220000000 1.0
C      1  0.5231030000000  0.4808090000000  0.4570750000000 1.0
C      1  0.5411810000000  0.5416790000000  0.4962040000000 1.0
C      1  0.4653100000000  0.5398220000000  0.5118960000000 1.0
C      1  0.4334650000000  0.4996580000000  0.4966500000000 1.0
END
