TITL C-121982-4448-1 83.8917937511505 125000 -388.820976367783 0 0 58 (C1) n - 1
REM
REM in /rds/project/t2_vol4/rds-t2-cs072/BORA/CARBON/from-Arr/AIRSS/Generating-Clusters/GAP-ML-2020/Only-C1/SD-CG/HFTN-CG
REM
REM
REM
REM
REM
REM ./C.cell (11c1c37f851c82e70ff6c80c92926a4b)
REM AIRSS Version 0.9.1 bugfix July 2018 build 013d7b7c2542+ Fri, 06 Jul 2018 19:26:36 +0100
REM compiler GCC version 9.3.0
REM options -cpp -mtune=generic -march=x86-64 -g -O0
REM seed -1358904722 -2106885058 1254844675 1304527344 1351157711 -2044848425 751527379 -1964012153 1770360629 1276265917 -2036609076 813574545 1087757505 539704447 661778776 -508896150 -1764142139 -850162230 -1268229862 571514384 215260959 2120848202 1042133768 -732652032 -1033188261 -1614711453 1631982498 -6116257 -440381862 -1262512532 -457149611 -2076785927 -408776678
REM
CELL 1.54180   50.00000   50.00000   50.00000   90.00000   90.00000   90.00000
LATT -1
SFAC C  
C      1  0.4954360000000  0.4826060000000  0.4888310000000 1.0
C      1  0.4917160000000  0.4225930000000  0.5138190000000 1.0
C      1  0.4995090000000  0.4778970000000  0.5632190000000 1.0
C      1  0.5406310000000  0.4570300000000  0.4719260000000 1.0
C      1  0.4956480000000  0.4903640000000  0.4304140000000 1.0
C      1  0.4586730000000  0.4447440000000  0.5277670000000 1.0
C      1  0.5120450000000  0.5023030000000  0.5548270000000 1.0
C      1  0.4815390000000  0.5207760000000  0.5129350000000 1.0
C      1  0.5375530000000  0.5156700000000  0.5548200000000 1.0
C      1  0.5268320000000  0.4506830000000  0.5258760000000 1.0
C      1  0.4424140000000  0.4963230000000  0.5317220000000 1.0
C      1  0.5176990000000  0.5225760000000  0.4638100000000 1.0
C      1  0.5394640000000  0.5421340000000  0.5497080000000 1.0
C      1  0.4381830000000  0.5208120000000  0.4878970000000 1.0
C      1  0.5627880000000  0.5209890000000  0.4836160000000 1.0
C      1  0.5162840000000  0.4337550000000  0.5049610000000 1.0
C      1  0.5041290000000  0.5165540000000  0.4375230000000 1.0
C      1  0.4493510000000  0.4705310000000  0.4897440000000 1.0
C      1  0.5007530000000  0.5027650000000  0.5282960000000 1.0
C      1  0.5312030000000  0.5588900000000  0.4824820000000 1.0
C      1  0.4837840000000  0.4354180000000  0.5387140000000 1.0
C      1  0.5542720000000  0.5227110000000  0.5129290000000 1.0
C      1  0.5027340000000  0.4568590000000  0.5415850000000 1.0
C      1  0.4564900000000  0.4735510000000  0.5182450000000 1.0
C      1  0.4594710000000  0.5401030000000  0.5213550000000 1.0
C      1  0.4671510000000  0.4310110000000  0.5030980000000 1.0
C      1  0.4771420000000  0.5050180000000  0.4866050000000 1.0
C      1  0.5041080000000  0.5384470000000  0.5073300000000 1.0
C      1  0.5639220000000  0.4937080000000  0.4760490000000 1.0
C      1  0.4528720000000  0.5399920000000  0.4705850000000 1.0
C      1  0.4691750000000  0.4815770000000  0.4362720000000 1.0
C      1  0.4664220000000  0.4488640000000  0.4817160000000 1.0
C      1  0.4807860000000  0.5313550000000  0.4315480000000 1.0
C      1  0.4895320000000  0.4767210000000  0.5180500000000 1.0
C      1  0.5033220000000  0.5467970000000  0.4787340000000 1.0
C      1  0.4509240000000  0.4935950000000  0.5585700000000 1.0
C      1  0.4470940000000  0.4955720000000  0.4766970000000 1.0
C      1  0.4388110000000  0.5215610000000  0.5163980000000 1.0
C      1  0.5615080000000  0.4708100000000  0.4603080000000 1.0
C      1  0.4730690000000  0.5559190000000  0.4809940000000 1.0
C      1  0.5691540000000  0.4790260000000  0.5352240000000 1.0
C      1  0.4516430000000  0.4988770000000  0.4488000000000 1.0
C      1  0.5587390000000  0.5041420000000  0.5357460000000 1.0
C      1  0.5156800000000  0.5838820000000  0.5195670000000 1.0
C      1  0.5188550000000  0.4995130000000  0.4856400000000 1.0
C      1  0.4587280000000  0.5266000000000  0.4457570000000 1.0
C      1  0.4904160000000  0.4653550000000  0.4428270000000 1.0
C      1  0.5226580000000  0.5150330000000  0.5099760000000 1.0
C      1  0.4929980000000  0.4566880000000  0.4704020000000 1.0
C      1  0.5479260000000  0.4692300000000  0.5194080000000 1.0
C      1  0.4685920000000  0.5637640000000  0.5092890000000 1.0
C      1  0.4949870000000  0.5680200000000  0.5196800000000 1.0
C      1  0.5502060000000  0.5496530000000  0.5252140000000 1.0
C      1  0.4728950000000  0.4824290000000  0.5645110000000 1.0
C      1  0.5178520000000  0.4417970000000  0.4776280000000 1.0
C      1  0.5425060000000  0.4804140000000  0.4917260000000 1.0
C      1  0.5379650000000  0.5691840000000  0.5083380000000 1.0
C      1  0.5437640000000  0.5368060000000  0.4702950000000 1.0
END
