TITL C-120605-4435-4 520.820447148953 125000 -547.822544165072 0 0 80 (C1) n - 1
REM
REM in /rds/project/t2_vol4/rds-t2-cs072/BORA/CARBON/from-Arr/AIRSS/Generating-Clusters/GAP-ML-2020/Only-C1/SD-CG/HFTN-CG
REM
REM
REM
REM
REM
REM ./C.cell (11c1c37f851c82e70ff6c80c92926a4b)
REM AIRSS Version 0.9.1 bugfix July 2018 build 013d7b7c2542+ Fri, 06 Jul 2018 19:26:36 +0100
REM compiler GCC version 9.3.0
REM options -cpp -mtune=generic -march=x86-64 -g -O0
REM seed -786690444 2142956185 542919866 441750725 1633138344 -1094742679 935836962 1573178922 -619641775 -1938666560 -2007309816 1140538463 1989455666 1704956444 1465527235 500311412 833191553 2137192451 -287694068 -1445913851 -1518727529 -891371374 1502831174 -126888669 -1179659982 860232547 1492200624 1699043300 -1192861039 513869966 1847037791 1597926257 531490303
REM
CELL 1.54180   50.00000   50.00000   50.00000   90.00000   90.00000   90.00000
LATT -1
SFAC C  
C      1  0.4749530000000  0.5392490000000  0.4519840000000 1.0
C      1  0.4459760000000  0.4699140000000  0.5511700000000 1.0
C      1  0.4988680000000  0.5610180000000  0.5348100000000 1.0
C      1  0.4748870000000  0.5470070000000  0.5406540000000 1.0
C      1  0.5482730000000  0.4366180000000  0.5145460000000 1.0
C      1  0.5511590000000  0.5055810000000  0.5534230000000 1.0
C      1  0.4434730000000  0.4891030000000  0.4681650000000 1.0
C      1  0.4873700000000  0.4795640000000  0.4252970000000 1.0
C      1  0.5656840000000  0.4711510000000  0.4886740000000 1.0
C      1  0.5912210000000  0.5250090000000  0.4979810000000 1.0
C      1  0.4874450000000  0.5634590000000  0.4638080000000 1.0
C      1  0.5380560000000  0.4823290000000  0.5627280000000 1.0
C      1  0.4486070000000  0.5393920000000  0.4668400000000 1.0
C      1  0.5402580000000  0.5404550000000  0.5190690000000 1.0
C      1  0.5310060000000  0.5263030000000  0.5524940000000 1.0
C      1  0.4862630000000  0.5142920000000  0.4676450000000 1.0
C      1  0.5229200000000  0.4395770000000  0.5539780000000 1.0
C      1  0.5434880000000  0.4505320000000  0.4890360000000 1.0
C      1  0.5503150000000  0.4928110000000  0.4464680000000 1.0
C      1  0.5473750000000  0.5120870000000  0.5072180000000 1.0
C      1  0.5024780000000  0.5147110000000  0.5137630000000 1.0
C      1  0.4770840000000  0.5685910000000  0.4892730000000 1.0
C      1  0.4569670000000  0.5344780000000  0.5177600000000 1.0
C      1  0.5628410000000  0.4537160000000  0.5321070000000 1.0
C      1  0.5151300000000  0.5418710000000  0.5025720000000 1.0
C      1  0.5657840000000  0.4923430000000  0.4685300000000 1.0
C      1  0.4607390000000  0.4710670000000  0.4248480000000 1.0
C      1  0.5027770000000  0.5037480000000  0.4209540000000 1.0
C      1  0.5178480000000  0.4421690000000  0.4454860000000 1.0
C      1  0.5854030000000  0.5276930000000  0.5235210000000 1.0
C      1  0.5685580000000  0.5498310000000  0.5179710000000 1.0
C      1  0.4984860000000  0.4567050000000  0.5479870000000 1.0
C      1  0.4407680000000  0.4976160000000  0.5620590000000 1.0
C      1  0.5471260000000  0.4560760000000  0.5568260000000 1.0
C      1  0.4194960000000  0.4834850000000  0.4861350000000 1.0
C      1  0.5000800000000  0.5697880000000  0.5070620000000 1.0
C      1  0.4833100000000  0.4844310000000  0.5753470000000 1.0
C      1  0.5724090000000  0.4756260000000  0.5167060000000 1.0
C      1  0.4804250000000  0.4403560000000  0.4766650000000 1.0
C      1  0.5210490000000  0.4986480000000  0.4972830000000 1.0
C      1  0.5615390000000  0.5624140000000  0.4938720000000 1.0
C      1  0.4807200000000  0.5261880000000  0.5586550000000 1.0
C      1  0.5675180000000  0.5176480000000  0.4829670000000 1.0
C      1  0.5549340000000  0.5418970000000  0.4739870000000 1.0
C      1  0.5315080000000  0.4336030000000  0.4679420000000 1.0
C      1  0.5256010000000  0.5512730000000  0.5425220000000 1.0
C      1  0.5056620000000  0.5126340000000  0.5463050000000 1.0
C      1  0.4476790000000  0.4662320000000  0.4482220000000 1.0
C      1  0.5678120000000  0.5025080000000  0.5291140000000 1.0
C      1  0.4557060000000  0.5511550000000  0.4927100000000 1.0
C      1  0.5011300000000  0.4483420000000  0.5184030000000 1.0
C      1  0.5261560000000  0.5394920000000  0.4725470000000 1.0
C      1  0.4848140000000  0.5334240000000  0.4257050000000 1.0
C      1  0.4783370000000  0.4359780000000  0.5053470000000 1.0
C      1  0.5146950000000  0.5660630000000  0.4653010000000 1.0
C      1  0.5464010000000  0.5852800000000  0.4943800000000 1.0
C      1  0.4075480000000  0.5282280000000  0.5089010000000 1.0
C      1  0.5048310000000  0.4261100000000  0.4637510000000 1.0
C      1  0.5084260000000  0.4853260000000  0.5594850000000 1.0
C      1  0.5206790000000  0.5818840000000  0.4892230000000 1.0
C      1  0.4129420000000  0.5119970000000  0.4878410000000 1.0
C      1  0.5242020000000  0.4301680000000  0.5274570000000 1.0
C      1  0.4723610000000  0.4928690000000  0.4819900000000 1.0
C      1  0.4747740000000  0.5078220000000  0.5075000000000 1.0
C      1  0.5145820000000  0.4683880000000  0.4962780000000 1.0
C      1  0.4983720000000  0.5262590000000  0.4044440000000 1.0
C      1  0.4366790000000  0.4566320000000  0.5279510000000 1.0
C      1  0.4660510000000  0.5070790000000  0.5728380000000 1.0
C      1  0.4319100000000  0.5176140000000  0.4663360000000 1.0
C      1  0.4280270000000  0.5289970000000  0.5285290000000 1.0
C      1  0.4518050000000  0.4363920000000  0.5133540000000 1.0
C      1  0.4358140000000  0.4400000000000  0.4889920000000 1.0
C      1  0.4520530000000  0.4428640000000  0.4664190000000 1.0
C      1  0.5223580000000  0.4959850000000  0.4437700000000 1.0
C      1  0.4923320000000  0.4691740000000  0.4753400000000 1.0
C      1  0.5054070000000  0.4701810000000  0.4468990000000 1.0
C      1  0.5146700000000  0.5119520000000  0.4685900000000 1.0
C      1  0.4248180000000  0.5179330000000  0.5536320000000 1.0
C      1  0.4721090000000  0.4625750000000  0.5608940000000 1.0
C      1  0.4206810000000  0.4610400000000  0.5027620000000 1.0
END
