TITL C-121993-4557-7 -0.0231837108438862 125000 -563.527727472648 0 0 83 (C1) n - 1
REM
REM in /rds/project/t2_vol4/rds-t2-cs072/BORA/CARBON/from-Arr/AIRSS/Generating-Clusters/GAP-ML-2020/Only-C1/SD-CG/HFTN-CG
REM
REM
REM
REM
REM
REM ./C.cell (11c1c37f851c82e70ff6c80c92926a4b)
REM AIRSS Version 0.9.1 bugfix July 2018 build 013d7b7c2542+ Fri, 06 Jul 2018 19:26:36 +0100
REM compiler GCC version 9.3.0
REM options -cpp -mtune=generic -march=x86-64 -g -O0
REM seed 391916801 -585030025 -583210008 1979814189 2018875509 -1027362088 380835693 548953580 -1399320541 -802564573 -569479166 -672893694 -310902363 1510954145 -1464905794 -2003901408 -1553196601 -1656243745 1376762329 61838646 537638408 -284196190 -1019301134 542851146 -652712010 738284578 1563844418 -624030948 -1367609763 -1581502736 -1984936675 -523734328 -1154808508
REM
CELL 1.54180   50.00000   50.00000   50.00000   90.00000   90.00000   90.00000
LATT -1
SFAC C  
C      1  0.5838500000000  0.5173560000000  0.5146440000000 1.0
C      1  0.5686300000000  0.5406440000000  0.5045170000000 1.0
C      1  0.4886940000000  0.4827450000000  0.5776280000000 1.0
C      1  0.5652270000000  0.5372130000000  0.4760730000000 1.0
C      1  0.5059470000000  0.4600650000000  0.5719960000000 1.0
C      1  0.5692610000000  0.4870430000000  0.4778730000000 1.0
C      1  0.4307180000000  0.5390120000000  0.5069290000000 1.0
C      1  0.5403390000000  0.4580540000000  0.5120310000000 1.0
C      1  0.5059420000000  0.5684790000000  0.5445810000000 1.0
C      1  0.4841390000000  0.4707150000000  0.4442290000000 1.0
C      1  0.5685810000000  0.4965110000000  0.5289370000000 1.0
C      1  0.4608250000000  0.5390450000000  0.5489410000000 1.0
C      1  0.4712160000000  0.4894490000000  0.4828270000000 1.0
C      1  0.5392280000000  0.5048910000000  0.5246550000000 1.0
C      1  0.4503180000000  0.5132100000000  0.5559350000000 1.0
C      1  0.5707510000000  0.4723260000000  0.5444270000000 1.0
C      1  0.5180210000000  0.4400850000000  0.5050940000000 1.0
C      1  0.5544070000000  0.4656680000000  0.5676340000000 1.0
C      1  0.4317480000000  0.5331820000000  0.4772130000000 1.0
C      1  0.5171360000000  0.4465220000000  0.4452520000000 1.0
C      1  0.4529070000000  0.5397820000000  0.4600140000000 1.0
C      1  0.4658350000000  0.5049410000000  0.4201790000000 1.0
C      1  0.5176850000000  0.4812240000000  0.4808600000000 1.0
C      1  0.5082340000000  0.4675530000000  0.4277410000000 1.0
C      1  0.5261640000000  0.4802510000000  0.5338560000000 1.0
C      1  0.4465590000000  0.4595030000000  0.4830910000000 1.0
C      1  0.4730850000000  0.5338660000000  0.4802940000000 1.0
C      1  0.5194320000000  0.5574740000000  0.4442760000000 1.0
C      1  0.4742960000000  0.4635760000000  0.4979840000000 1.0
C      1  0.4713440000000  0.5553780000000  0.4439320000000 1.0
C      1  0.5438350000000  0.4400110000000  0.5550410000000 1.0
C      1  0.4637820000000  0.4886530000000  0.5649110000000 1.0
C      1  0.4951310000000  0.5381780000000  0.4370690000000 1.0
C      1  0.4588150000000  0.4844820000000  0.4365110000000 1.0
C      1  0.4795660000000  0.4603170000000  0.5273200000000 1.0
C      1  0.5136900000000  0.4947350000000  0.4181590000000 1.0
C      1  0.4703440000000  0.5115790000000  0.5000340000000 1.0
C      1  0.5073610000000  0.5497930000000  0.4999830000000 1.0
C      1  0.4907270000000  0.5436400000000  0.5531110000000 1.0
C      1  0.5687630000000  0.5111620000000  0.4625520000000 1.0
C      1  0.4830820000000  0.4133010000000  0.5173600000000 1.0
C      1  0.5082240000000  0.5819430000000  0.4510130000000 1.0
C      1  0.5345880000000  0.5586730000000  0.5392240000000 1.0
C      1  0.4458620000000  0.4848170000000  0.4632550000000 1.0
C      1  0.5119310000000  0.5013480000000  0.5779710000000 1.0
C      1  0.4612190000000  0.4345930000000  0.4761150000000 1.0
C      1  0.4184990000000  0.5157230000000  0.5174430000000 1.0
C      1  0.5388850000000  0.4427880000000  0.4640980000000 1.0
C      1  0.4993860000000  0.4351930000000  0.5292160000000 1.0
C      1  0.5524690000000  0.5572990000000  0.5192070000000 1.0
C      1  0.5146400000000  0.4386150000000  0.5546060000000 1.0
C      1  0.4276410000000  0.4702770000000  0.5044460000000 1.0
C      1  0.4332810000000  0.4748920000000  0.5323640000000 1.0
C      1  0.4290720000000  0.5027950000000  0.5396190000000 1.0
C      1  0.4913430000000  0.5146830000000  0.4180480000000 1.0
C      1  0.4506680000000  0.5523020000000  0.5248680000000 1.0
C      1  0.5594580000000  0.4478360000000  0.5324830000000 1.0
C      1  0.5286480000000  0.5292930000000  0.5401460000000 1.0
C      1  0.4896270000000  0.4471870000000  0.4610340000000 1.0
C      1  0.5825620000000  0.4933760000000  0.5019580000000 1.0
C      1  0.4156060000000  0.4947610000000  0.4969680000000 1.0
C      1  0.5211490000000  0.5054320000000  0.4983270000000 1.0
C      1  0.4961170000000  0.5227810000000  0.4636050000000 1.0
C      1  0.5372090000000  0.5081970000000  0.4203310000000 1.0
C      1  0.5457360000000  0.4681510000000  0.4820600000000 1.0
C      1  0.4943320000000  0.4930100000000  0.4644190000000 1.0
C      1  0.4253960000000  0.5046930000000  0.4727370000000 1.0
C      1  0.4979940000000  0.4834150000000  0.5303350000000 1.0
C      1  0.4568430000000  0.4676270000000  0.5459450000000 1.0
C      1  0.4943600000000  0.5069610000000  0.5143790000000 1.0
C      1  0.5007160000000  0.4561890000000  0.4872570000000 1.0
C      1  0.5026620000000  0.5335360000000  0.5248990000000 1.0
C      1  0.4704890000000  0.4173880000000  0.4956360000000 1.0
C      1  0.4885660000000  0.5845900000000  0.5319800000000 1.0
C      1  0.4844850000000  0.5734530000000  0.4619760000000 1.0
C      1  0.5188030000000  0.5304920000000  0.4812500000000 1.0
C      1  0.5116490000000  0.5256800000000  0.5651590000000 1.0
C      1  0.4820050000000  0.5613480000000  0.4892820000000 1.0
C      1  0.5344980000000  0.4264120000000  0.4844440000000 1.0
C      1  0.5298000000000  0.4796260000000  0.5686530000000 1.0
C      1  0.5392610000000  0.5406120000000  0.4606380000000 1.0
C      1  0.5488670000000  0.5180300000000  0.4422240000000 1.0
C      1  0.4698390000000  0.5723660000000  0.5146930000000 1.0
END
