TITL C-125555-2437-3 281.674206322769 125000 -480.08622123492 0 0 70 (C1) n - 1
REM
REM in /rds/project/t2_vol4/rds-t2-cs072/BORA/CARBON/from-Arr/AIRSS/Generating-Clusters/GAP-ML-2020/Only-C1/SD-CG/HFTN-CG
REM
REM
REM
REM
REM
REM ./C.cell (11c1c37f851c82e70ff6c80c92926a4b)
REM AIRSS Version 0.9.1 bugfix July 2018 build 013d7b7c2542+ Fri, 06 Jul 2018 19:26:36 +0100
REM compiler GCC version 9.3.0
REM options -cpp -mtune=generic -march=x86-64 -g -O0
REM seed -1318151877 -1026228109 -335465445 -1438024188 146174535 1826794516 1745259062 -1690832977 723533874 1693319949 1459318783 -1904452479 -473792254 767811476 1604576504 -432277097 -1187792071 649581566 -1706670922 1171634203 -1538588356 -1301668265 736234540 1530973304 -132339840 475038664 1958160977 53075865 306690045 530697428 1417400216 347839735 1419282827
REM
CELL 1.54180   50.00000   50.00000   50.00000   90.00000   90.00000   90.00000
LATT -1
SFAC C  
C      1  0.5529320000000  0.4896900000000  0.5323240000000 1.0
C      1  0.4740940000000  0.5652950000000  0.5340070000000 1.0
C      1  0.5045100000000  0.4722040000000  0.4751770000000 1.0
C      1  0.5514180000000  0.4799470000000  0.4688920000000 1.0
C      1  0.5560180000000  0.5481720000000  0.4859110000000 1.0
C      1  0.4802960000000  0.5410560000000  0.4706670000000 1.0
C      1  0.4324610000000  0.5127510000000  0.5264690000000 1.0
C      1  0.5229460000000  0.5700210000000  0.4805550000000 1.0
C      1  0.5017590000000  0.4893840000000  0.5217430000000 1.0
C      1  0.5357450000000  0.4809250000000  0.5573250000000 1.0
C      1  0.4303160000000  0.5182840000000  0.4991630000000 1.0
C      1  0.4719320000000  0.5196770000000  0.5604980000000 1.0
C      1  0.4826200000000  0.4361030000000  0.5417260000000 1.0
C      1  0.5298410000000  0.4516360000000  0.5114720000000 1.0
C      1  0.4905660000000  0.4755880000000  0.4302910000000 1.0
C      1  0.4934540000000  0.5385490000000  0.4448310000000 1.0
C      1  0.4790480000000  0.4752280000000  0.5673030000000 1.0
C      1  0.5005030000000  0.5011450000000  0.4208870000000 1.0
C      1  0.5222350000000  0.4210480000000  0.4777680000000 1.0
C      1  0.4811530000000  0.5211020000000  0.4262200000000 1.0
C      1  0.4460280000000  0.4433320000000  0.5063800000000 1.0
C      1  0.4434450000000  0.4513850000000  0.4823440000000 1.0
C      1  0.5198450000000  0.5025750000000  0.5683720000000 1.0
C      1  0.5272320000000  0.4891440000000  0.4859780000000 1.0
C      1  0.4906630000000  0.5007720000000  0.5713120000000 1.0
C      1  0.5021150000000  0.4212070000000  0.5269770000000 1.0
C      1  0.5375740000000  0.5537040000000  0.4622490000000 1.0
C      1  0.4571710000000  0.5081180000000  0.4342930000000 1.0
C      1  0.5009860000000  0.4216980000000  0.4965070000000 1.0
C      1  0.5126760000000  0.5350190000000  0.5057940000000 1.0
C      1  0.4778090000000  0.4840910000000  0.4827710000000 1.0
C      1  0.5283440000000  0.5529250000000  0.5260740000000 1.0
C      1  0.4828370000000  0.5460640000000  0.5530240000000 1.0
C      1  0.5416980000000  0.5664200000000  0.5029330000000 1.0
C      1  0.5703030000000  0.4933950000000  0.4883220000000 1.0
C      1  0.5269640000000  0.4395320000000  0.4550960000000 1.0
C      1  0.4949500000000  0.4526180000000  0.5621010000000 1.0
C      1  0.4620620000000  0.4541700000000  0.5285800000000 1.0
C      1  0.5278380000000  0.5287620000000  0.5621910000000 1.0
C      1  0.5105010000000  0.5490080000000  0.5527880000000 1.0
C      1  0.4812280000000  0.5126120000000  0.4861370000000 1.0
C      1  0.5507070000000  0.4510590000000  0.4681550000000 1.0
C      1  0.5015260000000  0.4511750000000  0.4964820000000 1.0
C      1  0.5442240000000  0.4361880000000  0.4912120000000 1.0
C      1  0.5293840000000  0.4813950000000  0.5138230000000 1.0
C      1  0.4547540000000  0.5710710000000  0.5132290000000 1.0
C      1  0.5130580000000  0.4646850000000  0.4466810000000 1.0
C      1  0.4346360000000  0.5026850000000  0.4745050000000 1.0
C      1  0.5602070000000  0.5176000000000  0.5273350000000 1.0
C      1  0.5253840000000  0.4362420000000  0.5352640000000 1.0
C      1  0.4978260000000  0.5569000000000  0.4893850000000 1.0
C      1  0.4418950000000  0.5204390000000  0.4541730000000 1.0
C      1  0.4629420000000  0.4806560000000  0.4397830000000 1.0
C      1  0.5355850000000  0.4861800000000  0.4444550000000 1.0
C      1  0.4294770000000  0.5693030000000  0.5031840000000 1.0
C      1  0.4833870000000  0.4697040000000  0.5104830000000 1.0
C      1  0.5597440000000  0.5206170000000  0.4974930000000 1.0
C      1  0.5307380000000  0.5181650000000  0.4902570000000 1.0
C      1  0.4515740000000  0.4760310000000  0.4685180000000 1.0
C      1  0.4511710000000  0.5441200000000  0.4664590000000 1.0
C      1  0.5720870000000  0.4799930000000  0.5116900000000 1.0
C      1  0.4343240000000  0.5457940000000  0.4898240000000 1.0
C      1  0.4493560000000  0.5041460000000  0.5467860000000 1.0
C      1  0.4826850000000  0.5721070000000  0.5087340000000 1.0
C      1  0.4937200000000  0.5145960000000  0.5108360000000 1.0
C      1  0.4564330000000  0.4762680000000  0.5504500000000 1.0
C      1  0.5466980000000  0.5362250000000  0.5419340000000 1.0
C      1  0.5252720000000  0.5097530000000  0.4337280000000 1.0
C      1  0.5223560000000  0.5371840000000  0.4442540000000 1.0
C      1  0.5227350000000  0.4553600000000  0.5574390000000 1.0
END
