TITL C-121990-384-8 -0.0623799812765714 125000 -67.2166790564937 0 0 11 (C1) n - 1
REM
REM in /rds/project/t2_vol4/rds-t2-cs072/BORA/CARBON/from-Arr/AIRSS/Generating-Clusters/GAP-ML-2020/Only-C1/SD-CG/HFTN-CG
REM
REM
REM
REM
REM
REM ./C.cell (11c1c37f851c82e70ff6c80c92926a4b)
REM AIRSS Version 0.9.1 bugfix July 2018 build 013d7b7c2542+ Fri, 06 Jul 2018 19:26:36 +0100
REM compiler GCC version 9.3.0
REM options -cpp -mtune=generic -march=x86-64 -g -O0
REM seed -2096479101 -1853376320 -556685306 1490723020 -2132082784 -2278478 -1663367925 2047966261 1495191047 -1255892163 1924965518 103298686 1371504146 -131361056 -1199649157 -342739759 -2113860655 1511047789 1969444395 -1728031312 -559804936 -992918617 -1986836195 -1523139089 -109248439 1831997009 -1102217751 -1188177040 -147230102 -1575969070 -383998841 483046452 -1709278425
REM
CELL 1.54180   50.00000   50.00000   50.00000   90.00000   90.00000   90.00000
LATT -1
SFAC C  
C      1  0.5009890000000  0.4961050000000  0.4658930000000 1.0
C      1  0.4881070000000  0.5265370000000  0.5049140000000 1.0
C      1  0.5289770000000  0.4544570000000  0.4696070000000 1.0
C      1  0.4995460000000  0.4782130000000  0.5262370000000 1.0
C      1  0.5148530000000  0.4595930000000  0.5172590000000 1.0
C      1  0.5252630000000  0.4519330000000  0.4950800000000 1.0
C      1  0.4874940000000  0.5540990000000  0.5121560000000 1.0
C      1  0.4946430000000  0.5073990000000  0.4884530000000 1.0
C      1  0.4726830000000  0.5350560000000  0.5267310000000 1.0
C      1  0.5154890000000  0.4755190000000  0.4613970000000 1.0
C      1  0.4719540000000  0.5610900000000  0.5322730000000 1.0
END
