TITL C-120610-4547-10 -390.758418851737 125000 -677.322858464978 0 0 95 (C1) n - 1
REM
REM in /rds/project/t2_vol4/rds-t2-cs072/BORA/CARBON/from-Arr/AIRSS/Generating-Clusters/GAP-ML-2020/Only-C1/SD-CG/HFTN-CG
REM
REM
REM
REM
REM
REM ./C.cell (11c1c37f851c82e70ff6c80c92926a4b)
REM AIRSS Version 0.9.1 bugfix July 2018 build 013d7b7c2542+ Fri, 06 Jul 2018 19:26:36 +0100
REM compiler GCC version 9.3.0
REM options -cpp -mtune=generic -march=x86-64 -g -O0
REM seed 1217828730 -601264863 -128019440 1436704083 268074575 -126602602 -863496062 1501996425 -1957367251 1346383214 605828688 942104919 4385372 -1986400282 -1844529249 -1242195232 56414971 992244524 -634577808 1252078061 -1751207915 1011124141 -1097683814 772986983 -228058438 967883772 2102768191 1017113935 -1984823226 -932483354 -114103352 -1579820593 -1558644144
REM
CELL 1.54180   50.00000   50.00000   50.00000   90.00000   90.00000   90.00000
LATT -1
SFAC C  
C      1  0.5015960000000  0.5913530000000  0.5175100000000 1.0
C      1  0.4618250000000  0.4331100000000  0.5223340000000 1.0
C      1  0.5739620000000  0.5230330000000  0.4467930000000 1.0
C      1  0.5859870000000  0.4847880000000  0.4759940000000 1.0
C      1  0.5499820000000  0.4703150000000  0.5612190000000 1.0
C      1  0.5506190000000  0.4329330000000  0.4967980000000 1.0
C      1  0.5647250000000  0.5509660000000  0.4947600000000 1.0
C      1  0.5831280000000  0.5288340000000  0.4950120000000 1.0
C      1  0.5558520000000  0.4789360000000  0.4369920000000 1.0
C      1  0.4685830000000  0.5219800000000  0.5732060000000 1.0
C      1  0.5104610000000  0.4743090000000  0.4762340000000 1.0
C      1  0.5304810000000  0.4680140000000  0.4321620000000 1.0
C      1  0.4429860000000  0.5184940000000  0.5595090000000 1.0
C      1  0.5079340000000  0.5117870000000  0.4507700000000 1.0
C      1  0.5584090000000  0.4433920000000  0.4700490000000 1.0
C      1  0.4696290000000  0.5638360000000  0.4289120000000 1.0
C      1  0.5372800000000  0.5300210000000  0.4256720000000 1.0
C      1  0.4450700000000  0.4502060000000  0.4553510000000 1.0
C      1  0.4221440000000  0.4639630000000  0.5222990000000 1.0
C      1  0.5138410000000  0.5010190000000  0.5259270000000 1.0
C      1  0.5102510000000  0.5772470000000  0.5418380000000 1.0
C      1  0.4862640000000  0.5886850000000  0.4972540000000 1.0
C      1  0.5192960000000  0.5072380000000  0.5867600000000 1.0
C      1  0.5501080000000  0.5561610000000  0.5192530000000 1.0
C      1  0.4749230000000  0.4727320000000  0.5680470000000 1.0
C      1  0.4364820000000  0.5231180000000  0.4508960000000 1.0
C      1  0.4885090000000  0.5420980000000  0.4827310000000 1.0
C      1  0.5379150000000  0.4482710000000  0.5446120000000 1.0
C      1  0.4815870000000  0.5177780000000  0.4652390000000 1.0
C      1  0.5080710000000  0.5281850000000  0.5254540000000 1.0
C      1  0.4326810000000  0.4911700000000  0.5583880000000 1.0
C      1  0.5276280000000  0.5162920000000  0.4716850000000 1.0
C      1  0.4996490000000  0.4960650000000  0.6018190000000 1.0
C      1  0.4902220000000  0.4843720000000  0.5219010000000 1.0
C      1  0.5882430000000  0.4829780000000  0.5045800000000 1.0
C      1  0.5561680000000  0.5184670000000  0.5612170000000 1.0
C      1  0.5866550000000  0.5094190000000  0.5166150000000 1.0
C      1  0.4635050000000  0.5173850000000  0.4392980000000 1.0
C      1  0.4248160000000  0.4970380000000  0.4563400000000 1.0
C      1  0.4901410000000  0.4447510000000  0.4360180000000 1.0
C      1  0.4626410000000  0.4883400000000  0.4314190000000 1.0
C      1  0.4879200000000  0.4753020000000  0.4918150000000 1.0
C      1  0.4439450000000  0.5572260000000  0.4923250000000 1.0
C      1  0.4854730000000  0.4726540000000  0.4296870000000 1.0
C      1  0.5343880000000  0.4307530000000  0.4587850000000 1.0
C      1  0.4871050000000  0.5629220000000  0.5514300000000 1.0
C      1  0.4689150000000  0.5560800000000  0.5296530000000 1.0
C      1  0.4342140000000  0.4446800000000  0.4810860000000 1.0
C      1  0.4891350000000  0.5426320000000  0.5711730000000 1.0
C      1  0.4988230000000  0.4189510000000  0.4954310000000 1.0
C      1  0.4749120000000  0.4215310000000  0.4787400000000 1.0
C      1  0.4415030000000  0.5536420000000  0.5212480000000 1.0
C      1  0.4693090000000  0.5059180000000  0.5123820000000 1.0
C      1  0.5257470000000  0.4214270000000  0.4855260000000 1.0
C      1  0.4586240000000  0.5665730000000  0.4536860000000 1.0
C      1  0.5194050000000  0.4418810000000  0.4378440000000 1.0
C      1  0.5202940000000  0.5430050000000  0.4832660000000 1.0
C      1  0.4812060000000  0.5391130000000  0.4248030000000 1.0
C      1  0.4530410000000  0.4283530000000  0.4954280000000 1.0
C      1  0.5573300000000  0.4435380000000  0.5225060000000 1.0
C      1  0.4912960000000  0.4282570000000  0.5225570000000 1.0
C      1  0.5768160000000  0.5066000000000  0.5438850000000 1.0
C      1  0.4114790000000  0.5129890000000  0.5246160000000 1.0
C      1  0.4187820000000  0.4640850000000  0.4941390000000 1.0
C      1  0.4822040000000  0.5330940000000  0.5128350000000 1.0
C      1  0.5736340000000  0.4782280000000  0.5474130000000 1.0
C      1  0.5086410000000  0.4835580000000  0.4431560000000 1.0
C      1  0.4715390000000  0.5686740000000  0.4812790000000 1.0
C      1  0.5851340000000  0.5131680000000  0.4704440000000 1.0
C      1  0.5395380000000  0.5426810000000  0.5633840000000 1.0
C      1  0.5783420000000  0.4635110000000  0.5236890000000 1.0
C      1  0.4790280000000  0.4968100000000  0.5838120000000 1.0
C      1  0.4698990000000  0.4351040000000  0.4529520000000 1.0
C      1  0.5545450000000  0.5446500000000  0.4456220000000 1.0
C      1  0.4438900000000  0.4509330000000  0.5360890000000 1.0
C      1  0.5377940000000  0.5643500000000  0.5444760000000 1.0
C      1  0.4372530000000  0.5488550000000  0.4649070000000 1.0
C      1  0.5711030000000  0.4667830000000  0.4591300000000 1.0
C      1  0.4152960000000  0.4876660000000  0.5366960000000 1.0
C      1  0.4490300000000  0.4679380000000  0.5591710000000 1.0
C      1  0.4291810000000  0.5327330000000  0.5373640000000 1.0
C      1  0.5303540000000  0.4921960000000  0.4862370000000 1.0
C      1  0.4704840000000  0.4967580000000  0.4851330000000 1.0
C      1  0.5466860000000  0.5525270000000  0.4714710000000 1.0
C      1  0.5254110000000  0.5459370000000  0.5108990000000 1.0
C      1  0.5160360000000  0.5346500000000  0.5778720000000 1.0
C      1  0.4401760000000  0.4763290000000  0.4436620000000 1.0
C      1  0.5088000000000  0.5300850000000  0.4277730000000 1.0
C      1  0.4932980000000  0.4660840000000  0.5473470000000 1.0
C      1  0.4068290000000  0.5103790000000  0.4980580000000 1.0
C      1  0.5356720000000  0.4935530000000  0.5122430000000 1.0
C      1  0.4121230000000  0.4895800000000  0.4812780000000 1.0
C      1  0.5565890000000  0.5066940000000  0.4298410000000 1.0
C      1  0.5425930000000  0.4962280000000  0.5735690000000 1.0
C      1  0.5089860000000  0.4430760000000  0.5413150000000 1.0
END
