TITL C-120618-4456-3 -0.0021819082879047 125000 -437.898966517251 0 0 65 (C1) n - 1
REM
REM in /rds/project/t2_vol4/rds-t2-cs072/BORA/CARBON/from-Arr/AIRSS/Generating-Clusters/GAP-ML-2020/Only-C1/SD-CG/HFTN-CG
REM
REM
REM
REM
REM
REM ./C.cell (11c1c37f851c82e70ff6c80c92926a4b)
REM AIRSS Version 0.9.1 bugfix July 2018 build 013d7b7c2542+ Fri, 06 Jul 2018 19:26:36 +0100
REM compiler GCC version 9.3.0
REM options -cpp -mtune=generic -march=x86-64 -g -O0
REM seed 1611941293 -1445520191 393754123 -2000412205 -315084634 -834164884 1028112522 -773742177 -2065495684 -288578979 566235717 1379689645 -1339467560 -611845833 1773447742 170624015 -1988542060 -676799520 -498980699 535580443 -1649752360 -1872034782 -1036168553 -408025267 -282626662 -1579185093 1154366331 2005164521 1571643897 -759951888 -585397369 544546554 766013497
REM
CELL 1.54180   50.00000   50.00000   50.00000   90.00000   90.00000   90.00000
LATT -1
SFAC C  
C      1  0.5105150000000  0.4180140000000  0.4767740000000 1.0
C      1  0.5384690000000  0.4483680000000  0.5355080000000 1.0
C      1  0.5564140000000  0.5370010000000  0.5072700000000 1.0
C      1  0.4656800000000  0.5646740000000  0.4650650000000 1.0
C      1  0.5449290000000  0.5392030000000  0.5499400000000 1.0
C      1  0.4691130000000  0.4824880000000  0.4468960000000 1.0
C      1  0.5256480000000  0.4565440000000  0.5607390000000 1.0
C      1  0.4939820000000  0.4955210000000  0.4849870000000 1.0
C      1  0.5679150000000  0.4997650000000  0.4930180000000 1.0
C      1  0.5624590000000  0.4939830000000  0.5207940000000 1.0
C      1  0.4575350000000  0.4528170000000  0.4851160000000 1.0
C      1  0.5173120000000  0.5122610000000  0.5229910000000 1.0
C      1  0.5194400000000  0.5077880000000  0.4935370000000 1.0
C      1  0.5139220000000  0.4956500000000  0.4386490000000 1.0
C      1  0.5232210000000  0.5656730000000  0.5130590000000 1.0
C      1  0.5111340000000  0.5349310000000  0.4781720000000 1.0
C      1  0.5411730000000  0.4626870000000  0.4747130000000 1.0
C      1  0.4376700000000  0.5012830000000  0.4758920000000 1.0
C      1  0.5127740000000  0.5632700000000  0.4856980000000 1.0
C      1  0.4819260000000  0.4045710000000  0.5192630000000 1.0
C      1  0.5033900000000  0.4883470000000  0.5306080000000 1.0
C      1  0.4848890000000  0.5724930000000  0.4851860000000 1.0
C      1  0.5578670000000  0.4708020000000  0.5363840000000 1.0
C      1  0.4837320000000  0.5222460000000  0.4757150000000 1.0
C      1  0.5035650000000  0.5185480000000  0.5651200000000 1.0
C      1  0.5470990000000  0.5172540000000  0.5294880000000 1.0
C      1  0.5471340000000  0.5268620000000  0.4564960000000 1.0
C      1  0.5421650000000  0.4869750000000  0.4911930000000 1.0
C      1  0.4863860000000  0.4151810000000  0.4910760000000 1.0
C      1  0.4985570000000  0.4627680000000  0.5675640000000 1.0
C      1  0.5016540000000  0.5426710000000  0.4354780000000 1.0
C      1  0.4569820000000  0.5511340000000  0.5188510000000 1.0
C      1  0.5414270000000  0.5005520000000  0.4448060000000 1.0
C      1  0.4387190000000  0.5409180000000  0.5002090000000 1.0
C      1  0.4604060000000  0.4608590000000  0.5421860000000 1.0
C      1  0.4745210000000  0.5511280000000  0.4416220000000 1.0
C      1  0.4684600000000  0.5291230000000  0.5324510000000 1.0
C      1  0.4553390000000  0.5288220000000  0.4367270000000 1.0
C      1  0.5508460000000  0.4757410000000  0.4531160000000 1.0
C      1  0.4845270000000  0.4217420000000  0.5401950000000 1.0
C      1  0.5440100000000  0.4775500000000  0.5600460000000 1.0
C      1  0.5282330000000  0.4384370000000  0.4849410000000 1.0
C      1  0.4580050000000  0.5037110000000  0.5240720000000 1.0
C      1  0.4379320000000  0.5122590000000  0.5028110000000 1.0
C      1  0.4945950000000  0.4394310000000  0.5182010000000 1.0
C      1  0.4775420000000  0.5688240000000  0.5123700000000 1.0
C      1  0.4378170000000  0.5254060000000  0.4586140000000 1.0
C      1  0.4965130000000  0.5324420000000  0.5384220000000 1.0
C      1  0.5231710000000  0.4399010000000  0.5134020000000 1.0
C      1  0.4701490000000  0.5057540000000  0.4309530000000 1.0
C      1  0.5628610000000  0.5261320000000  0.4827470000000 1.0
C      1  0.5001030000000  0.5606690000000  0.5284110000000 1.0
C      1  0.5265300000000  0.5323990000000  0.5694550000000 1.0
C      1  0.4638330000000  0.4273340000000  0.4783660000000 1.0
C      1  0.4818250000000  0.4854020000000  0.5103760000000 1.0
C      1  0.4612080000000  0.4875260000000  0.5494680000000 1.0
C      1  0.4503940000000  0.4766820000000  0.4679050000000 1.0
C      1  0.5469040000000  0.5567070000000  0.5248530000000 1.0
C      1  0.4713010000000  0.4579820000000  0.5124500000000 1.0
C      1  0.4909730000000  0.4907690000000  0.5590080000000 1.0
C      1  0.4773530000000  0.4448310000000  0.5579020000000 1.0
C      1  0.4975890000000  0.5151010000000  0.4275330000000 1.0
C      1  0.4962990000000  0.4804780000000  0.4571060000000 1.0
C      1  0.5240720000000  0.5442240000000  0.4541060000000 1.0
C      1  0.4418950000000  0.5493900000000  0.4739310000000 1.0
END
