TITL C-121993-4557-4 -3.29878427115153 125000 -1033.01544327643 0 0 147 (C1) n - 1
REM
REM in /rds/project/t2_vol4/rds-t2-cs072/BORA/CARBON/from-Arr/AIRSS/Generating-Clusters/GAP-ML-2020/Only-C1/SD-CG/HFTN-CG
REM
REM
REM
REM
REM
REM ./C.cell (11c1c37f851c82e70ff6c80c92926a4b)
REM AIRSS Version 0.9.1 bugfix July 2018 build 013d7b7c2542+ Fri, 06 Jul 2018 19:26:36 +0100
REM compiler GCC version 9.3.0
REM options -cpp -mtune=generic -march=x86-64 -g -O0
REM seed 650162264 -1049151526 -81045566 1571481347 -847213873 671879880 -1960848170 458122242 1319220538 -859087028 -556685314 1241800298 742192202 -1548599504 2073004075 -1420487172 -2022479198 1295667580 518008151 2043474028 -1023517178 1286472781 1906458287 -269972660 1419626349 -1976794896 1843488356 -616333154 -11093017 132765767 -723822642 709900820 263244947
REM
CELL 1.54180   50.00000   50.00000   50.00000   90.00000   90.00000   90.00000
LATT -1
SFAC C  
C      1  0.4875350000000  0.5344950000000  0.5980620000000 1.0
C      1  0.4435640000000  0.4296100000000  0.4607230000000 1.0
C      1  0.5156930000000  0.5261450000000  0.5232640000000 1.0
C      1  0.4662490000000  0.4267470000000  0.5406810000000 1.0
C      1  0.5787590000000  0.5242460000000  0.5599040000000 1.0
C      1  0.4695590000000  0.4883570000000  0.4833590000000 1.0
C      1  0.4693610000000  0.6030450000000  0.5082820000000 1.0
C      1  0.4950720000000  0.4268370000000  0.5434710000000 1.0
C      1  0.5546910000000  0.5660940000000  0.4658540000000 1.0
C      1  0.5248560000000  0.4518660000000  0.5793540000000 1.0
C      1  0.5554480000000  0.5215480000000  0.4917550000000 1.0
C      1  0.5669340000000  0.4989760000000  0.5967690000000 1.0
C      1  0.5879660000000  0.4498260000000  0.4779910000000 1.0
C      1  0.4467300000000  0.5183470000000  0.4169100000000 1.0
C      1  0.4964120000000  0.5348810000000  0.4781220000000 1.0
C      1  0.5344850000000  0.4955090000000  0.5614300000000 1.0
C      1  0.4988790000000  0.4490750000000  0.4975320000000 1.0
C      1  0.5725970000000  0.4716630000000  0.5584870000000 1.0
C      1  0.4267010000000  0.4504170000000  0.5345450000000 1.0
C      1  0.4251370000000  0.4370980000000  0.4836600000000 1.0
C      1  0.4940980000000  0.5407450000000  0.5402030000000 1.0
C      1  0.4838450000000  0.4531840000000  0.5864950000000 1.0
C      1  0.4957300000000  0.4814920000000  0.4022560000000 1.0
C      1  0.4612820000000  0.5816380000000  0.5251840000000 1.0
C      1  0.4594060000000  0.5379170000000  0.5913450000000 1.0
C      1  0.4857070000000  0.5984630000000  0.4864300000000 1.0
C      1  0.4716220000000  0.4989550000000  0.5615140000000 1.0
C      1  0.4569870000000  0.4594180000000  0.5795830000000 1.0
C      1  0.5614610000000  0.5098500000000  0.4372790000000 1.0
C      1  0.5424610000000  0.4667980000000  0.5600280000000 1.0
C      1  0.5498810000000  0.4300810000000  0.5307900000000 1.0
C      1  0.5323350000000  0.4795690000000  0.4699320000000 1.0
C      1  0.5106070000000  0.4581560000000  0.4139470000000 1.0
C      1  0.4138530000000  0.4789070000000  0.4572820000000 1.0
C      1  0.5095600000000  0.5122560000000  0.4981580000000 1.0
C      1  0.5397450000000  0.5440610000000  0.4801310000000 1.0
C      1  0.4841410000000  0.4749740000000  0.4624950000000 1.0
C      1  0.3973770000000  0.5047180000000  0.4921430000000 1.0
C      1  0.4679670000000  0.4143000000000  0.4644620000000 1.0
C      1  0.4241150000000  0.5600520000000  0.5333710000000 1.0
C      1  0.4691910000000  0.4466920000000  0.4992580000000 1.0
C      1  0.5783660000000  0.4298670000000  0.4944130000000 1.0
C      1  0.5846860000000  0.4570950000000  0.5373080000000 1.0
C      1  0.5385560000000  0.5357900000000  0.5866690000000 1.0
C      1  0.4570750000000  0.5492300000000  0.5657540000000 1.0
C      1  0.4859410000000  0.5142800000000  0.4370640000000 1.0
C      1  0.4683720000000  0.5254250000000  0.5485330000000 1.0
C      1  0.5764560000000  0.4338990000000  0.5236140000000 1.0
C      1  0.4106330000000  0.5469960000000  0.4804710000000 1.0
C      1  0.4649490000000  0.4464880000000  0.4182850000000 1.0
C      1  0.4802490000000  0.4864870000000  0.4370980000000 1.0
C      1  0.4295580000000  0.4713260000000  0.4347900000000 1.0
C      1  0.5314500000000  0.5713780000000  0.4245970000000 1.0
C      1  0.5299060000000  0.5723930000000  0.5448660000000 1.0
C      1  0.5529990000000  0.5583070000000  0.4357150000000 1.0
C      1  0.4116690000000  0.5307530000000  0.4560400000000 1.0
C      1  0.5597570000000  0.5442110000000  0.5695670000000 1.0
C      1  0.5375660000000  0.4967480000000  0.4919660000000 1.0
C      1  0.5168710000000  0.5163520000000  0.4397420000000 1.0
C      1  0.4515360000000  0.4713000000000  0.4975950000000 1.0
C      1  0.5074010000000  0.4049940000000  0.5267550000000 1.0
C      1  0.4733750000000  0.5292680000000  0.4585690000000 1.0
C      1  0.4682970000000  0.4743920000000  0.4101490000000 1.0
C      1  0.4408050000000  0.5143600000000  0.5931970000000 1.0
C      1  0.5765120000000  0.4582990000000  0.4526470000000 1.0
C      1  0.4447170000000  0.4896930000000  0.4168010000000 1.0
C      1  0.5842540000000  0.5328710000000  0.5317100000000 1.0
C      1  0.5176990000000  0.4091880000000  0.4564800000000 1.0
C      1  0.4568040000000  0.4220530000000  0.5133780000000 1.0
C      1  0.5004250000000  0.5104050000000  0.3990920000000 1.0
C      1  0.5800960000000  0.5599640000000  0.4819250000000 1.0
C      1  0.4875080000000  0.5580980000000  0.4177390000000 1.0
C      1  0.4514400000000  0.5510580000000  0.4478650000000 1.0
C      1  0.5375800000000  0.5079150000000  0.5353810000000 1.0
C      1  0.4924890000000  0.4772520000000  0.5281240000000 1.0
C      1  0.5118350000000  0.5464370000000  0.5852840000000 1.0
C      1  0.4763560000000  0.5275340000000  0.4117560000000 1.0
C      1  0.5183910000000  0.5376840000000  0.4611440000000 1.0
C      1  0.4514800000000  0.4897580000000  0.5815050000000 1.0
C      1  0.5141060000000  0.5546520000000  0.4101810000000 1.0
C      1  0.5973930000000  0.5196470000000  0.5069560000000 1.0
C      1  0.4243620000000  0.5037760000000  0.5735820000000 1.0
C      1  0.5537620000000  0.4459840000000  0.4402160000000 1.0
C      1  0.4487350000000  0.5184480000000  0.5248020000000 1.0
C      1  0.4571980000000  0.5302490000000  0.5003460000000 1.0
C      1  0.5889930000000  0.4845610000000  0.4586440000000 1.0
C      1  0.4891110000000  0.5807010000000  0.4392930000000 1.0
C      1  0.4791740000000  0.5486990000000  0.4976690000000 1.0
C      1  0.4944060000000  0.5109730000000  0.6092340000000 1.0
C      1  0.5988080000000  0.4758060000000  0.4842970000000 1.0
C      1  0.5838040000000  0.5287400000000  0.4818680000000 1.0
C      1  0.4576870000000  0.5137600000000  0.4775150000000 1.0
C      1  0.4429870000000  0.4457540000000  0.4367430000000 1.0
C      1  0.5078400000000  0.4678980000000  0.5961170000000 1.0
C      1  0.5449670000000  0.4222700000000  0.4550910000000 1.0
C      1  0.5406090000000  0.3998430000000  0.4954000000000 1.0
C      1  0.4954210000000  0.3968580000000  0.5014810000000 1.0
C      1  0.4463430000000  0.5702550000000  0.5500440000000 1.0
C      1  0.5463340000000  0.4828940000000  0.5177080000000 1.0
C      1  0.5572710000000  0.5662900000000  0.5510940000000 1.0
C      1  0.4126580000000  0.5045740000000  0.5483740000000 1.0
C      1  0.4032130000000  0.5044330000000  0.4640340000000 1.0
C      1  0.5861730000000  0.5705500000000  0.5059880000000 1.0
C      1  0.5395660000000  0.5066200000000  0.5909660000000 1.0
C      1  0.5236800000000  0.5274750000000  0.4108860000000 1.0
C      1  0.4333760000000  0.5747620000000  0.5110280000000 1.0
C      1  0.5767010000000  0.4797890000000  0.5229840000000 1.0
C      1  0.4293570000000  0.4320610000000  0.5126230000000 1.0
C      1  0.4477060000000  0.5741670000000  0.4635150000000 1.0
C      1  0.5352760000000  0.4645000000000  0.4265690000000 1.0
C      1  0.5315440000000  0.5498320000000  0.5107640000000 1.0
C      1  0.4280690000000  0.5702330000000  0.4840090000000 1.0
C      1  0.4904770000000  0.4362720000000  0.4231870000000 1.0
C      1  0.5802910000000  0.4975440000000  0.5726130000000 1.0
C      1  0.4704400000000  0.4050870000000  0.4925060000000 1.0
C      1  0.4035430000000  0.5299760000000  0.5032550000000 1.0
C      1  0.5516450000000  0.5318000000000  0.4231040000000 1.0
C      1  0.5159790000000  0.5750000000000  0.5171700000000 1.0
C      1  0.4514910000000  0.4492410000000  0.5514480000000 1.0
C      1  0.4874210000000  0.5632510000000  0.5211290000000 1.0
C      1  0.5801020000000  0.5622820000000  0.5313460000000 1.0
C      1  0.5098780000000  0.5577140000000  0.5598830000000 1.0
C      1  0.5141650000000  0.5917660000000  0.4915480000000 1.0
C      1  0.4174430000000  0.5300590000000  0.5293420000000 1.0
C      1  0.5072710000000  0.4526260000000  0.5252750000000 1.0
C      1  0.4673650000000  0.4774880000000  0.5417890000000 1.0
C      1  0.5307820000000  0.5873420000000  0.4686190000000 1.0
C      1  0.4317440000000  0.5349140000000  0.4352330000000 1.0
C      1  0.5829970000000  0.5116050000000  0.4558390000000 1.0
C      1  0.5974960000000  0.4916640000000  0.5074350000000 1.0
C      1  0.5366040000000  0.4916460000000  0.4420990000000 1.0
C      1  0.4724040000000  0.5885480000000  0.4612960000000 1.0
C      1  0.5550070000000  0.5295580000000  0.5208900000000 1.0
C      1  0.5147090000000  0.4942390000000  0.6037860000000 1.0
C      1  0.4919370000000  0.4173670000000  0.4456060000000 1.0
C      1  0.4197240000000  0.4654050000000  0.4832990000000 1.0
C      1  0.5163340000000  0.3955450000000  0.4814680000000 1.0
C      1  0.4051050000000  0.4806540000000  0.5038980000000 1.0
C      1  0.5352680000000  0.4073740000000  0.5217160000000 1.0
C      1  0.5582040000000  0.4154810000000  0.4798830000000 1.0
C      1  0.5076110000000  0.4643510000000  0.4742490000000 1.0
C      1  0.4898780000000  0.4943130000000  0.5053590000000 1.0
C      1  0.4172790000000  0.4793630000000  0.5303770000000 1.0
C      1  0.5016560000000  0.4365090000000  0.5706420000000 1.0
C      1  0.4460940000000  0.4873440000000  0.5233110000000 1.0
C      1  0.5358300000000  0.4567690000000  0.5319080000000 1.0
C      1  0.5171380000000  0.5862930000000  0.4434460000000 1.0
END
