TITL C-121220-6199-2 0.0894881446821023 125000 -509.53648144381 0 0 74 (C1) n - 1
REM
REM in /rds/project/t2_vol4/rds-t2-cs072/BORA/CARBON/from-Arr/AIRSS/Generating-Clusters/GAP-ML-2020/Only-C1/SD-CG/HFTN-CG
REM
REM
REM
REM
REM
REM ./C.cell (11c1c37f851c82e70ff6c80c92926a4b)
REM AIRSS Version 0.9.1 bugfix July 2018 build 013d7b7c2542+ Fri, 06 Jul 2018 19:26:36 +0100
REM compiler GCC version 9.3.0
REM options -cpp -mtune=generic -march=x86-64 -g -O0
REM seed -2102404800 -1906716219 -874902693 -145531865 354829081 -1428938517 1556327280 -1160723077 1507614982 -1682376255 -1841153080 -607258440 271237215 1927160667 163282925 431082929 260247125 -984336725 1603031506 440717750 2070132727 -661991697 -1138179049 1065093433 -302589434 805005958 2094798624 1853886129 1181888205 900177451 1844966533 -1679283978 -1286784181
REM
CELL 1.54180   50.00000   50.00000   50.00000   90.00000   90.00000   90.00000
LATT -1
SFAC C  
C      1  0.5277610000000  0.4443280000000  0.4860590000000 1.0
C      1  0.4791220000000  0.4621680000000  0.5026260000000 1.0
C      1  0.4616540000000  0.4745380000000  0.4381100000000 1.0
C      1  0.4835700000000  0.4265000000000  0.4562870000000 1.0
C      1  0.5501190000000  0.4552980000000  0.5038940000000 1.0
C      1  0.4719370000000  0.4890130000000  0.5140060000000 1.0
C      1  0.5645460000000  0.4749660000000  0.4879950000000 1.0
C      1  0.5563620000000  0.5482510000000  0.4904240000000 1.0
C      1  0.5077590000000  0.4772060000000  0.5762090000000 1.0
C      1  0.5326340000000  0.4559520000000  0.4576500000000 1.0
C      1  0.4924820000000  0.5158960000000  0.5543520000000 1.0
C      1  0.5280320000000  0.5615820000000  0.4551900000000 1.0
C      1  0.4378030000000  0.5226830000000  0.5257020000000 1.0
C      1  0.4534260000000  0.4767030000000  0.5520080000000 1.0
C      1  0.4706170000000  0.5384080000000  0.5562000000000 1.0
C      1  0.5519700000000  0.4762740000000  0.5513180000000 1.0
C      1  0.5038290000000  0.4283290000000  0.5232970000000 1.0
C      1  0.4275780000000  0.5196660000000  0.4992320000000 1.0
C      1  0.4389220000000  0.5346210000000  0.4782490000000 1.0
C      1  0.5194380000000  0.4428610000000  0.5413830000000 1.0
C      1  0.4668900000000  0.5611110000000  0.5143190000000 1.0
C      1  0.5673320000000  0.5254760000000  0.4764180000000 1.0
C      1  0.5188230000000  0.4992020000000  0.5200930000000 1.0
C      1  0.4802860000000  0.5353790000000  0.5005420000000 1.0
C      1  0.4462840000000  0.5205400000000  0.4538490000000 1.0
C      1  0.4524770000000  0.5453270000000  0.5337240000000 1.0
C      1  0.4940990000000  0.5378170000000  0.4303960000000 1.0
C      1  0.5328760000000  0.4878750000000  0.5703030000000 1.0
C      1  0.4770730000000  0.4392140000000  0.5248880000000 1.0
C      1  0.4668250000000  0.5365400000000  0.4415670000000 1.0
C      1  0.4605760000000  0.5542700000000  0.4850580000000 1.0
C      1  0.4986020000000  0.5015050000000  0.4789000000000 1.0
C      1  0.4978130000000  0.5559680000000  0.5495260000000 1.0
C      1  0.5085980000000  0.5402730000000  0.4989940000000 1.0
C      1  0.5610330000000  0.5034190000000  0.5454050000000 1.0
C      1  0.5553330000000  0.4724590000000  0.4606170000000 1.0
C      1  0.5391300000000  0.5394310000000  0.4398270000000 1.0
C      1  0.5353080000000  0.5663700000000  0.4828800000000 1.0
C      1  0.4665620000000  0.4488360000000  0.4528000000000 1.0
C      1  0.5396290000000  0.5154240000000  0.5623500000000 1.0
C      1  0.5051210000000  0.4642240000000  0.4911070000000 1.0
C      1  0.4865240000000  0.4640830000000  0.4339330000000 1.0
C      1  0.5589570000000  0.5217450000000  0.4501500000000 1.0
C      1  0.5129700000000  0.5687390000000  0.5017390000000 1.0
C      1  0.4557360000000  0.5227020000000  0.5748630000000 1.0
C      1  0.4936430000000  0.5706720000000  0.5244680000000 1.0
C      1  0.5145230000000  0.4689030000000  0.4371950000000 1.0
C      1  0.4287260000000  0.4913070000000  0.5007480000000 1.0
C      1  0.5523530000000  0.4949920000000  0.4434220000000 1.0
C      1  0.4939540000000  0.4959480000000  0.5320110000000 1.0
C      1  0.4885890000000  0.4979770000000  0.5780880000000 1.0
C      1  0.5268800000000  0.4943110000000  0.4301510000000 1.0
C      1  0.5186730000000  0.5229690000000  0.4270600000000 1.0
C      1  0.4442320000000  0.4916550000000  0.4532390000000 1.0
C      1  0.5720920000000  0.5025250000000  0.4944950000000 1.0
C      1  0.4728920000000  0.4543860000000  0.5492900000000 1.0
C      1  0.5175750000000  0.4889770000000  0.4940200000000 1.0
C      1  0.4366280000000  0.4774030000000  0.4776050000000 1.0
C      1  0.4999150000000  0.4551290000000  0.5600080000000 1.0
C      1  0.5175960000000  0.5330490000000  0.5503230000000 1.0
C      1  0.4452070000000  0.4926510000000  0.5270730000000 1.0
C      1  0.4603630000000  0.4951600000000  0.5728740000000 1.0
C      1  0.4524410000000  0.4535640000000  0.4784150000000 1.0
C      1  0.5160960000000  0.5227010000000  0.4764170000000 1.0
C      1  0.5443160000000  0.4554640000000  0.5326600000000 1.0
C      1  0.5254410000000  0.5293490000000  0.5211410000000 1.0
C      1  0.5106410000000  0.4224150000000  0.4961330000000 1.0
C      1  0.5534510000000  0.5367900000000  0.5158980000000 1.0
C      1  0.4749940000000  0.5083450000000  0.4928580000000 1.0
C      1  0.4650060000000  0.4354830000000  0.4975650000000 1.0
C      1  0.4857350000000  0.4212500000000  0.4825030000000 1.0
C      1  0.5003110000000  0.5605140000000  0.4485840000000 1.0
C      1  0.5692800000000  0.5136910000000  0.5209820000000 1.0
C      1  0.4740280000000  0.5592470000000  0.4603340000000 1.0
END
