TITL C-121216-6183-6 0.17192130565895 125000 -803.421106839614 0 0 113 (C1) n - 1
REM
REM in /rds/project/t2_vol4/rds-t2-cs072/BORA/CARBON/from-Arr/AIRSS/Generating-Clusters/GAP-ML-2020/Only-C1/SD-CG/HFTN-CG
REM
REM
REM
REM
REM
REM ./C.cell (11c1c37f851c82e70ff6c80c92926a4b)
REM AIRSS Version 0.9.1 bugfix July 2018 build 013d7b7c2542+ Fri, 06 Jul 2018 19:26:36 +0100
REM compiler GCC version 9.3.0
REM options -cpp -mtune=generic -march=x86-64 -g -O0
REM seed 155204581 -1219670069 567055989 1071348035 -2046179245 -1945663583 -1075983102 1560484660 1941436775 -2139470548 1279257934 -1345941410 385680688 -978384608 2034200255 -1901876654 -1281471546 138331775 1815767263 -503704938 663540984 -1419450525 -766030718 -548088041 298959357 -1497323250 1980378589 256296084 -1382034921 343560759 58652741 -989380433 -1638497959
REM
CELL 1.54180   50.00000   50.00000   50.00000   90.00000   90.00000   90.00000
LATT -1
SFAC C  
C      1  0.5598380000000  0.4821120000000  0.4387090000000 1.0
C      1  0.6124900000000  0.4854780000000  0.4816050000000 1.0
C      1  0.5114780000000  0.4791210000000  0.4265600000000 1.0
C      1  0.5859320000000  0.5243600000000  0.4969200000000 1.0
C      1  0.4542750000000  0.4772990000000  0.5603420000000 1.0
C      1  0.4279100000000  0.4459320000000  0.5077310000000 1.0
C      1  0.5002580000000  0.5632010000000  0.5607020000000 1.0
C      1  0.4169060000000  0.5056030000000  0.4586480000000 1.0
C      1  0.5389610000000  0.4802090000000  0.4894200000000 1.0
C      1  0.5302710000000  0.5271670000000  0.5760970000000 1.0
C      1  0.5352370000000  0.5085940000000  0.4898160000000 1.0
C      1  0.4959580000000  0.4179590000000  0.4557770000000 1.0
C      1  0.4465360000000  0.4510490000000  0.4632210000000 1.0
C      1  0.5007110000000  0.5521410000000  0.4286830000000 1.0
C      1  0.4171430000000  0.4729780000000  0.5064010000000 1.0
C      1  0.5851010000000  0.4444610000000  0.4858080000000 1.0
C      1  0.4125340000000  0.4842810000000  0.5300890000000 1.0
C      1  0.5961100000000  0.4680190000000  0.4965580000000 1.0
C      1  0.5304090000000  0.4183560000000  0.5039060000000 1.0
C      1  0.4902900000000  0.5332790000000  0.4956540000000 1.0
C      1  0.4772050000000  0.5970380000000  0.4779990000000 1.0
C      1  0.5410340000000  0.5643190000000  0.4527580000000 1.0
C      1  0.4931010000000  0.4571000000000  0.5527700000000 1.0
C      1  0.5243310000000  0.4186970000000  0.4544120000000 1.0
C      1  0.4852340000000  0.5717680000000  0.4415230000000 1.0
C      1  0.5032120000000  0.4085690000000  0.5046040000000 1.0
C      1  0.4567820000000  0.5249510000000  0.5713620000000 1.0
C      1  0.4637360000000  0.5044870000000  0.5182610000000 1.0
C      1  0.5419700000000  0.4192410000000  0.4773790000000 1.0
C      1  0.4733890000000  0.5677360000000  0.5525230000000 1.0
C      1  0.5450040000000  0.5564660000000  0.5377350000000 1.0
C      1  0.4591870000000  0.4144430000000  0.4919970000000 1.0
C      1  0.4201530000000  0.5068370000000  0.5426860000000 1.0
C      1  0.4808370000000  0.4617510000000  0.5234530000000 1.0
C      1  0.5326240000000  0.5795830000000  0.4980680000000 1.0
C      1  0.5667890000000  0.4890320000000  0.5621590000000 1.0
C      1  0.4240250000000  0.4900820000000  0.4359670000000 1.0
C      1  0.4174510000000  0.5523960000000  0.4802690000000 1.0
C      1  0.5515070000000  0.5356310000000  0.5575370000000 1.0
C      1  0.5048360000000  0.5408550000000  0.5772600000000 1.0
C      1  0.5530330000000  0.5619420000000  0.5091300000000 1.0
C      1  0.5168890000000  0.4381070000000  0.5521630000000 1.0
C      1  0.5325800000000  0.4379380000000  0.4344690000000 1.0
C      1  0.4590480000000  0.4134650000000  0.5203010000000 1.0
C      1  0.4206360000000  0.5350320000000  0.4593610000000 1.0
C      1  0.4834100000000  0.5220360000000  0.5819610000000 1.0
C      1  0.4855540000000  0.4100400000000  0.4813040000000 1.0
C      1  0.4871090000000  0.5200260000000  0.5210430000000 1.0
C      1  0.5244700000000  0.4992570000000  0.5830030000000 1.0
C      1  0.4852470000000  0.4379650000000  0.4356890000000 1.0
C      1  0.4474980000000  0.4769050000000  0.4281970000000 1.0
C      1  0.5292400000000  0.4633190000000  0.4699110000000 1.0
C      1  0.4638740000000  0.4926010000000  0.4489500000000 1.0
C      1  0.5578020000000  0.4464640000000  0.5449770000000 1.0
C      1  0.5058240000000  0.5099890000000  0.5376330000000 1.0
C      1  0.4406050000000  0.4336870000000  0.5309040000000 1.0
C      1  0.5252960000000  0.4696230000000  0.5133670000000 1.0
C      1  0.5455840000000  0.5118610000000  0.5160580000000 1.0
C      1  0.4931580000000  0.4860690000000  0.4518690000000 1.0
C      1  0.4863480000000  0.4088410000000  0.5282900000000 1.0
C      1  0.4811280000000  0.4751080000000  0.5729880000000 1.0
C      1  0.4935520000000  0.4182680000000  0.5543390000000 1.0
C      1  0.5754480000000  0.4687390000000  0.5436390000000 1.0
C      1  0.5649000000000  0.4362010000000  0.4701830000000 1.0
C      1  0.5292030000000  0.5498810000000  0.4308670000000 1.0
C      1  0.5251360000000  0.5804330000000  0.4704190000000 1.0
C      1  0.5348790000000  0.4395960000000  0.5256280000000 1.0
C      1  0.5430400000000  0.5246180000000  0.4277650000000 1.0
C      1  0.4643750000000  0.5230890000000  0.4486440000000 1.0
C      1  0.5204750000000  0.5706350000000  0.5418540000000 1.0
C      1  0.4399600000000  0.4342040000000  0.4846450000000 1.0
C      1  0.4668550000000  0.5824460000000  0.5291890000000 1.0
C      1  0.4983240000000  0.5860030000000  0.4619290000000 1.0
C      1  0.4342650000000  0.5511850000000  0.5347500000000 1.0
C      1  0.4586600000000  0.4490700000000  0.4369500000000 1.0
C      1  0.4500760000000  0.4779930000000  0.4717690000000 1.0
C      1  0.5139410000000  0.5854730000000  0.5187400000000 1.0
C      1  0.5269630000000  0.4948330000000  0.5301940000000 1.0
C      1  0.4341390000000  0.5723410000000  0.4904130000000 1.0
C      1  0.4573470000000  0.5686630000000  0.4475980000000 1.0
C      1  0.5708500000000  0.5483370000000  0.4904340000000 1.0
C      1  0.5431910000000  0.4789810000000  0.5761870000000 1.0
C      1  0.5937090000000  0.5050670000000  0.4754240000000 1.0
C      1  0.5777040000000  0.5092380000000  0.5212540000000 1.0
C      1  0.5868560000000  0.4811130000000  0.5213570000000 1.0
C      1  0.4896000000000  0.5283180000000  0.4368670000000 1.0
C      1  0.5121470000000  0.5217580000000  0.4811220000000 1.0
C      1  0.5526630000000  0.4542380000000  0.4477920000000 1.0
C      1  0.4524150000000  0.5834260000000  0.4711390000000 1.0
C      1  0.5638280000000  0.5504590000000  0.4624160000000 1.0
C      1  0.4972420000000  0.4663760000000  0.5018470000000 1.0
C      1  0.4957060000000  0.4963540000000  0.5843460000000 1.0
C      1  0.5660880000000  0.5275660000000  0.4444340000000 1.0
C      1  0.4612250000000  0.4798480000000  0.5301860000000 1.0
C      1  0.4396160000000  0.5030750000000  0.5640020000000 1.0
C      1  0.4812630000000  0.6173410000000  0.4963880000000 1.0
C      1  0.4441380000000  0.5435470000000  0.4439450000000 1.0
C      1  0.4875320000000  0.5961740000000  0.5148140000000 1.0
C      1  0.4648720000000  0.5297960000000  0.4817170000000 1.0
C      1  0.4287280000000  0.4928950000000  0.4848430000000 1.0
C      1  0.4524040000000  0.5491950000000  0.5571630000000 1.0
C      1  0.5372720000000  0.4947730000000  0.4258490000000 1.0
C      1  0.5398220000000  0.4511380000000  0.5668150000000 1.0
C      1  0.4999550000000  0.4659500000000  0.4735040000000 1.0
C      1  0.4438280000000  0.5151700000000  0.4997170000000 1.0
C      1  0.5049270000000  0.5122540000000  0.4554830000000 1.0
C      1  0.5701850000000  0.5148730000000  0.5509510000000 1.0
C      1  0.5094340000000  0.4508380000000  0.4246050000000 1.0
C      1  0.4244470000000  0.5277440000000  0.5231300000000 1.0
C      1  0.4734450000000  0.4358900000000  0.5632410000000 1.0
C      1  0.4422840000000  0.5728690000000  0.5181410000000 1.0
C      1  0.5772770000000  0.5027600000000  0.4506410000000 1.0
C      1  0.4487190000000  0.4461100000000  0.5557980000000 1.0
END
