TITL C-121992-4403-1 0.00404430611651326 125000 -446.204756631756 0 0 66 (C1) n - 1
REM
REM in /rds/project/t2_vol4/rds-t2-cs072/BORA/CARBON/from-Arr/AIRSS/Generating-Clusters/GAP-ML-2020/Only-C1/SD-CG/HFTN-CG
REM
REM
REM
REM
REM
REM ./C.cell (11c1c37f851c82e70ff6c80c92926a4b)
REM AIRSS Version 0.9.1 bugfix July 2018 build 013d7b7c2542+ Fri, 06 Jul 2018 19:26:36 +0100
REM compiler GCC version 9.3.0
REM options -cpp -mtune=generic -march=x86-64 -g -O0
REM seed -1087691741 670943442 2076903599 -1634646367 -435672279 1323763856 1839390386 1208190955 127416031 1959571536 -965782594 -223477619 -438334283 -1035441008 -1376727960 112211388 -858859748 -958492133 2123237982 -1873937277 1886435938 -121778414 1072241766 1854128401 -691305554 -729115488 2070965844 -1576871073 461887592 1777927477 -2134793133 424039011 -172013328
REM
CELL 1.54180   50.00000   50.00000   50.00000   90.00000   90.00000   90.00000
LATT -1
SFAC C  
C      1  0.5313760000000  0.5641960000000  0.5222690000000 1.0
C      1  0.5085670000000  0.5430000000000  0.5538080000000 1.0
C      1  0.5394280000000  0.4407020000000  0.5211330000000 1.0
C      1  0.5642970000000  0.5211470000000  0.5349800000000 1.0
C      1  0.4967490000000  0.4708990000000  0.4818490000000 1.0
C      1  0.4679780000000  0.4391090000000  0.4967850000000 1.0
C      1  0.4754610000000  0.5076200000000  0.4994380000000 1.0
C      1  0.4961720000000  0.5100040000000  0.4515770000000 1.0
C      1  0.4400060000000  0.5349400000000  0.5227470000000 1.0
C      1  0.4879810000000  0.4972000000000  0.4265910000000 1.0
C      1  0.5365780000000  0.4672980000000  0.4423360000000 1.0
C      1  0.4871930000000  0.4705950000000  0.4334200000000 1.0
C      1  0.4997620000000  0.4730480000000  0.5101890000000 1.0
C      1  0.5491190000000  0.5465010000000  0.5375070000000 1.0
C      1  0.4358350000000  0.5067980000000  0.5309020000000 1.0
C      1  0.5443930000000  0.5042660000000  0.4689570000000 1.0
C      1  0.4543010000000  0.4627090000000  0.5047690000000 1.0
C      1  0.5468320000000  0.4678470000000  0.5311790000000 1.0
C      1  0.4658660000000  0.4622930000000  0.4503870000000 1.0
C      1  0.4631530000000  0.5514480000000  0.4729660000000 1.0
C      1  0.4794910000000  0.5472680000000  0.4496600000000 1.0
C      1  0.5297160000000  0.5502290000000  0.4490930000000 1.0
C      1  0.4292210000000  0.5267900000000  0.4955270000000 1.0
C      1  0.4643100000000  0.4776230000000  0.5634290000000 1.0
C      1  0.4823990000000  0.4945250000000  0.4740010000000 1.0
C      1  0.4785020000000  0.5681710000000  0.5238560000000 1.0
C      1  0.4274790000000  0.4996140000000  0.5035670000000 1.0
C      1  0.4815410000000  0.5586660000000  0.4957140000000 1.0
C      1  0.5210830000000  0.5309500000000  0.4918430000000 1.0
C      1  0.4718750000000  0.5214440000000  0.4371600000000 1.0
C      1  0.4550900000000  0.5551300000000  0.5311730000000 1.0
C      1  0.5290650000000  0.5608940000000  0.4931240000000 1.0
C      1  0.4480490000000  0.5123290000000  0.4520880000000 1.0
C      1  0.5142770000000  0.4267550000000  0.5114200000000 1.0
C      1  0.5141630000000  0.4843110000000  0.5631360000000 1.0
C      1  0.5519370000000  0.4781550000000  0.4626090000000 1.0
C      1  0.4526550000000  0.4853370000000  0.4634300000000 1.0
C      1  0.5032440000000  0.5617560000000  0.4540280000000 1.0
C      1  0.4376340000000  0.4784200000000  0.4886120000000 1.0
C      1  0.5679250000000  0.4777350000000  0.5122160000000 1.0
C      1  0.4422410000000  0.5323240000000  0.4716880000000 1.0
C      1  0.5058420000000  0.5658300000000  0.5366430000000 1.0
C      1  0.4558030000000  0.4908450000000  0.5409600000000 1.0
C      1  0.5033640000000  0.5701350000000  0.4809800000000 1.0
C      1  0.5455820000000  0.5610670000000  0.4689300000000 1.0
C      1  0.5237190000000  0.4875290000000  0.5162530000000 1.0
C      1  0.5612420000000  0.4651790000000  0.4872760000000 1.0
C      1  0.4967250000000  0.5236440000000  0.5364930000000 1.0
C      1  0.5228340000000  0.5229100000000  0.4600760000000 1.0
C      1  0.5403910000000  0.5087380000000  0.4973570000000 1.0
C      1  0.5484290000000  0.4409480000000  0.4930960000000 1.0
C      1  0.4764090000000  0.4293740000000  0.5434810000000 1.0
C      1  0.5120070000000  0.4562410000000  0.4408630000000 1.0
C      1  0.5355890000000  0.5355260000000  0.5606300000000 1.0
C      1  0.5113190000000  0.5003200000000  0.5389050000000 1.0
C      1  0.4723660000000  0.4830470000000  0.5175680000000 1.0
C      1  0.4911650000000  0.4720270000000  0.5710430000000 1.0
C      1  0.4857320000000  0.4280550000000  0.5172180000000 1.0
C      1  0.4791990000000  0.4451470000000  0.4710000000000 1.0
C      1  0.5057540000000  0.4371200000000  0.4625030000000 1.0
C      1  0.5665460000000  0.5059610000000  0.5119930000000 1.0
C      1  0.4755130000000  0.4509720000000  0.5579680000000 1.0
C      1  0.5516470000000  0.5096400000000  0.5584330000000 1.0
C      1  0.4941110000000  0.5286640000000  0.5067510000000 1.0
C      1  0.5425180000000  0.4818140000000  0.5586880000000 1.0
C      1  0.5232510000000  0.4292210000000  0.4837260000000 1.0
END
