TITL C-125556-3491-8 0.013089049854007 125000 -847.832439894495 0 0 121 (C1) n - 1
REM
REM in /rds/project/t2_vol4/rds-t2-cs072/BORA/CARBON/from-Arr/AIRSS/Generating-Clusters/GAP-ML-2020/Only-C1/SD-CG/HFTN-CG
REM
REM
REM
REM
REM
REM ./C.cell (11c1c37f851c82e70ff6c80c92926a4b)
REM AIRSS Version 0.9.1 bugfix July 2018 build 013d7b7c2542+ Fri, 06 Jul 2018 19:26:36 +0100
REM compiler GCC version 9.3.0
REM options -cpp -mtune=generic -march=x86-64 -g -O0
REM seed -567063149 84109587 1879886727 -1870845903 -313112451 641715280 -1777432654 -1662382857 -1326774255 -106283729 -1071277386 -1312254243 -330834610 -1766678294 -604317628 999272629 -511516593 956205998 1299755193 -573712951 -248206271 1548201078 1159117561 1715471974 -219692705 909565620 1240554031 -659245285 -859789631 -773111268 -1230043467 -1132499875 180709423
REM
CELL 1.54180   50.00000   50.00000   50.00000   90.00000   90.00000   90.00000
LATT -1
SFAC C  
C      1  0.5089160000000  0.3993820000000  0.4935330000000 1.0
C      1  0.4820070000000  0.5643970000000  0.5741940000000 1.0
C      1  0.5218520000000  0.4243330000000  0.4512000000000 1.0
C      1  0.4749360000000  0.5384320000000  0.5819990000000 1.0
C      1  0.5632920000000  0.4459920000000  0.5098550000000 1.0
C      1  0.5214040000000  0.5453210000000  0.4309710000000 1.0
C      1  0.5439340000000  0.5073080000000  0.4784790000000 1.0
C      1  0.5173820000000  0.5253160000000  0.5646800000000 1.0
C      1  0.5584800000000  0.5496890000000  0.4595470000000 1.0
C      1  0.5107800000000  0.5714690000000  0.5736320000000 1.0
C      1  0.5922790000000  0.4876380000000  0.4677570000000 1.0
C      1  0.4774140000000  0.5038560000000  0.4523710000000 1.0
C      1  0.4869420000000  0.4765490000000  0.4068440000000 1.0
C      1  0.5525080000000  0.4615600000000  0.5563590000000 1.0
C      1  0.4874670000000  0.5668360000000  0.4551270000000 1.0
C      1  0.4349820000000  0.5561670000000  0.4755890000000 1.0
C      1  0.5611050000000  0.4735930000000  0.4356690000000 1.0
C      1  0.4719580000000  0.5027040000000  0.4079620000000 1.0
C      1  0.4654330000000  0.4750200000000  0.4542910000000 1.0
C      1  0.5293610000000  0.5502750000000  0.5778860000000 1.0
C      1  0.4989980000000  0.4931540000000  0.4707710000000 1.0
C      1  0.4128480000000  0.4613300000000  0.5085390000000 1.0
C      1  0.4407410000000  0.4989710000000  0.4828740000000 1.0
C      1  0.5078690000000  0.4398590000000  0.5580760000000 1.0
C      1  0.5137850000000  0.6001510000000  0.5075070000000 1.0
C      1  0.4725900000000  0.5380750000000  0.4873900000000 1.0
C      1  0.4238590000000  0.4549430000000  0.4607900000000 1.0
C      1  0.5278910000000  0.4579370000000  0.5706480000000 1.0
C      1  0.4053830000000  0.4904800000000  0.5015910000000 1.0
C      1  0.4748650000000  0.4727350000000  0.4827190000000 1.0
C      1  0.4370280000000  0.5365320000000  0.4557360000000 1.0
C      1  0.5154990000000  0.5115710000000  0.4878270000000 1.0
C      1  0.4994730000000  0.4816960000000  0.5242800000000 1.0
C      1  0.5303120000000  0.5949520000000  0.5306740000000 1.0
C      1  0.5684770000000  0.5557990000000  0.5291580000000 1.0
C      1  0.4682990000000  0.5167020000000  0.5359410000000 1.0
C      1  0.5424050000000  0.4762160000000  0.4763880000000 1.0
C      1  0.5148120000000  0.5779520000000  0.4616550000000 1.0
C      1  0.4219590000000  0.5188580000000  0.5415090000000 1.0
C      1  0.5392820000000  0.4758660000000  0.4171300000000 1.0
C      1  0.4730250000000  0.4717340000000  0.5758870000000 1.0
C      1  0.4540180000000  0.5631550000000  0.5271620000000 1.0
C      1  0.5176430000000  0.5025060000000  0.5187050000000 1.0
C      1  0.5118700000000  0.5920730000000  0.5531110000000 1.0
C      1  0.5148090000000  0.4572800000000  0.5133240000000 1.0
C      1  0.4927450000000  0.5461460000000  0.4346150000000 1.0
C      1  0.5874600000000  0.4616900000000  0.4993610000000 1.0
C      1  0.5797560000000  0.5115290000000  0.5428970000000 1.0
C      1  0.4650700000000  0.5817830000000  0.5035280000000 1.0
C      1  0.4610760000000  0.4028540000000  0.5139450000000 1.0
C      1  0.4782600000000  0.4448380000000  0.4868030000000 1.0
C      1  0.4851120000000  0.5986670000000  0.5142600000000 1.0
C      1  0.5565340000000  0.5206210000000  0.4518620000000 1.0
C      1  0.4142330000000  0.5131730000000  0.4842470000000 1.0
C      1  0.4278210000000  0.4964530000000  0.4361410000000 1.0
C      1  0.5029910000000  0.5373140000000  0.4906450000000 1.0
C      1  0.5752830000000  0.4969030000000  0.4466180000000 1.0
C      1  0.4713060000000  0.5393700000000  0.5190780000000 1.0
C      1  0.4288380000000  0.5437020000000  0.5236890000000 1.0
C      1  0.5059170000000  0.4495710000000  0.4410990000000 1.0
C      1  0.4667490000000  0.5768490000000  0.5519720000000 1.0
C      1  0.5049450000000  0.4494600000000  0.4875040000000 1.0
C      1  0.4165600000000  0.5178510000000  0.4514320000000 1.0
C      1  0.4465220000000  0.4889270000000  0.4162970000000 1.0
C      1  0.5947570000000  0.4913070000000  0.4965720000000 1.0
C      1  0.4297920000000  0.4389240000000  0.5018460000000 1.0
C      1  0.4938200000000  0.4897000000000  0.5838890000000 1.0
C      1  0.5218080000000  0.4831090000000  0.5814050000000 1.0
C      1  0.5187570000000  0.5289030000000  0.5331960000000 1.0
C      1  0.5451480000000  0.4919910000000  0.5211640000000 1.0
C      1  0.5527060000000  0.5338650000000  0.5757430000000 1.0
C      1  0.4587110000000  0.5189930000000  0.4692810000000 1.0
C      1  0.5702040000000  0.5360730000000  0.5524370000000 1.0
C      1  0.5319400000000  0.5012130000000  0.4142680000000 1.0
C      1  0.4360930000000  0.4792680000000  0.4583850000000 1.0
C      1  0.4938150000000  0.5177750000000  0.5810200000000 1.0
C      1  0.4582460000000  0.4850750000000  0.5012340000000 1.0
C      1  0.5863310000000  0.5153440000000  0.5126700000000 1.0
C      1  0.5463250000000  0.5352560000000  0.5231980000000 1.0
C      1  0.5281050000000  0.4131570000000  0.5085100000000 1.0
C      1  0.5571400000000  0.4912230000000  0.5500700000000 1.0
C      1  0.5534570000000  0.5810320000000  0.4935790000000 1.0
C      1  0.4459810000000  0.4807490000000  0.5698040000000 1.0
C      1  0.5472430000000  0.4297700000000  0.4645660000000 1.0
C      1  0.4807530000000  0.5208250000000  0.4281570000000 1.0
C      1  0.5875000000000  0.4594340000000  0.4709840000000 1.0
C      1  0.4748570000000  0.4489470000000  0.4414490000000 1.0
C      1  0.5619890000000  0.4546150000000  0.4581930000000 1.0
C      1  0.5348970000000  0.5627950000000  0.4483440000000 1.0
C      1  0.4144350000000  0.4692680000000  0.5364220000000 1.0
C      1  0.5397530000000  0.5046270000000  0.5712430000000 1.0
C      1  0.5833180000000  0.5457740000000  0.5060170000000 1.0
C      1  0.5547640000000  0.5816330000000  0.5219310000000 1.0
C      1  0.4634370000000  0.4633900000000  0.4177500000000 1.0
C      1  0.5524630000000  0.4416800000000  0.5372430000000 1.0
C      1  0.4364970000000  0.4354010000000  0.4740790000000 1.0
C      1  0.5696040000000  0.5594450000000  0.4834820000000 1.0
C      1  0.5008800000000  0.5449990000000  0.5186560000000 1.0
C      1  0.4218070000000  0.5408420000000  0.4962930000000 1.0
C      1  0.5381760000000  0.5226310000000  0.4286840000000 1.0
C      1  0.4719350000000  0.4907760000000  0.5244400000000 1.0
C      1  0.4088510000000  0.4972650000000  0.5298050000000 1.0
C      1  0.5575500000000  0.5140850000000  0.5055990000000 1.0
C      1  0.5236320000000  0.4330110000000  0.5323050000000 1.0
C      1  0.4368450000000  0.5080380000000  0.5656970000000 1.0
C      1  0.4539030000000  0.4402980000000  0.5472270000000 1.0
C      1  0.5064340000000  0.4055160000000  0.4644480000000 1.0
C      1  0.5272670000000  0.5903960000000  0.4842620000000 1.0
C      1  0.4791830000000  0.4462120000000  0.5620180000000 1.0
C      1  0.5149000000000  0.4687680000000  0.4660370000000 1.0
C      1  0.4850360000000  0.5961310000000  0.5427420000000 1.0
C      1  0.4643490000000  0.4301200000000  0.4636880000000 1.0
C      1  0.4475600000000  0.4257570000000  0.5223200000000 1.0
C      1  0.4779940000000  0.4046740000000  0.4670020000000 1.0
C      1  0.4588970000000  0.5243660000000  0.5647010000000 1.0
C      1  0.4343320000000  0.4603160000000  0.5540590000000 1.0
C      1  0.5429430000000  0.4677720000000  0.5049170000000 1.0
C      1  0.4798410000000  0.3970560000000  0.4960840000000 1.0
C      1  0.5116620000000  0.4655060000000  0.4167400000000 1.0
C      1  0.5498410000000  0.4244640000000  0.4926830000000 1.0
C      1  0.4641870000000  0.5663760000000  0.4781330000000 1.0
END
