TITL C-125552-2394-4 -0.0680872542614896 125000 -248.472619264543 0 0 38 (C1) n - 1
REM
REM in /rds/project/t2_vol4/rds-t2-cs072/BORA/CARBON/from-Arr/AIRSS/Generating-Clusters/GAP-ML-2020/Only-C1/SD-CG/HFTN-CG
REM
REM
REM
REM
REM
REM ./C.cell (11c1c37f851c82e70ff6c80c92926a4b)
REM AIRSS Version 0.9.1 bugfix July 2018 build 013d7b7c2542+ Fri, 06 Jul 2018 19:26:36 +0100
REM compiler GCC version 9.3.0
REM options -cpp -mtune=generic -march=x86-64 -g -O0
REM seed -1721878246 -1781550459 -361976723 -889276548 -754715779 -254882887 -891611269 -1804428005 -2096813703 -866516574 -838234753 -1764966231 1273002497 145120857 -1864217662 -677412718 -156012305 -1835076810 14871375 1610666205 1754059549 -1314424467 228480903 1947602928 1500371986 -1194456586 883691073 -571215957 456521490 -1286522636 -1163277196 -366397384 797747850
REM
CELL 1.54180   50.00000   50.00000   50.00000   90.00000   90.00000   90.00000
LATT -1
SFAC C  
C      1  0.4911890000000  0.4532620000000  0.4843510000000 1.0
C      1  0.4681720000000  0.5235420000000  0.4694800000000 1.0
C      1  0.5117830000000  0.4517220000000  0.5322840000000 1.0
C      1  0.4442210000000  0.4931600000000  0.5093900000000 1.0
C      1  0.4801680000000  0.4749730000000  0.4998340000000 1.0
C      1  0.4546450000000  0.5006370000000  0.4596390000000 1.0
C      1  0.4498800000000  0.5201940000000  0.5158480000000 1.0
C      1  0.5331230000000  0.5465310000000  0.5005350000000 1.0
C      1  0.5111050000000  0.5465860000000  0.4603290000000 1.0
C      1  0.4567860000000  0.4878550000000  0.4841850000000 1.0
C      1  0.5081430000000  0.5546280000000  0.4881750000000 1.0
C      1  0.4791960000000  0.5016390000000  0.5505230000000 1.0
C      1  0.5428530000000  0.5231070000000  0.4807980000000 1.0
C      1  0.4874730000000  0.5384230000000  0.5294030000000 1.0
C      1  0.5480530000000  0.4756160000000  0.4807540000000 1.0
C      1  0.4627360000000  0.4874400000000  0.4351040000000 1.0
C      1  0.4620580000000  0.5362430000000  0.4940860000000 1.0
C      1  0.5410590000000  0.5524420000000  0.5253300000000 1.0
C      1  0.4965570000000  0.5229330000000  0.4654560000000 1.0
C      1  0.5367190000000  0.5364730000000  0.4554150000000 1.0
C      1  0.5028260000000  0.5111840000000  0.5341930000000 1.0
C      1  0.5432290000000  0.4601090000000  0.5039700000000 1.0
C      1  0.4920580000000  0.4527570000000  0.5498160000000 1.0
C      1  0.5597710000000  0.5005790000000  0.4843540000000 1.0
C      1  0.4609820000000  0.4725710000000  0.5227070000000 1.0
C      1  0.4842970000000  0.4749000000000  0.4411080000000 1.0
C      1  0.5223940000000  0.4821880000000  0.4679620000000 1.0
C      1  0.4734900000000  0.4742170000000  0.5474230000000 1.0
C      1  0.5060590000000  0.4928500000000  0.5096870000000 1.0
C      1  0.5413400000000  0.5405700000000  0.5492180000000 1.0
C      1  0.5140190000000  0.5055800000000  0.4835080000000 1.0
C      1  0.4849470000000  0.5509900000000  0.5044420000000 1.0
C      1  0.5042060000000  0.4339030000000  0.4976300000000 1.0
C      1  0.4649700000000  0.5239730000000  0.5398020000000 1.0
C      1  0.5018520000000  0.4650620000000  0.4594360000000 1.0
C      1  0.5256470000000  0.4745840000000  0.5212890000000 1.0
C      1  0.5275080000000  0.4355970000000  0.5115990000000 1.0
C      1  0.5244850000000  0.5209810000000  0.5509370000000 1.0
END
