TITL C-125554-2178-1 64.4881921347962 125000 -88.4343699390842 0 0 14 (C1) n - 1
REM
REM in /rds/project/t2_vol4/rds-t2-cs072/BORA/CARBON/from-Arr/AIRSS/Generating-Clusters/GAP-ML-2020/Only-C1/SD-CG/HFTN-CG
REM
REM
REM
REM
REM
REM ./C.cell (11c1c37f851c82e70ff6c80c92926a4b)
REM AIRSS Version 0.9.1 bugfix July 2018 build 013d7b7c2542+ Fri, 06 Jul 2018 19:26:36 +0100
REM compiler GCC version 9.3.0
REM options -cpp -mtune=generic -march=x86-64 -g -O0
REM seed 883515958 -1914445424 -941631507 553703078 -1794753983 -1580391041 957960608 -530644775 -909849685 1609252561 -492603977 -1650524689 -1683504520 1608719582 544685528 -1927061682 976239143 -1032964774 -241280900 -167669418 -332763525 -328922477 -1037906496 1954754974 1679558978 33757349 -1395195730 -1681274647 1647774002 -644899317 -651542128 -205421758 1500118698
REM
CELL 1.54180   50.00000   50.00000   50.00000   90.00000   90.00000   90.00000
LATT -1
SFAC C  
C      1  0.5022980000000  0.4442500000000  0.5239030000000 1.0
C      1  0.4933570000000  0.4555060000000  0.5001150000000 1.0
C      1  0.5102850000000  0.5213230000000  0.4808800000000 1.0
C      1  0.5420440000000  0.5587950000000  0.5108560000000 1.0
C      1  0.4849560000000  0.5094460000000  0.4741610000000 1.0
C      1  0.4879940000000  0.4682270000000  0.5244760000000 1.0
C      1  0.5288580000000  0.5343740000000  0.4998300000000 1.0
C      1  0.4706390000000  0.5054770000000  0.5135160000000 1.0
C      1  0.4849080000000  0.4828160000000  0.4704430000000 1.0
C      1  0.5358790000000  0.5168910000000  0.4759610000000 1.0
C      1  0.4829180000000  0.4575510000000  0.4743840000000 1.0
C      1  0.4706800000000  0.4878860000000  0.5328370000000 1.0
C      1  0.5400700000000  0.5379950000000  0.5259160000000 1.0
C      1  0.4651130000000  0.5194620000000  0.4927210000000 1.0
END
