TITL C-121977-4441-2 0.144289804002933 125000 -247.545683607419 0 0 38 (C1) n - 1
REM
REM in /rds/project/t2_vol4/rds-t2-cs072/BORA/CARBON/from-Arr/AIRSS/Generating-Clusters/GAP-ML-2020/Only-C1/SD-CG/HFTN-CG
REM
REM
REM
REM
REM
REM ./C.cell (11c1c37f851c82e70ff6c80c92926a4b)
REM AIRSS Version 0.9.1 bugfix July 2018 build 013d7b7c2542+ Fri, 06 Jul 2018 19:26:36 +0100
REM compiler GCC version 9.3.0
REM options -cpp -mtune=generic -march=x86-64 -g -O0
REM seed -1144983852 753092658 656019446 1615096237 2131911057 -1305288825 2045447428 755970796 256391876 2145191476 1096943324 837809380 -738611919 -847451242 390827298 110967763 46322184 -193020519 1308811875 799600175 -2019978878 -392939929 -676629753 -896837573 -958398352 12603206 -766091179 -490173679 217158584 -873403088 -1390342070 -2093288900 1622128199
REM
CELL 1.54180   50.00000   50.00000   50.00000   90.00000   90.00000   90.00000
LATT -1
SFAC C  
C      1  0.5443120000000  0.5011080000000  0.4721020000000 1.0
C      1  0.4604740000000  0.4888260000000  0.4925440000000 1.0
C      1  0.5311550000000  0.4724940000000  0.5053870000000 1.0
C      1  0.5031550000000  0.5552070000000  0.5163650000000 1.0
C      1  0.4669910000000  0.4796620000000  0.5440190000000 1.0
C      1  0.4929940000000  0.4858140000000  0.5324720000000 1.0
C      1  0.4784420000000  0.5503020000000  0.5287410000000 1.0
C      1  0.5365190000000  0.4518420000000  0.4884230000000 1.0
C      1  0.5604210000000  0.5250460000000  0.4667400000000 1.0
C      1  0.5072210000000  0.5345040000000  0.4750470000000 1.0
C      1  0.5462310000000  0.5372820000000  0.4455690000000 1.0
C      1  0.4535440000000  0.5064940000000  0.5454680000000 1.0
C      1  0.4271330000000  0.4992420000000  0.5434300000000 1.0
C      1  0.5077140000000  0.4646850000000  0.5189880000000 1.0
C      1  0.5037570000000  0.5112910000000  0.4921030000000 1.0
C      1  0.5212820000000  0.5258290000000  0.4517330000000 1.0
C      1  0.4921060000000  0.4484590000000  0.5019120000000 1.0
C      1  0.5271940000000  0.5420920000000  0.5274030000000 1.0
C      1  0.4269340000000  0.4786800000000  0.5230570000000 1.0
C      1  0.4319830000000  0.4897290000000  0.4984550000000 1.0
C      1  0.5117190000000  0.4512390000000  0.4535040000000 1.0
C      1  0.4813520000000  0.5050670000000  0.5099180000000 1.0
C      1  0.5463480000000  0.5283740000000  0.5096550000000 1.0
C      1  0.4712190000000  0.4963240000000  0.4379300000000 1.0
C      1  0.4519990000000  0.4610110000000  0.5288680000000 1.0
C      1  0.5336800000000  0.5023570000000  0.4987190000000 1.0
C      1  0.5654300000000  0.5366810000000  0.4920610000000 1.0
C      1  0.5204850000000  0.5270090000000  0.5499800000000 1.0
C      1  0.5102000000000  0.5003020000000  0.5493500000000 1.0
C      1  0.4695480000000  0.5249780000000  0.5288610000000 1.0
C      1  0.5224450000000  0.4955800000000  0.4533870000000 1.0
C      1  0.4991990000000  0.4919770000000  0.4711480000000 1.0
C      1  0.4714440000000  0.4920410000000  0.4635440000000 1.0
C      1  0.5107350000000  0.4417640000000  0.4795850000000 1.0
C      1  0.5199050000000  0.5111020000000  0.5718420000000 1.0
C      1  0.5091460000000  0.5569990000000  0.4892910000000 1.0
C      1  0.5199410000000  0.4706160000000  0.4384850000000 1.0
C      1  0.4656420000000  0.4579920000000  0.5039140000000 1.0
END
