TITL C-125559-2254-2 60.3167865282758 125000 -383.516251726533 0 0 56 (C1) n - 1
REM
REM in /rds/project/t2_vol4/rds-t2-cs072/BORA/CARBON/from-Arr/AIRSS/Generating-Clusters/GAP-ML-2020/Only-C1/SD-CG/HFTN-CG
REM
REM
REM
REM
REM
REM ./C.cell (11c1c37f851c82e70ff6c80c92926a4b)
REM AIRSS Version 0.9.1 bugfix July 2018 build 013d7b7c2542+ Fri, 06 Jul 2018 19:26:36 +0100
REM compiler GCC version 9.3.0
REM options -cpp -mtune=generic -march=x86-64 -g -O0
REM seed -663175288 -1973643605 1755932732 9983868 -619681172 1889426501 -848806887 1896457748 -1764476347 1532777143 -1103141328 234744157 -638645259 555661125 -1556860433 -1050390559 1392644298 1819310227 586069143 -248703934 -953201317 -2019406502 2034621010 -1710822046 -1587631208 2107647641 2088082974 1630736457 -123731357 -1310357554 1083127065 1120934239 -64122842
REM
CELL 1.54180   50.00000   50.00000   50.00000   90.00000   90.00000   90.00000
LATT -1
SFAC C  
C      1  0.4765580000000  0.5091400000000  0.5542160000000 1.0
C      1  0.5898770000000  0.5048270000000  0.5362690000000 1.0
C      1  0.4673310000000  0.4818350000000  0.5524010000000 1.0
C      1  0.4540810000000  0.4749230000000  0.4619430000000 1.0
C      1  0.5736390000000  0.4825170000000  0.5397480000000 1.0
C      1  0.5665940000000  0.5224140000000  0.5404690000000 1.0
C      1  0.4467800000000  0.5274180000000  0.5206800000000 1.0
C      1  0.4569100000000  0.4545720000000  0.5111530000000 1.0
C      1  0.5536380000000  0.4993530000000  0.5535680000000 1.0
C      1  0.5280730000000  0.5475510000000  0.5175160000000 1.0
C      1  0.5038430000000  0.5131660000000  0.5432850000000 1.0
C      1  0.5179890000000  0.5535520000000  0.4915940000000 1.0
C      1  0.4757500000000  0.5043380000000  0.4300870000000 1.0
C      1  0.5126850000000  0.4942890000000  0.4447390000000 1.0
C      1  0.5236780000000  0.4496190000000  0.4641440000000 1.0
C      1  0.5641890000000  0.4604020000000  0.5232320000000 1.0
C      1  0.5505500000000  0.5122190000000  0.4991610000000 1.0
C      1  0.5270430000000  0.4937480000000  0.5432310000000 1.0
C      1  0.5503850000000  0.4404790000000  0.5374840000000 1.0
C      1  0.5435400000000  0.5166240000000  0.4718430000000 1.0
C      1  0.4810100000000  0.5510260000000  0.5337370000000 1.0
C      1  0.5243810000000  0.4444170000000  0.5438430000000 1.0
C      1  0.4953390000000  0.4414430000000  0.5384710000000 1.0
C      1  0.5514510000000  0.4720130000000  0.5005660000000 1.0
C      1  0.4745030000000  0.5152550000000  0.4751150000000 1.0
C      1  0.4912360000000  0.4332630000000  0.4890210000000 1.0
C      1  0.5384580000000  0.4923530000000  0.4579540000000 1.0
C      1  0.4723590000000  0.5612240000000  0.5088080000000 1.0
C      1  0.4466720000000  0.4700300000000  0.4884500000000 1.0
C      1  0.4982500000000  0.4991500000000  0.4740940000000 1.0
C      1  0.4433580000000  0.4919400000000  0.5081060000000 1.0
C      1  0.4470310000000  0.5483390000000  0.5021110000000 1.0
C      1  0.5050660000000  0.5394980000000  0.4491070000000 1.0
C      1  0.4622000000000  0.5311650000000  0.5439670000000 1.0
C      1  0.4378550000000  0.5463740000000  0.4759200000000 1.0
C      1  0.5005560000000  0.5184410000000  0.4323140000000 1.0
C      1  0.4899380000000  0.5023660000000  0.5161040000000 1.0
C      1  0.5421180000000  0.4675900000000  0.4727910000000 1.0
C      1  0.4965230000000  0.4448440000000  0.4651730000000 1.0
C      1  0.4906670000000  0.5602560000000  0.4877070000000 1.0
C      1  0.4767800000000  0.4617830000000  0.4500170000000 1.0
C      1  0.5070760000000  0.5411980000000  0.5362250000000 1.0
C      1  0.4549000000000  0.5511830000000  0.4542920000000 1.0
C      1  0.4380460000000  0.5277120000000  0.4541510000000 1.0
C      1  0.5526510000000  0.5334320000000  0.5184060000000 1.0
C      1  0.4810730000000  0.4387060000000  0.5135610000000 1.0
C      1  0.4814290000000  0.5460770000000  0.4640440000000 1.0
C      1  0.5266570000000  0.5391080000000  0.4680180000000 1.0
C      1  0.4563930000000  0.5045320000000  0.4525030000000 1.0
C      1  0.5338930000000  0.4910810000000  0.5116780000000 1.0
C      1  0.5164830000000  0.4698630000000  0.5568140000000 1.0
C      1  0.5076980000000  0.4917340000000  0.4986580000000 1.0
C      1  0.4650280000000  0.5113030000000  0.5030190000000 1.0
C      1  0.4512100000000  0.4752400000000  0.5303510000000 1.0
C      1  0.4885570000000  0.4637640000000  0.5553610000000 1.0
C      1  0.4900260000000  0.4793090000000  0.4327810000000 1.0
END
