TITL C-121246-6290-1 23.6642929404665 125000 -74.0676461726827 0 0 12 (C1) n - 1
REM
REM in /rds/project/t2_vol4/rds-t2-cs072/BORA/CARBON/from-Arr/AIRSS/Generating-Clusters/GAP-ML-2020/Only-C1/SD-CG/HFTN-CG
REM
REM
REM
REM
REM
REM ./C.cell (11c1c37f851c82e70ff6c80c92926a4b)
REM AIRSS Version 0.9.1 bugfix July 2018 build 013d7b7c2542+ Fri, 06 Jul 2018 19:26:36 +0100
REM compiler GCC version 9.3.0
REM options -cpp -mtune=generic -march=x86-64 -g -O0
REM seed -161246587 626673997 1759479435 213589032 1235485639 381415912 -1953816732 400127433 -88470139 1804722772 -530379707 1919535389 -1911479117 -2050481223 303567476 1395309903 630917120 -513254918 771018158 903686267 1695814758 -469514312 261217302 166688821 979798556 1155354994 -1033405974 -569361939 -1237269143 1980226239 835466776 -312833585 -353991489
REM
CELL 1.54180   50.00000   50.00000   50.00000   90.00000   90.00000   90.00000
LATT -1
SFAC C  
C      1  0.5444810000000  0.4984950000000  0.4923390000000 1.0
C      1  0.5477280000000  0.4737610000000  0.4986290000000 1.0
C      1  0.4824300000000  0.5376240000000  0.4956160000000 1.0
C      1  0.4605340000000  0.5486250000000  0.5047770000000 1.0
C      1  0.4377270000000  0.5554470000000  0.5134790000000 1.0
C      1  0.4934910000000  0.4731830000000  0.4923240000000 1.0
C      1  0.5430260000000  0.4486270000000  0.5012500000000 1.0
C      1  0.4841710000000  0.4731120000000  0.5173620000000 1.0
C      1  0.5046560000000  0.5294120000000  0.4882980000000 1.0
C      1  0.4777890000000  0.4696690000000  0.5417610000000 1.0
C      1  0.5031640000000  0.4843070000000  0.4716970000000 1.0
C      1  0.5208030000000  0.5077360000000  0.4824680000000 1.0
END
