TITL C-121216-6183-1 141.565566695772 125000 -492.33056445915 0 0 73 (C1) n - 1
REM
REM in /rds/project/t2_vol4/rds-t2-cs072/BORA/CARBON/from-Arr/AIRSS/Generating-Clusters/GAP-ML-2020/Only-C1/SD-CG/HFTN-CG
REM
REM
REM
REM
REM
REM ./C.cell (11c1c37f851c82e70ff6c80c92926a4b)
REM AIRSS Version 0.9.1 bugfix July 2018 build 013d7b7c2542+ Fri, 06 Jul 2018 19:26:36 +0100
REM compiler GCC version 9.3.0
REM options -cpp -mtune=generic -march=x86-64 -g -O0
REM seed 1021594316 -648768577 -93456829 -438365806 -355823650 -907298285 -840559376 1028270123 -1821973099 441465404 935966526 176724607 734390582 -457158658 1224933469 -271456937 -681242092 1928123947 486454423 899129507 -345737526 -1013255001 -1956876780 -880906778 2092700735 329828396 1392874767 2040063399 1376016694 -222079786 -1764440321 -419670794 1238878977
REM
CELL 1.54180   50.00000   50.00000   50.00000   90.00000   90.00000   90.00000
LATT -1
SFAC C  
C      1  0.4194500000000  0.4819730000000  0.5184840000000 1.0
C      1  0.4823960000000  0.4887260000000  0.5106650000000 1.0
C      1  0.5587760000000  0.4860460000000  0.5384080000000 1.0
C      1  0.5102960000000  0.4236790000000  0.4628480000000 1.0
C      1  0.4542770000000  0.5415210000000  0.5417900000000 1.0
C      1  0.5574440000000  0.5285330000000  0.4684240000000 1.0
C      1  0.4719250000000  0.5623960000000  0.5294690000000 1.0
C      1  0.5171790000000  0.4703030000000  0.5415920000000 1.0
C      1  0.4539100000000  0.5592570000000  0.4778230000000 1.0
C      1  0.4925070000000  0.5309440000000  0.5666290000000 1.0
C      1  0.4596940000000  0.5051130000000  0.4685470000000 1.0
C      1  0.4992710000000  0.5927230000000  0.4864290000000 1.0
C      1  0.4383040000000  0.4645460000000  0.5273130000000 1.0
C      1  0.4545370000000  0.4598860000000  0.4813520000000 1.0
C      1  0.5115470000000  0.5738290000000  0.5045400000000 1.0
C      1  0.5759480000000  0.4778990000000  0.4666280000000 1.0
C      1  0.5040890000000  0.4721530000000  0.5117010000000 1.0
C      1  0.5424270000000  0.5077860000000  0.4518920000000 1.0
C      1  0.5639280000000  0.4901130000000  0.4904690000000 1.0
C      1  0.5196990000000  0.4719440000000  0.4383940000000 1.0
C      1  0.5027410000000  0.4149520000000  0.4856430000000 1.0
C      1  0.5210030000000  0.4664360000000  0.4856600000000 1.0
C      1  0.5732040000000  0.4702450000000  0.4418320000000 1.0
C      1  0.4635700000000  0.4938380000000  0.5652890000000 1.0
C      1  0.5619160000000  0.4592320000000  0.5377120000000 1.0
C      1  0.4856510000000  0.4936110000000  0.4626410000000 1.0
C      1  0.4226920000000  0.4979370000000  0.4966770000000 1.0
C      1  0.5035420000000  0.5111460000000  0.4801530000000 1.0
C      1  0.5198620000000  0.5192310000000  0.5266530000000 1.0
C      1  0.5006580000000  0.4252240000000  0.5119290000000 1.0
C      1  0.4753750000000  0.4503390000000  0.5496210000000 1.0
C      1  0.4548220000000  0.4581340000000  0.4511720000000 1.0
C      1  0.5010190000000  0.4966640000000  0.4355230000000 1.0
C      1  0.4540680000000  0.4690450000000  0.5514480000000 1.0
C      1  0.5076810000000  0.4534380000000  0.4604290000000 1.0
C      1  0.5471930000000  0.4809650000000  0.4389290000000 1.0
C      1  0.5357830000000  0.4471450000000  0.5400720000000 1.0
C      1  0.5280770000000  0.4327170000000  0.5181760000000 1.0
C      1  0.4766340000000  0.4374520000000  0.5234560000000 1.0
C      1  0.4651880000000  0.5229500000000  0.5604740000000 1.0
C      1  0.4541160000000  0.4484480000000  0.5083630000000 1.0
C      1  0.4495400000000  0.5269130000000  0.4517430000000 1.0
C      1  0.5196140000000  0.5460510000000  0.4495910000000 1.0
C      1  0.5595770000000  0.5401750000000  0.5379970000000 1.0
C      1  0.5657250000000  0.5205300000000  0.4958820000000 1.0
C      1  0.4501360000000  0.5032990000000  0.4307000000000 1.0
C      1  0.4397130000000  0.4855210000000  0.4758260000000 1.0
C      1  0.4764050000000  0.4995590000000  0.4215350000000 1.0
C      1  0.5336710000000  0.5123400000000  0.5700090000000 1.0
C      1  0.5790560000000  0.5336300000000  0.5200830000000 1.0
C      1  0.5117250000000  0.5432060000000  0.5468740000000 1.0
C      1  0.4396740000000  0.4806350000000  0.4453270000000 1.0
C      1  0.4801770000000  0.4645240000000  0.4630210000000 1.0
C      1  0.5316870000000  0.4934470000000  0.4787590000000 1.0
C      1  0.5403430000000  0.5508000000000  0.4684860000000 1.0
C      1  0.4893100000000  0.4870430000000  0.5763040000000 1.0
C      1  0.5329350000000  0.4966270000000  0.5449520000000 1.0
C      1  0.4973940000000  0.5107940000000  0.5083960000000 1.0
C      1  0.5207900000000  0.5201360000000  0.4382340000000 1.0
C      1  0.5065410000000  0.5097700000000  0.5787690000000 1.0
C      1  0.5607540000000  0.4683990000000  0.5104990000000 1.0
C      1  0.4998320000000  0.5646430000000  0.5304120000000 1.0
C      1  0.4256050000000  0.5269160000000  0.4965300000000 1.0
C      1  0.5407660000000  0.4506440000000  0.4993300000000 1.0
C      1  0.4550690000000  0.5631460000000  0.5056750000000 1.0
C      1  0.4376630000000  0.5419350000000  0.5175800000000 1.0
C      1  0.4967890000000  0.5380790000000  0.4628140000000 1.0
C      1  0.5342510000000  0.5577900000000  0.4957400000000 1.0
C      1  0.4973240000000  0.4638080000000  0.5619460000000 1.0
C      1  0.5422010000000  0.5350830000000  0.5124770000000 1.0
C      1  0.4711960000000  0.5472740000000  0.4582640000000 1.0
C      1  0.5400190000000  0.5386840000000  0.5594320000000 1.0
C      1  0.4321200000000  0.5400820000000  0.4715680000000 1.0
END
