TITL C-121975-4458-7 -10.4720303736383 125000 -881.486106330756 0 0 126 (C1) n - 1
REM
REM in /rds/project/t2_vol4/rds-t2-cs072/BORA/CARBON/from-Arr/AIRSS/Generating-Clusters/GAP-ML-2020/Only-C1/SD-CG/HFTN-CG
REM
REM
REM
REM
REM
REM ./C.cell (11c1c37f851c82e70ff6c80c92926a4b)
REM AIRSS Version 0.9.1 bugfix July 2018 build 013d7b7c2542+ Fri, 06 Jul 2018 19:26:36 +0100
REM compiler GCC version 9.3.0
REM options -cpp -mtune=generic -march=x86-64 -g -O0
REM seed 429967219 323706055 -1756808696 383128708 1571821811 969668226 1954890239 115604988 1898215542 -330811150 -330134801 -368006448 -343774461 -1987807124 -511354514 -1102389093 1427100372 435333348 -999149281 1356908492 -1165103258 -1535178861 -892370948 450264296 -495494282 -42468951 1738560490 1609745793 -38708661 163122614 71937337 -970104292 -1240510375
REM
CELL 1.54180   50.00000   50.00000   50.00000   90.00000   90.00000   90.00000
LATT -1
SFAC C  
C      1  0.5054750000000  0.5374970000000  0.4077210000000 1.0
C      1  0.5568120000000  0.4416690000000  0.4561020000000 1.0
C      1  0.4838370000000  0.4500200000000  0.5432860000000 1.0
C      1  0.5627000000000  0.5423380000000  0.4484090000000 1.0
C      1  0.4302640000000  0.5620300000000  0.4516690000000 1.0
C      1  0.5591740000000  0.5369140000000  0.5345300000000 1.0
C      1  0.5993030000000  0.4532460000000  0.5521370000000 1.0
C      1  0.4099550000000  0.5220550000000  0.5187230000000 1.0
C      1  0.5315790000000  0.4404070000000  0.5314220000000 1.0
C      1  0.4979750000000  0.5496980000000  0.4715270000000 1.0
C      1  0.5967870000000  0.4719160000000  0.5324480000000 1.0
C      1  0.4505290000000  0.5028390000000  0.4980630000000 1.0
C      1  0.5179330000000  0.5756250000000  0.4317290000000 1.0
C      1  0.5291530000000  0.5416960000000  0.4662920000000 1.0
C      1  0.4651780000000  0.5078600000000  0.4246650000000 1.0
C      1  0.4425960000000  0.5276960000000  0.5571160000000 1.0
C      1  0.5466570000000  0.4816340000000  0.5072050000000 1.0
C      1  0.5412650000000  0.4790070000000  0.4308620000000 1.0
C      1  0.4580730000000  0.5343980000000  0.4172360000000 1.0
C      1  0.5900990000000  0.5002720000000  0.5334770000000 1.0
C      1  0.4504250000000  0.4778990000000  0.5130420000000 1.0
C      1  0.4780110000000  0.5130810000000  0.5092040000000 1.0
C      1  0.5317220000000  0.5339140000000  0.4950990000000 1.0
C      1  0.5068950000000  0.5503500000000  0.4993660000000 1.0
C      1  0.4539200000000  0.4929310000000  0.4691430000000 1.0
C      1  0.4780860000000  0.5741580000000  0.4603920000000 1.0
C      1  0.4670590000000  0.5428230000000  0.5595470000000 1.0
C      1  0.5232800000000  0.4067840000000  0.5053080000000 1.0
C      1  0.4441250000000  0.5604280000000  0.5222370000000 1.0
C      1  0.4816220000000  0.5504730000000  0.4152060000000 1.0
C      1  0.4119050000000  0.4490240000000  0.5222480000000 1.0
C      1  0.4097600000000  0.5207880000000  0.4695970000000 1.0
C      1  0.5038100000000  0.4312690000000  0.5381830000000 1.0
C      1  0.4664600000000  0.4873970000000  0.5757770000000 1.0
C      1  0.5090580000000  0.5090500000000  0.4103110000000 1.0
C      1  0.4430900000000  0.4301380000000  0.4652570000000 1.0
C      1  0.5158370000000  0.4470970000000  0.5912660000000 1.0
C      1  0.4150870000000  0.5383180000000  0.4489450000000 1.0
C      1  0.4880360000000  0.4923240000000  0.4203810000000 1.0
C      1  0.5355250000000  0.4629730000000  0.5793190000000 1.0
C      1  0.5807350000000  0.4362850000000  0.5024050000000 1.0
C      1  0.5342970000000  0.5069330000000  0.4241990000000 1.0
C      1  0.4932590000000  0.4726740000000  0.4438510000000 1.0
C      1  0.4884110000000  0.4418650000000  0.4395530000000 1.0
C      1  0.4891620000000  0.5725790000000  0.4325420000000 1.0
C      1  0.4985800000000  0.4097630000000  0.5202020000000 1.0
C      1  0.5124870000000  0.5011900000000  0.5978460000000 1.0
C      1  0.4070730000000  0.4542790000000  0.4943860000000 1.0
C      1  0.4246970000000  0.5228320000000  0.4945140000000 1.0
C      1  0.4272670000000  0.4774460000000  0.4599900000000 1.0
C      1  0.4908100000000  0.4561480000000  0.5912360000000 1.0
C      1  0.5370460000000  0.5357840000000  0.5759890000000 1.0
C      1  0.5513440000000  0.5661380000000  0.4642420000000 1.0
C      1  0.5905980000000  0.4625050000000  0.5057380000000 1.0
C      1  0.5740080000000  0.4431550000000  0.5484250000000 1.0
C      1  0.5520660000000  0.5122690000000  0.5740740000000 1.0
C      1  0.5710520000000  0.4235650000000  0.5260440000000 1.0
C      1  0.4948180000000  0.5039910000000  0.4864950000000 1.0
C      1  0.5752460000000  0.5212080000000  0.4632370000000 1.0
C      1  0.5336540000000  0.4952070000000  0.4694280000000 1.0
C      1  0.4879530000000  0.5951840000000  0.4782010000000 1.0
C      1  0.4724160000000  0.5930100000000  0.5025570000000 1.0
C      1  0.4805710000000  0.4799510000000  0.4713100000000 1.0
C      1  0.4890830000000  0.4622070000000  0.4922220000000 1.0
C      1  0.5151110000000  0.4187160000000  0.4787810000000 1.0
C      1  0.5280610000000  0.5528500000000  0.4172620000000 1.0
C      1  0.4689140000000  0.4557290000000  0.5678840000000 1.0
C      1  0.4644810000000  0.5133420000000  0.4525370000000 1.0
C      1  0.5479480000000  0.5343570000000  0.4245880000000 1.0
C      1  0.4497910000000  0.5717850000000  0.4694200000000 1.0
C      1  0.5440420000000  0.4869190000000  0.5366230000000 1.0
C      1  0.5115210000000  0.5278440000000  0.5869220000000 1.0
C      1  0.5160580000000  0.5984010000000  0.4769100000000 1.0
C      1  0.4883390000000  0.4844630000000  0.5961690000000 1.0
C      1  0.5643840000000  0.5100200000000  0.5459140000000 1.0
C      1  0.5322860000000  0.4235560000000  0.4525630000000 1.0
C      1  0.3974870000000  0.4814720000000  0.4937580000000 1.0
C      1  0.5216380000000  0.4716130000000  0.4550560000000 1.0
C      1  0.4919480000000  0.5220780000000  0.4635200000000 1.0
C      1  0.5129600000000  0.4306540000000  0.4352410000000 1.0
C      1  0.4072750000000  0.4738190000000  0.5368740000000 1.0
C      1  0.5214520000000  0.5162390000000  0.4527020000000 1.0
C      1  0.5109040000000  0.5314300000000  0.5400530000000 1.0
C      1  0.3994910000000  0.4948250000000  0.5191870000000 1.0
C      1  0.4840110000000  0.5866020000000  0.5274730000000 1.0
C      1  0.4895770000000  0.4932450000000  0.5304970000000 1.0
C      1  0.4778180000000  0.4679640000000  0.5192700000000 1.0
C      1  0.5616660000000  0.5427400000000  0.5053750000000 1.0
C      1  0.5762550000000  0.4847450000000  0.4931820000000 1.0
C      1  0.5817140000000  0.5277910000000  0.4907020000000 1.0
C      1  0.4339330000000  0.4347270000000  0.5338580000000 1.0
C      1  0.5366790000000  0.5495200000000  0.5477730000000 1.0
C      1  0.5604810000000  0.4388010000000  0.4833070000000 1.0
C      1  0.4414930000000  0.4504530000000  0.5577100000000 1.0
C      1  0.5602500000000  0.5695010000000  0.4928660000000 1.0
C      1  0.4046780000000  0.4932720000000  0.4694450000000 1.0
C      1  0.4262260000000  0.4759050000000  0.5579330000000 1.0
C      1  0.4345950000000  0.5451450000000  0.4295400000000 1.0
C      1  0.4751720000000  0.4093260000000  0.5044810000000 1.0
C      1  0.4384990000000  0.4187950000000  0.4892300000000 1.0
C      1  0.5147190000000  0.4514390000000  0.4834290000000 1.0
C      1  0.5375020000000  0.4542490000000  0.5015810000000 1.0
C      1  0.5313700000000  0.5857950000000  0.4553450000000 1.0
C      1  0.4854320000000  0.4129430000000  0.4772960000000 1.0
C      1  0.5250500000000  0.6007430000000  0.5035400000000 1.0
C      1  0.4489090000000  0.5765850000000  0.4981690000000 1.0
C      1  0.4899810000000  0.5394380000000  0.5191350000000 1.0
C      1  0.5479770000000  0.5853870000000  0.5117710000000 1.0
C      1  0.4484370000000  0.4178840000000  0.5140570000000 1.0
C      1  0.5627730000000  0.4683450000000  0.4445260000000 1.0
C      1  0.4923820000000  0.5278000000000  0.5646780000000 1.0
C      1  0.5178030000000  0.5022680000000  0.5298170000000 1.0
C      1  0.5247860000000  0.5046130000000  0.4976310000000 1.0
C      1  0.5465560000000  0.4584820000000  0.5512970000000 1.0
C      1  0.5908580000000  0.5067280000000  0.5059000000000 1.0
C      1  0.5348550000000  0.5773770000000  0.5372600000000 1.0
C      1  0.4702960000000  0.5599900000000  0.5351590000000 1.0
C      1  0.5369080000000  0.4906320000000  0.5876530000000 1.0
C      1  0.4278170000000  0.5386770000000  0.5339720000000 1.0
C      1  0.5442020000000  0.4144070000000  0.5239440000000 1.0
C      1  0.4859350000000  0.4996520000000  0.5589340000000 1.0
C      1  0.4409750000000  0.4996660000000  0.5671970000000 1.0
C      1  0.4234600000000  0.4507340000000  0.4693930000000 1.0
C      1  0.5659140000000  0.4920820000000  0.4650590000000 1.0
C      1  0.5114490000000  0.5925060000000  0.5285720000000 1.0
C      1  0.4708280000000  0.4267320000000  0.4569460000000 1.0
END
