TITL C-121989-4442-10 13.612852553867 125000 -317.132008170271 0 0 47 (C1) n - 1
REM
REM in /rds/project/t2_vol4/rds-t2-cs072/BORA/CARBON/from-Arr/AIRSS/Generating-Clusters/GAP-ML-2020/Only-C1/SD-CG/HFTN-CG
REM
REM
REM
REM
REM
REM ./C.cell (11c1c37f851c82e70ff6c80c92926a4b)
REM AIRSS Version 0.9.1 bugfix July 2018 build 013d7b7c2542+ Fri, 06 Jul 2018 19:26:36 +0100
REM compiler GCC version 9.3.0
REM options -cpp -mtune=generic -march=x86-64 -g -O0
REM seed -1236733069 1241968087 1687057513 -1322536725 -1267199860 -465814125 -1674854880 -1964763224 1316264924 -1405023651 565749233 -1254470806 -1821058108 230476812 -575960934 -724162737 1812113004 -1791223743 -254140763 -1163118948 138853701 1806802883 1243193882 1814213226 1432637845 391107442 -2126746306 344164618 -16396836 -1909615888 2026223637 -404490106 -1559217759
REM
CELL 1.54180   50.00000   50.00000   50.00000   90.00000   90.00000   90.00000
LATT -1
SFAC C  
C      1  0.5189540000000  0.5552960000000  0.5231210000000 1.0
C      1  0.5518340000000  0.5122860000000  0.4584940000000 1.0
C      1  0.4613890000000  0.4768900000000  0.5236010000000 1.0
C      1  0.5063180000000  0.4742200000000  0.5420220000000 1.0
C      1  0.5021290000000  0.5276210000000  0.5553460000000 1.0
C      1  0.5028880000000  0.5423630000000  0.4615870000000 1.0
C      1  0.4956380000000  0.5498470000000  0.5379540000000 1.0
C      1  0.4697750000000  0.5458230000000  0.5258290000000 1.0
C      1  0.4473620000000  0.4762470000000  0.4965720000000 1.0
C      1  0.5272850000000  0.5167980000000  0.5473260000000 1.0
C      1  0.4793130000000  0.5111040000000  0.5576360000000 1.0
C      1  0.5268610000000  0.5399030000000  0.4791960000000 1.0
C      1  0.5175100000000  0.5133590000000  0.4946450000000 1.0
C      1  0.4836730000000  0.4840180000000  0.5602420000000 1.0
C      1  0.4647160000000  0.5123900000000  0.4572300000000 1.0
C      1  0.4471520000000  0.5035220000000  0.5262550000000 1.0
C      1  0.4866010000000  0.4320830000000  0.5035690000000 1.0
C      1  0.5540810000000  0.5306650000000  0.4780740000000 1.0
C      1  0.5008280000000  0.4512410000000  0.4557450000000 1.0
C      1  0.4950250000000  0.5128210000000  0.5115580000000 1.0
C      1  0.5857430000000  0.5202010000000  0.5166950000000 1.0
C      1  0.4654330000000  0.4831450000000  0.4538320000000 1.0
C      1  0.4598560000000  0.4658220000000  0.4747240000000 1.0
C      1  0.5387200000000  0.4942880000000  0.5088090000000 1.0
C      1  0.5031230000000  0.4960210000000  0.4767230000000 1.0
C      1  0.4674440000000  0.4621510000000  0.5477820000000 1.0
C      1  0.4913050000000  0.4847700000000  0.5167440000000 1.0
C      1  0.4858250000000  0.4497320000000  0.4817000000000 1.0
C      1  0.5027340000000  0.4718340000000  0.4929910000000 1.0
C      1  0.5353780000000  0.4933190000000  0.4499430000000 1.0
C      1  0.5149210000000  0.5605310000000  0.4966200000000 1.0
C      1  0.4593510000000  0.5231500000000  0.5401600000000 1.0
C      1  0.4933310000000  0.4229540000000  0.5269070000000 1.0
C      1  0.4537380000000  0.5239420000000  0.4817780000000 1.0
C      1  0.5385490000000  0.5353370000000  0.5290640000000 1.0
C      1  0.5322450000000  0.4715780000000  0.4920430000000 1.0
C      1  0.4671160000000  0.5463510000000  0.4962360000000 1.0
C      1  0.4895680000000  0.5566740000000  0.4831970000000 1.0
C      1  0.5304660000000  0.4898570000000  0.5375920000000 1.0
C      1  0.4900290000000  0.4741240000000  0.4420740000000 1.0
C      1  0.5267540000000  0.4456500000000  0.4538330000000 1.0
C      1  0.4421590000000  0.5045380000000  0.4983400000000 1.0
C      1  0.4904590000000  0.5219030000000  0.4481090000000 1.0
C      1  0.5593730000000  0.5216120000000  0.5095260000000 1.0
C      1  0.5068760000000  0.4973850000000  0.4445960000000 1.0
C      1  0.5377510000000  0.4675590000000  0.4646400000000 1.0
C      1  0.4924250000000  0.4470760000000  0.5393420000000 1.0
END
