TITL C-120601-4436-9 -0.315003301962704 125000 -603.476319284011 0 0 87 (C1) n - 1
REM
REM in /rds/project/t2_vol4/rds-t2-cs072/BORA/CARBON/from-Arr/AIRSS/Generating-Clusters/GAP-ML-2020/Only-C1/SD-CG/HFTN-CG
REM
REM
REM
REM
REM
REM ./C.cell (11c1c37f851c82e70ff6c80c92926a4b)
REM AIRSS Version 0.9.1 bugfix July 2018 build 013d7b7c2542+ Fri, 06 Jul 2018 19:26:36 +0100
REM compiler GCC version 9.3.0
REM options -cpp -mtune=generic -march=x86-64 -g -O0
REM seed -286129773 -1128144416 584766147 1517139582 -2019381199 -1259198238 389325281 -254172355 1749631768 617333580 -1202902658 183004129 -1535907792 1068477494 -1270488726 -1129028791 567163786 -1721018617 -55223386 -2055865420 -354896392 914092926 704893899 688064241 518819604 1898247679 1118993215 -610019325 398159559 935992403 450837383 1872361306 -1894128459
REM
CELL 1.54180   50.00000   50.00000   50.00000   90.00000   90.00000   90.00000
LATT -1
SFAC C  
C      1  0.4404180000000  0.4594900000000  0.5301570000000 1.0
C      1  0.5389000000000  0.4363110000000  0.5002130000000 1.0
C      1  0.4277890000000  0.5192460000000  0.4702200000000 1.0
C      1  0.4539180000000  0.5596670000000  0.4448300000000 1.0
C      1  0.4253760000000  0.5234280000000  0.5004850000000 1.0
C      1  0.5546200000000  0.4970610000000  0.5663100000000 1.0
C      1  0.4752460000000  0.5704710000000  0.5339040000000 1.0
C      1  0.4337110000000  0.5449940000000  0.5149200000000 1.0
C      1  0.5192250000000  0.5166710000000  0.4986290000000 1.0
C      1  0.4928620000000  0.5359890000000  0.4514580000000 1.0
C      1  0.5035670000000  0.4870240000000  0.4761140000000 1.0
C      1  0.5626330000000  0.5408950000000  0.5412500000000 1.0
C      1  0.4777230000000  0.5245230000000  0.5175100000000 1.0
C      1  0.5563410000000  0.4862070000000  0.4818910000000 1.0
C      1  0.4799120000000  0.4631540000000  0.5646600000000 1.0
C      1  0.5599720000000  0.5529020000000  0.5152130000000 1.0
C      1  0.5240970000000  0.5794260000000  0.4908020000000 1.0
C      1  0.4710880000000  0.5165560000000  0.4465460000000 1.0
C      1  0.5370120000000  0.5710660000000  0.5149740000000 1.0
C      1  0.5677320000000  0.4713090000000  0.5300340000000 1.0
C      1  0.4854880000000  0.5466760000000  0.4781950000000 1.0
C      1  0.5714180000000  0.5146960000000  0.4777490000000 1.0
C      1  0.4619040000000  0.4299390000000  0.4772790000000 1.0
C      1  0.5244520000000  0.5682660000000  0.5411830000000 1.0
C      1  0.4590540000000  0.4755670000000  0.5806680000000 1.0
C      1  0.5416530000000  0.5516900000000  0.5568680000000 1.0
C      1  0.5239270000000  0.4464970000000  0.4363030000000 1.0
C      1  0.4779620000000  0.5750400000000  0.4464810000000 1.0
C      1  0.5068760000000  0.4704690000000  0.5714370000000 1.0
C      1  0.5082520000000  0.4966870000000  0.5802680000000 1.0
C      1  0.4986460000000  0.5419630000000  0.5703610000000 1.0
C      1  0.5051420000000  0.5604130000000  0.4436670000000 1.0
C      1  0.4803760000000  0.5753620000000  0.4749520000000 1.0
C      1  0.4474600000000  0.4889270000000  0.5415990000000 1.0
C      1  0.4408120000000  0.4823240000000  0.4379880000000 1.0
C      1  0.5789100000000  0.4962020000000  0.5280480000000 1.0
C      1  0.5285140000000  0.5004610000000  0.4743210000000 1.0
C      1  0.4659270000000  0.4931230000000  0.4279020000000 1.0
C      1  0.5616310000000  0.4716120000000  0.4563560000000 1.0
C      1  0.4453590000000  0.4548420000000  0.4415500000000 1.0
C      1  0.4273000000000  0.4722120000000  0.5080690000000 1.0
C      1  0.5328730000000  0.5098670000000  0.5795580000000 1.0
C      1  0.4760880000000  0.4823670000000  0.5381780000000 1.0
C      1  0.4770220000000  0.4994580000000  0.4720950000000 1.0
C      1  0.4773930000000  0.4760060000000  0.5101380000000 1.0
C      1  0.5561440000000  0.4887330000000  0.4345620000000 1.0
C      1  0.4264840000000  0.4918200000000  0.4618220000000 1.0
C      1  0.5185960000000  0.5033110000000  0.5239490000000 1.0
C      1  0.5523920000000  0.4709570000000  0.5551180000000 1.0
C      1  0.5383930000000  0.5103110000000  0.4452560000000 1.0
C      1  0.4687240000000  0.4228820000000  0.5048070000000 1.0
C      1  0.5669810000000  0.5412550000000  0.4902810000000 1.0
C      1  0.4972930000000  0.5629270000000  0.5508470000000 1.0
C      1  0.4364280000000  0.4992590000000  0.5141520000000 1.0
C      1  0.4659490000000  0.5015190000000  0.4996730000000 1.0
C      1  0.5175810000000  0.4247300000000  0.5167630000000 1.0
C      1  0.4965840000000  0.5898420000000  0.4934400000000 1.0
C      1  0.4582380000000  0.5485560000000  0.5252040000000 1.0
C      1  0.5608310000000  0.5256620000000  0.4528030000000 1.0
C      1  0.4981210000000  0.5354300000000  0.5000510000000 1.0
C      1  0.4718850000000  0.4473960000000  0.4345340000000 1.0
C      1  0.4397620000000  0.4466370000000  0.4678380000000 1.0
C      1  0.4949210000000  0.4145690000000  0.5057590000000 1.0
C      1  0.4841810000000  0.5903550000000  0.5173850000000 1.0
C      1  0.5325590000000  0.4907180000000  0.4219390000000 1.0
C      1  0.4816290000000  0.4391930000000  0.5480910000000 1.0
C      1  0.5105550000000  0.4293230000000  0.4560790000000 1.0
C      1  0.5293090000000  0.5660070000000  0.4647070000000 1.0
C      1  0.4602470000000  0.4369050000000  0.5291290000000 1.0
C      1  0.5530930000000  0.5510110000000  0.4661400000000 1.0
C      1  0.5095560000000  0.4358610000000  0.5418060000000 1.0
C      1  0.5503240000000  0.4651990000000  0.5068010000000 1.0
C      1  0.4566080000000  0.5006250000000  0.5700730000000 1.0
C      1  0.5132970000000  0.4695300000000  0.4226160000000 1.0
C      1  0.5349550000000  0.4308970000000  0.4730640000000 1.0
C      1  0.4823560000000  0.4306910000000  0.4560400000000 1.0
C      1  0.5023340000000  0.4706180000000  0.4997660000000 1.0
C      1  0.4462310000000  0.5341680000000  0.4513370000000 1.0
C      1  0.4845200000000  0.4705470000000  0.4232590000000 1.0
C      1  0.5265220000000  0.5371550000000  0.5754490000000 1.0
C      1  0.5702790000000  0.5140150000000  0.5475630000000 1.0
C      1  0.4863680000000  0.5145980000000  0.5684220000000 1.0
C      1  0.4253240000000  0.4686280000000  0.4803160000000 1.0
C      1  0.4917420000000  0.5077910000000  0.5384630000000 1.0
C      1  0.5245250000000  0.4604010000000  0.5503990000000 1.0
C      1  0.5477110000000  0.4477370000000  0.4530780000000 1.0
C      1  0.5238830000000  0.4751750000000  0.5198840000000 1.0
END
