TITL C-120602-4510-5 -0.0263848132704764 125000 -216.389046850734 0 0 32 (C1) n - 1
REM
REM in /rds/project/t2_vol4/rds-t2-cs072/BORA/CARBON/from-Arr/AIRSS/Generating-Clusters/GAP-ML-2020/Only-C1/SD-CG/HFTN-CG
REM
REM
REM
REM
REM
REM ./C.cell (11c1c37f851c82e70ff6c80c92926a4b)
REM AIRSS Version 0.9.1 bugfix July 2018 build 013d7b7c2542+ Fri, 06 Jul 2018 19:26:36 +0100
REM compiler GCC version 9.3.0
REM options -cpp -mtune=generic -march=x86-64 -g -O0
REM seed 246307970 607026589 87081447 2068289498 -934481225 2124326151 734102231 129236728 735555287 964690341 955865483 -787815763 -465553506 1899533412 -78205199 792464970 1599068 648335129 364755548 749443912 1109353572 478959337 1170472046 1757597550 689947523 219707774 -1010283050 -435238810 -1964011729 -2128674418 -758526391 2094261985 1254611083
REM
CELL 1.54180   50.00000   50.00000   50.00000   90.00000   90.00000   90.00000
LATT -1
SFAC C  
C      1  0.4462900000000  0.4912810000000  0.4855140000000 1.0
C      1  0.5014910000000  0.4554480000000  0.5136540000000 1.0
C      1  0.5474640000000  0.5066950000000  0.5191010000000 1.0
C      1  0.5414450000000  0.5106140000000  0.4491920000000 1.0
C      1  0.4869010000000  0.5115760000000  0.4584840000000 1.0
C      1  0.4936140000000  0.4865940000000  0.5482870000000 1.0
C      1  0.5282680000000  0.5286170000000  0.5148620000000 1.0
C      1  0.4641010000000  0.4947310000000  0.4627850000000 1.0
C      1  0.5070100000000  0.5327790000000  0.5328210000000 1.0
C      1  0.4749110000000  0.4672760000000  0.4667000000000 1.0
C      1  0.4622330000000  0.5280440000000  0.5410460000000 1.0
C      1  0.5382790000000  0.4804090000000  0.5270750000000 1.0
C      1  0.4681020000000  0.4804410000000  0.5355860000000 1.0
C      1  0.4805210000000  0.5425060000000  0.5227890000000 1.0
C      1  0.5176070000000  0.4590740000000  0.4899270000000 1.0
C      1  0.5614210000000  0.5110420000000  0.4712170000000 1.0
C      1  0.5223500000000  0.5347460000000  0.4867760000000 1.0
C      1  0.4592520000000  0.4636790000000  0.4900120000000 1.0
C      1  0.5030160000000  0.4673220000000  0.4653830000000 1.0
C      1  0.5570610000000  0.4953010000000  0.4933250000000 1.0
C      1  0.4941620000000  0.5330770000000  0.4778160000000 1.0
C      1  0.4506180000000  0.5036740000000  0.5308480000000 1.0
C      1  0.4974200000000  0.5148280000000  0.5541870000000 1.0
C      1  0.5431040000000  0.4708640000000  0.4988600000000 1.0
C      1  0.5427980000000  0.5324390000000  0.4677730000000 1.0
C      1  0.5084940000000  0.4922470000000  0.4495290000000 1.0
C      1  0.5133000000000  0.4715210000000  0.5350460000000 1.0
C      1  0.4757080000000  0.5434080000000  0.4960150000000 1.0
C      1  0.5281820000000  0.4974290000000  0.4299430000000 1.0
C      1  0.4731970000000  0.4615110000000  0.5142080000000 1.0
C      1  0.4744880000000  0.5260640000000  0.5647250000000 1.0
C      1  0.4371940000000  0.5047620000000  0.5065130000000 1.0
END
