TITL C-121992-4403-5 0.0128442844823832 125000 -174.348199194812 0 0 27 (C1) n - 1
REM
REM in /rds/project/t2_vol4/rds-t2-cs072/BORA/CARBON/from-Arr/AIRSS/Generating-Clusters/GAP-ML-2020/Only-C1/SD-CG/HFTN-CG
REM
REM
REM
REM
REM
REM ./C.cell (11c1c37f851c82e70ff6c80c92926a4b)
REM AIRSS Version 0.9.1 bugfix July 2018 build 013d7b7c2542+ Fri, 06 Jul 2018 19:26:36 +0100
REM compiler GCC version 9.3.0
REM options -cpp -mtune=generic -march=x86-64 -g -O0
REM seed 1204128118 -2046245778 -604806266 1708843007 -1524400096 -1428274801 2034744679 -1851740956 658409495 112322961 568785773 368845085 1307400771 410555719 779505603 -1304149622 -1644483182 208106648 435408113 -657447243 -1535342679 -1154246615 -21526445 -956359250 855394533 -1913353188 1674101972 -751528123 794580420 -838942924 1972036660 1720531916 290179019
REM
CELL 1.54180   50.00000   50.00000   50.00000   90.00000   90.00000   90.00000
LATT -1
SFAC C  
C      1  0.4664940000000  0.4762840000000  0.5038990000000 1.0
C      1  0.5183600000000  0.4795560000000  0.5009280000000 1.0
C      1  0.5266710000000  0.5205140000000  0.4454150000000 1.0
C      1  0.4991430000000  0.5106150000000  0.5251360000000 1.0
C      1  0.4619770000000  0.4710490000000  0.4521550000000 1.0
C      1  0.4650520000000  0.4688530000000  0.4769350000000 1.0
C      1  0.4870150000000  0.4790250000000  0.5484500000000 1.0
C      1  0.5014290000000  0.5509270000000  0.4972640000000 1.0
C      1  0.5243210000000  0.5055120000000  0.4903590000000 1.0
C      1  0.4643030000000  0.5216500000000  0.4798510000000 1.0
C      1  0.4750450000000  0.5547130000000  0.5072970000000 1.0
C      1  0.5576370000000  0.4839610000000  0.4657860000000 1.0
C      1  0.5405880000000  0.4628370000000  0.5056250000000 1.0
C      1  0.5050160000000  0.5360930000000  0.4546270000000 1.0
C      1  0.5591310000000  0.4668820000000  0.4840210000000 1.0
C      1  0.4452650000000  0.4884640000000  0.5188980000000 1.0
C      1  0.5078230000000  0.5584840000000  0.4715850000000 1.0
C      1  0.5431450000000  0.4521240000000  0.5316930000000 1.0
C      1  0.5127060000000  0.5256150000000  0.5056420000000 1.0
C      1  0.5059300000000  0.4670010000000  0.5628780000000 1.0
C      1  0.4560870000000  0.5118460000000  0.5274010000000 1.0
C      1  0.4930640000000  0.4817340000000  0.5158760000000 1.0
C      1  0.4789330000000  0.5088170000000  0.5454180000000 1.0
C      1  0.4806920000000  0.5232190000000  0.4604170000000 1.0
C      1  0.5381000000000  0.5054640000000  0.4652190000000 1.0
C      1  0.4583790000000  0.5318900000000  0.5054910000000 1.0
C      1  0.5276930000000  0.4568710000000  0.5517330000000 1.0
END
