TITL C-121979-6819-2 2.18970352996075 125000 -593.623450761845 0 0 86 (C1) n - 1
REM
REM in /rds/project/t2_vol4/rds-t2-cs072/BORA/CARBON/from-Arr/AIRSS/Generating-Clusters/GAP-ML-2020/Only-C1/SD-CG/HFTN-CG
REM
REM
REM
REM
REM
REM ./C.cell (11c1c37f851c82e70ff6c80c92926a4b)
REM AIRSS Version 0.9.1 bugfix July 2018 build 013d7b7c2542+ Fri, 06 Jul 2018 19:26:36 +0100
REM compiler GCC version 9.3.0
REM options -cpp -mtune=generic -march=x86-64 -g -O0
REM seed -1157250397 1924832669 363671912 -1270557256 690506839 284878543 -436922074 1713059377 1760470804 -2051644713 645200550 598674360 -685859345 -2104516958 1419299937 -508496895 -1229284175 1064564022 -938703265 -1786632019 -387926340 1911735681 376062054 1600957308 1022218225 1825952040 1463373909 -1890687969 1061707762 -317330778 1285889776 -1353251857 -1151243975
REM
CELL 1.54180   50.00000   50.00000   50.00000   90.00000   90.00000   90.00000
LATT -1
SFAC C  
C      1  0.4542080000000  0.4501050000000  0.4827870000000 1.0
C      1  0.4270040000000  0.5298530000000  0.5038970000000 1.0
C      1  0.5025650000000  0.5256980000000  0.4288100000000 1.0
C      1  0.5134910000000  0.4654200000000  0.5715940000000 1.0
C      1  0.4850330000000  0.5581570000000  0.4629560000000 1.0
C      1  0.4702120000000  0.4934450000000  0.5827910000000 1.0
C      1  0.4791160000000  0.5778900000000  0.4821910000000 1.0
C      1  0.5220370000000  0.5138640000000  0.5061730000000 1.0
C      1  0.5877320000000  0.4930380000000  0.4853230000000 1.0
C      1  0.5747580000000  0.5210080000000  0.4850630000000 1.0
C      1  0.5198050000000  0.5647400000000  0.5044860000000 1.0
C      1  0.5066500000000  0.4916200000000  0.5182090000000 1.0
C      1  0.5049630000000  0.4453990000000  0.4601760000000 1.0
C      1  0.4843450000000  0.5351650000000  0.4821510000000 1.0
C      1  0.5241200000000  0.4394720000000  0.5344860000000 1.0
C      1  0.4410030000000  0.5176980000000  0.4799860000000 1.0
C      1  0.5098290000000  0.4447420000000  0.4910970000000 1.0
C      1  0.5640590000000  0.5320960000000  0.5302950000000 1.0
C      1  0.5809440000000  0.5110830000000  0.5333040000000 1.0
C      1  0.4213230000000  0.5073400000000  0.5219250000000 1.0
C      1  0.4956700000000  0.5067860000000  0.5853660000000 1.0
C      1  0.4978150000000  0.5538060000000  0.5640350000000 1.0
C      1  0.4867390000000  0.4978810000000  0.5353080000000 1.0
C      1  0.5558540000000  0.4477030000000  0.4665460000000 1.0
C      1  0.5448160000000  0.5185920000000  0.4485470000000 1.0
C      1  0.4895720000000  0.4236330000000  0.4939350000000 1.0
C      1  0.4804100000000  0.4790640000000  0.4286230000000 1.0
C      1  0.4520160000000  0.5761920000000  0.5210150000000 1.0
C      1  0.5437220000000  0.5289840000000  0.5514020000000 1.0
C      1  0.5186200000000  0.4928560000000  0.5786810000000 1.0
C      1  0.4351550000000  0.5573200000000  0.5079660000000 1.0
C      1  0.4526680000000  0.4421170000000  0.5109650000000 1.0
C      1  0.4270480000000  0.5003430000000  0.5492350000000 1.0
C      1  0.4907380000000  0.4729540000000  0.4564550000000 1.0
C      1  0.5347650000000  0.4569990000000  0.5546090000000 1.0
C      1  0.4722750000000  0.4738820000000  0.4825580000000 1.0
C      1  0.4381380000000  0.4616520000000  0.5252550000000 1.0
C      1  0.4354450000000  0.5040390000000  0.4530360000000 1.0
C      1  0.5834120000000  0.4907280000000  0.4570750000000 1.0
C      1  0.4570860000000  0.5192550000000  0.4412510000000 1.0
C      1  0.4876170000000  0.5768670000000  0.5532480000000 1.0
C      1  0.5012590000000  0.4738510000000  0.4102630000000 1.0
C      1  0.4319720000000  0.5200260000000  0.5684510000000 1.0
C      1  0.5257770000000  0.4833930000000  0.4171850000000 1.0
C      1  0.5064850000000  0.5481790000000  0.4464710000000 1.0
C      1  0.5416340000000  0.5025370000000  0.5640170000000 1.0
C      1  0.4784520000000  0.5099630000000  0.4262430000000 1.0
C      1  0.4800600000000  0.5815280000000  0.5281430000000 1.0
C      1  0.4575720000000  0.4389540000000  0.4570150000000 1.0
C      1  0.4603270000000  0.5351720000000  0.4647260000000 1.0
C      1  0.5404650000000  0.4923870000000  0.4667070000000 1.0
C      1  0.4815910000000  0.4269600000000  0.4658450000000 1.0
C      1  0.5116130000000  0.5409570000000  0.5199910000000 1.0
C      1  0.5693570000000  0.4774500000000  0.5030100000000 1.0
C      1  0.5198150000000  0.5439140000000  0.5477050000000 1.0
C      1  0.4557700000000  0.4958250000000  0.4954590000000 1.0
C      1  0.5532590000000  0.4793130000000  0.5514740000000 1.0
C      1  0.5107900000000  0.4897900000000  0.4708980000000 1.0
C      1  0.4642700000000  0.4697880000000  0.5687350000000 1.0
C      1  0.4952200000000  0.4369500000000  0.5401020000000 1.0
C      1  0.4841240000000  0.5329590000000  0.5790590000000 1.0
C      1  0.4817230000000  0.5374910000000  0.5111540000000 1.0
C      1  0.4347070000000  0.4787090000000  0.4445750000000 1.0
C      1  0.5628120000000  0.5418080000000  0.5016640000000 1.0
C      1  0.5340670000000  0.4397310000000  0.5074890000000 1.0
C      1  0.4885060000000  0.4544420000000  0.5626510000000 1.0
C      1  0.4969450000000  0.5817540000000  0.5042910000000 1.0
C      1  0.4410610000000  0.4737380000000  0.5510430000000 1.0
C      1  0.5567890000000  0.4509480000000  0.4946370000000 1.0
C      1  0.4575300000000  0.5197460000000  0.5764040000000 1.0
C      1  0.5003450000000  0.4735640000000  0.4963200000000 1.0
C      1  0.4708490000000  0.5117290000000  0.5184320000000 1.0
C      1  0.5273150000000  0.5115760000000  0.4258760000000 1.0
C      1  0.5734070000000  0.5180530000000  0.4552810000000 1.0
C      1  0.5724360000000  0.4849980000000  0.5312560000000 1.0
C      1  0.4317920000000  0.4842770000000  0.5091280000000 1.0
C      1  0.5402310000000  0.5549440000000  0.4876370000000 1.0
C      1  0.5084100000000  0.5182950000000  0.4794340000000 1.0
C      1  0.5289400000000  0.5388850000000  0.4636870000000 1.0
C      1  0.4555490000000  0.4617420000000  0.4375160000000 1.0
C      1  0.5417800000000  0.4649540000000  0.4312850000000 1.0
C      1  0.5610830000000  0.4733180000000  0.4521470000000 1.0
C      1  0.4768440000000  0.4282140000000  0.5188220000000 1.0
C      1  0.5322340000000  0.4432570000000  0.4485340000000 1.0
C      1  0.5490880000000  0.5009060000000  0.4932460000000 1.0
C      1  0.4529660000000  0.5735410000000  0.4931790000000 1.0
END
