TITL C-121226-7319-7 31.5032825405324 125000 -523.360428315846 0 0 77 (C1) n - 1
REM
REM in /rds/project/t2_vol4/rds-t2-cs072/BORA/CARBON/from-Arr/AIRSS/Generating-Clusters/GAP-ML-2020/Only-C1/SD-CG/HFTN-CG
REM
REM
REM
REM
REM
REM ./C.cell (11c1c37f851c82e70ff6c80c92926a4b)
REM AIRSS Version 0.9.1 bugfix July 2018 build 013d7b7c2542+ Fri, 06 Jul 2018 19:26:36 +0100
REM compiler GCC version 9.3.0
REM options -cpp -mtune=generic -march=x86-64 -g -O0
REM seed -2146448945 416932385 -972651684 816428593 870058194 -1794695390 -1570971897 -344397818 -730400552 -1193366505 -828251201 1749840681 1356281435 1694003148 -1520974151 -1436841056 -1693296398 1537130129 -1625640118 163695094 1039218154 1507545370 -2026881132 -1684160663 1781571850 -1446551439 625561184 1618962538 -1899634898 -1806050289 -1674499860 1352024213 1622609256
REM
CELL 1.54180   50.00000   50.00000   50.00000   90.00000   90.00000   90.00000
LATT -1
SFAC C  
C      1  0.4799240000000  0.5316310000000  0.4767750000000 1.0
C      1  0.5327520000000  0.4484760000000  0.4559530000000 1.0
C      1  0.4931710000000  0.5501010000000  0.4346490000000 1.0
C      1  0.4228000000000  0.4709280000000  0.4880500000000 1.0
C      1  0.4962020000000  0.5797640000000  0.4778010000000 1.0
C      1  0.5041800000000  0.4893420000000  0.4736600000000 1.0
C      1  0.5875780000000  0.5052480000000  0.5075660000000 1.0
C      1  0.5636690000000  0.5233420000000  0.5089390000000 1.0
C      1  0.4309440000000  0.4834800000000  0.5283170000000 1.0
C      1  0.5404650000000  0.4889690000000  0.5726580000000 1.0
C      1  0.4803900000000  0.4516040000000  0.5530600000000 1.0
C      1  0.5482270000000  0.5109900000000  0.4826280000000 1.0
C      1  0.5571610000000  0.4910520000000  0.5492320000000 1.0
C      1  0.4516590000000  0.5283190000000  0.5140610000000 1.0
C      1  0.5415670000000  0.5348010000000  0.5618490000000 1.0
C      1  0.4716400000000  0.4765920000000  0.4271010000000 1.0
C      1  0.5087880000000  0.5367040000000  0.4713820000000 1.0
C      1  0.4786240000000  0.5017540000000  0.4664130000000 1.0
C      1  0.5319860000000  0.4866740000000  0.4366970000000 1.0
C      1  0.5484880000000  0.5326850000000  0.4586400000000 1.0
C      1  0.4341220000000  0.4589900000000  0.5130410000000 1.0
C      1  0.5539160000000  0.4799390000000  0.4823750000000 1.0
C      1  0.5500170000000  0.5557110000000  0.4735140000000 1.0
C      1  0.4829360000000  0.5702780000000  0.4533730000000 1.0
C      1  0.5574040000000  0.5515140000000  0.5011950000000 1.0
C      1  0.5423720000000  0.4523430000000  0.5234110000000 1.0
C      1  0.5082200000000  0.4485410000000  0.5585000000000 1.0
C      1  0.4792740000000  0.5336700000000  0.5055320000000 1.0
C      1  0.5198930000000  0.5543120000000  0.5577880000000 1.0
C      1  0.5505860000000  0.4718110000000  0.4542610000000 1.0
C      1  0.4744220000000  0.4383470000000  0.4470250000000 1.0
C      1  0.4825240000000  0.5794840000000  0.5020150000000 1.0
C      1  0.4751260000000  0.4569990000000  0.4888300000000 1.0
C      1  0.4362530000000  0.4696980000000  0.4637310000000 1.0
C      1  0.5761680000000  0.4805840000000  0.5052600000000 1.0
C      1  0.4950450000000  0.4879490000000  0.5185090000000 1.0
C      1  0.5627130000000  0.4705940000000  0.5300030000000 1.0
C      1  0.4546770000000  0.5228940000000  0.5418810000000 1.0
C      1  0.4716470000000  0.5306120000000  0.4302620000000 1.0
C      1  0.4825050000000  0.4329800000000  0.4733850000000 1.0
C      1  0.4317650000000  0.5198530000000  0.4943500000000 1.0
C      1  0.5216610000000  0.4368530000000  0.5356190000000 1.0
C      1  0.4756850000000  0.4352950000000  0.5297830000000 1.0
C      1  0.4862090000000  0.5593280000000  0.5227740000000 1.0
C      1  0.4919430000000  0.4566620000000  0.4310650000000 1.0
C      1  0.4205800000000  0.4953940000000  0.5034930000000 1.0
C      1  0.4923720000000  0.4916380000000  0.5725330000000 1.0
C      1  0.5317830000000  0.5151820000000  0.5796660000000 1.0
C      1  0.4488920000000  0.4946430000000  0.5480620000000 1.0
C      1  0.4953730000000  0.5425470000000  0.5686780000000 1.0
C      1  0.5144880000000  0.5080730000000  0.4320930000000 1.0
C      1  0.5018860000000  0.4712050000000  0.4968640000000 1.0
C      1  0.5335050000000  0.4600350000000  0.4969520000000 1.0
C      1  0.5204360000000  0.5152130000000  0.5352580000000 1.0
C      1  0.4318610000000  0.5261020000000  0.4672650000000 1.0
C      1  0.4825410000000  0.5038240000000  0.4349820000000 1.0
C      1  0.5040980000000  0.5149310000000  0.5107500000000 1.0
C      1  0.4530000000000  0.4596980000000  0.4431150000000 1.0
C      1  0.5012180000000  0.4261490000000  0.5181000000000 1.0
C      1  0.5147970000000  0.5641170000000  0.5318310000000 1.0
C      1  0.5501930000000  0.5173230000000  0.5367960000000 1.0
C      1  0.4462000000000  0.5372360000000  0.4466660000000 1.0
C      1  0.4745680000000  0.5432490000000  0.5488120000000 1.0
C      1  0.5166330000000  0.4729890000000  0.5707770000000 1.0
C      1  0.5079460000000  0.4909540000000  0.5440690000000 1.0
C      1  0.5322100000000  0.5627950000000  0.5102920000000 1.0
C      1  0.5206980000000  0.5628270000000  0.4821100000000 1.0
C      1  0.5190550000000  0.5129330000000  0.4850810000000 1.0
C      1  0.5283810000000  0.4360080000000  0.4802470000000 1.0
C      1  0.4609620000000  0.4794130000000  0.4755410000000 1.0
C      1  0.5119640000000  0.4672180000000  0.4477650000000 1.0
C      1  0.5194180000000  0.5338840000000  0.4427310000000 1.0
C      1  0.4628270000000  0.5527940000000  0.4636380000000 1.0
C      1  0.4583000000000  0.4455840000000  0.5105610000000 1.0
C      1  0.5030520000000  0.5174550000000  0.5814400000000 1.0
C      1  0.4689700000000  0.4779160000000  0.5617170000000 1.0
C      1  0.5044950000000  0.4229760000000  0.4891990000000 1.0
END
