TITL C-120609-4457-10 0.000332099856661036 125000 -22.9478494957218 0 0 4 (D(inf)h) n - 1
REM
REM in /rds/project/t2_vol4/rds-t2-cs072/BORA/CARBON/from-Arr/AIRSS/Generating-Clusters/GAP-ML-2020/Only-C1/SD-CG/HFTN-CG
REM
REM
REM
REM
REM
REM ./C.cell (11c1c37f851c82e70ff6c80c92926a4b)
REM AIRSS Version 0.9.1 bugfix July 2018 build 013d7b7c2542+ Fri, 06 Jul 2018 19:26:36 +0100
REM compiler GCC version 9.3.0
REM options -cpp -mtune=generic -march=x86-64 -g -O0
REM seed 360034091 -639833880 2146770660 1792733090 -1151048204 1340350594 831929421 -1554619906 -1411691870 -1755929700 2050224425 -1951919477 1640478133 854176144 -522525354 425934495 -1858675523 215643342 -1419359934 -492692851 -1883057280 1960000936 1295864127 -1205757638 -1170786574 -1378619059 445872501 -1187883489 416134484 2080504111 -722457370 176760627 204198990
REM
CELL 1.54180   50.00000   50.00000   50.00000   90.00000   90.00000   90.00000
LATT -1
SFAC C  
C      1  0.4932680000000  0.4948780000000  0.4895230000000 1.0
C      1  0.5067320000000  0.5051220000000  0.5104770000000 1.0
C      1  0.4805730000000  0.4852170000000  0.4697620000000 1.0
C      1  0.5194270000000  0.5147830000000  0.5302380000000 1.0
END
