TITL C-120603-4544-2 -133.816707118222 125000 -575.847431602241 0 0 82 (C1) n - 1
REM
REM in /rds/project/t2_vol4/rds-t2-cs072/BORA/CARBON/from-Arr/AIRSS/Generating-Clusters/GAP-ML-2020/Only-C1/SD-CG/HFTN-CG
REM
REM
REM
REM
REM
REM ./C.cell (11c1c37f851c82e70ff6c80c92926a4b)
REM AIRSS Version 0.9.1 bugfix July 2018 build 013d7b7c2542+ Fri, 06 Jul 2018 19:26:36 +0100
REM compiler GCC version 9.3.0
REM options -cpp -mtune=generic -march=x86-64 -g -O0
REM seed -1108537120 283687069 1834227795 710050575 -1113357986 2020851093 1021569723 -1727074614 1274809054 -1370067085 -1591651234 -1468765139 -887382488 779761921 2021685086 -1893417145 1407351816 -1428714827 -1112070373 -947525090 1125988096 1980895130 838440394 -132886331 1864836464 1843898433 539630107 2010106756 55583550 733434305 26911009 -1505732533 1208380751
REM
CELL 1.54180   50.00000   50.00000   50.00000   90.00000   90.00000   90.00000
LATT -1
SFAC C  
C      1  0.4845940000000  0.5289690000000  0.4534840000000 1.0
C      1  0.5487670000000  0.5295710000000  0.5617370000000 1.0
C      1  0.5227620000000  0.4648970000000  0.5560310000000 1.0
C      1  0.4675680000000  0.5090670000000  0.4656270000000 1.0
C      1  0.4606150000000  0.4876180000000  0.4269700000000 1.0
C      1  0.5699480000000  0.4818290000000  0.4974920000000 1.0
C      1  0.4532390000000  0.5424210000000  0.4226390000000 1.0
C      1  0.5005270000000  0.5585040000000  0.4886360000000 1.0
C      1  0.4955190000000  0.5219500000000  0.5185200000000 1.0
C      1  0.4699500000000  0.4625760000000  0.4354920000000 1.0
C      1  0.5661970000000  0.5534520000000  0.4916980000000 1.0
C      1  0.4458900000000  0.5040580000000  0.4461840000000 1.0
C      1  0.4331050000000  0.5464620000000  0.4679310000000 1.0
C      1  0.4893100000000  0.4928000000000  0.5183110000000 1.0
C      1  0.4780720000000  0.5316700000000  0.4251770000000 1.0
C      1  0.4682880000000  0.4300940000000  0.5253100000000 1.0
C      1  0.5001370000000  0.4660720000000  0.4408150000000 1.0
C      1  0.4272310000000  0.4541820000000  0.5206420000000 1.0
C      1  0.5340410000000  0.5742570000000  0.5210670000000 1.0
C      1  0.5590040000000  0.5600270000000  0.5202150000000 1.0
C      1  0.4214010000000  0.4804630000000  0.5301140000000 1.0
C      1  0.4457130000000  0.5294140000000  0.5347390000000 1.0
C      1  0.5355550000000  0.5022390000000  0.4319390000000 1.0
C      1  0.4792960000000  0.5005370000000  0.5691150000000 1.0
C      1  0.4535480000000  0.5114120000000  0.5557760000000 1.0
C      1  0.5449180000000  0.5639230000000  0.4756990000000 1.0
C      1  0.4375810000000  0.4876570000000  0.5518870000000 1.0
C      1  0.5151070000000  0.4233430000000  0.4933270000000 1.0
C      1  0.5579210000000  0.4927030000000  0.4487360000000 1.0
C      1  0.4474590000000  0.4443890000000  0.5375470000000 1.0
C      1  0.4657650000000  0.5798900000000  0.5266610000000 1.0
C      1  0.5243140000000  0.5163330000000  0.4840090000000 1.0
C      1  0.5516130000000  0.5015350000000  0.5614610000000 1.0
C      1  0.4580010000000  0.5520770000000  0.5167940000000 1.0
C      1  0.4157550000000  0.4969960000000  0.5081370000000 1.0
C      1  0.4888680000000  0.4172590000000  0.4836500000000 1.0
C      1  0.5332420000000  0.4607440000000  0.5276790000000 1.0
C      1  0.4141680000000  0.4779590000000  0.4867660000000 1.0
C      1  0.5240560000000  0.5724910000000  0.4944060000000 1.0
C      1  0.4619350000000  0.4404820000000  0.4528630000000 1.0
C      1  0.4355350000000  0.5445390000000  0.4947260000000 1.0
C      1  0.5844250000000  0.5111540000000  0.5286250000000 1.0
C      1  0.5692560000000  0.4905020000000  0.5422310000000 1.0
C      1  0.5289600000000  0.4327070000000  0.4694180000000 1.0
C      1  0.4996010000000  0.4747820000000  0.4711080000000 1.0
C      1  0.5181240000000  0.4845150000000  0.5126620000000 1.0
C      1  0.4652030000000  0.4245300000000  0.4973150000000 1.0
C      1  0.4885890000000  0.5869710000000  0.5348300000000 1.0
C      1  0.5092260000000  0.4380200000000  0.4480110000000 1.0
C      1  0.5174460000000  0.4358270000000  0.5191890000000 1.0
C      1  0.5679960000000  0.5189390000000  0.4554270000000 1.0
C      1  0.4977490000000  0.4533740000000  0.5579250000000 1.0
C      1  0.5099180000000  0.4907570000000  0.4251240000000 1.0
C      1  0.4260250000000  0.4529000000000  0.4916440000000 1.0
C      1  0.5074610000000  0.5392430000000  0.4672810000000 1.0
C      1  0.4373800000000  0.5332120000000  0.4434960000000 1.0
C      1  0.5122720000000  0.5604770000000  0.5641320000000 1.0
C      1  0.4942180000000  0.4354080000000  0.5357040000000 1.0
C      1  0.5825150000000  0.5068400000000  0.5000310000000 1.0
C      1  0.4522270000000  0.4639510000000  0.5576640000000 1.0
C      1  0.4763560000000  0.4879660000000  0.4819580000000 1.0
C      1  0.5270790000000  0.4894390000000  0.5683010000000 1.0
C      1  0.5610720000000  0.4715750000000  0.5230980000000 1.0
C      1  0.5143760000000  0.5779620000000  0.5426610000000 1.0
C      1  0.5509170000000  0.4471560000000  0.4711350000000 1.0
C      1  0.4844870000000  0.5040050000000  0.4186840000000 1.0
C      1  0.5532060000000  0.4753810000000  0.4731790000000 1.0
C      1  0.5226500000000  0.5161450000000  0.5122990000000 1.0
C      1  0.5210920000000  0.5354880000000  0.5697330000000 1.0
C      1  0.4858810000000  0.4252160000000  0.4565170000000 1.0
C      1  0.4467000000000  0.4370280000000  0.4782920000000 1.0
C      1  0.4841900000000  0.5445780000000  0.5079330000000 1.0
C      1  0.5062910000000  0.5093580000000  0.5733390000000 1.0
C      1  0.5673460000000  0.5438160000000  0.5431790000000 1.0
C      1  0.4271120000000  0.5235250000000  0.5133920000000 1.0
C      1  0.4673300000000  0.4835470000000  0.5071950000000 1.0
C      1  0.5456630000000  0.5290590000000  0.4400670000000 1.0
C      1  0.5933090000000  0.5329290000000  0.5418990000000 1.0
C      1  0.5772120000000  0.5281040000000  0.4810940000000 1.0
C      1  0.4773040000000  0.4708610000000  0.5678070000000 1.0
C      1  0.5325020000000  0.5496540000000  0.4540570000000 1.0
C      1  0.5228190000000  0.4862390000000  0.4823540000000 1.0
END
