TITL C-120591-4473-5 -223.900755942691 125000 -126.782363667791 0 0 20 (C1) n - 1
REM
REM in /rds/project/t2_vol4/rds-t2-cs072/BORA/CARBON/from-Arr/AIRSS/Generating-Clusters/GAP-ML-2020/Only-C1/SD-CG/HFTN-CG
REM
REM
REM
REM
REM
REM ./C.cell (11c1c37f851c82e70ff6c80c92926a4b)
REM AIRSS Version 0.9.1 bugfix July 2018 build 013d7b7c2542+ Fri, 06 Jul 2018 19:26:36 +0100
REM compiler GCC version 9.3.0
REM options -cpp -mtune=generic -march=x86-64 -g -O0
REM seed 952662203 -421359574 1606542136 974443931 1107263627 1121960347 -1529460714 1085736745 -22447322 -1321936888 1846819799 1029213949 -723463784 -649954598 -973235395 320021643 -273119375 1137650999 173731244 -655791452 -273645589 1628611178 604338527 2130762021 -1769844077 1772167023 318914016 346199054 -1320814077 -1674725188 -1589210206 -1429587223 -1328728488
REM
CELL 1.54180   50.00000   50.00000   50.00000   90.00000   90.00000   90.00000
LATT -1
SFAC C  
C      1  0.4828130000000  0.4859280000000  0.5441120000000 1.0
C      1  0.4785190000000  0.4943780000000  0.4471770000000 1.0
C      1  0.5057850000000  0.4512990000000  0.5099570000000 1.0
C      1  0.5091270000000  0.5034750000000  0.4758350000000 1.0
C      1  0.5215410000000  0.4950650000000  0.5222880000000 1.0
C      1  0.5192700000000  0.5121610000000  0.5001880000000 1.0
C      1  0.5141100000000  0.4498630000000  0.4859970000000 1.0
C      1  0.4399080000000  0.4962900000000  0.5162190000000 1.0
C      1  0.5160370000000  0.4831510000000  0.4554580000000 1.0
C      1  0.5206950000000  0.4567960000000  0.4617710000000 1.0
C      1  0.5038830000000  0.4731330000000  0.5259240000000 1.0
C      1  0.4587490000000  0.4920320000000  0.5324970000000 1.0
C      1  0.5185330000000  0.5401240000000  0.5379240000000 1.0
C      1  0.5149200000000  0.5392700000000  0.5097540000000 1.0
C      1  0.5062770000000  0.5584750000000  0.4921270000000 1.0
C      1  0.4996290000000  0.5605350000000  0.4680300000000 1.0
C      1  0.4785390000000  0.5028060000000  0.4737910000000 1.0
C      1  0.4991860000000  0.4889660000000  0.4318600000000 1.0
C      1  0.5156890000000  0.5136850000000  0.5461290000000 1.0
C      1  0.4967900000000  0.5025680000000  0.5629620000000 1.0
END
