TITL C-121221-6198-9 -0.037117935960064 125000 -166.30926524434 0 0 25 (C1) n - 1
REM
REM in /rds/project/t2_vol4/rds-t2-cs072/BORA/CARBON/from-Arr/AIRSS/Generating-Clusters/GAP-ML-2020/Only-C1/SD-CG/HFTN-CG
REM
REM
REM
REM
REM
REM ./C.cell (11c1c37f851c82e70ff6c80c92926a4b)
REM AIRSS Version 0.9.1 bugfix July 2018 build 013d7b7c2542+ Fri, 06 Jul 2018 19:26:36 +0100
REM compiler GCC version 9.3.0
REM options -cpp -mtune=generic -march=x86-64 -g -O0
REM seed -448998798 361324949 1505589033 -925908372 1727981579 1063293127 -2119252823 -369272110 -1133490172 1973741654 -1303349522 -2028023962 195525704 1289409320 -1332386754 2106407308 1180548916 972437473 1489388427 1556805603 1075678277 805244625 -1556147906 -240136271 -1280717097 423030472 307297611 -1669843442 709265822 -252786979 734937393 -515935368 1383772496
REM
CELL 1.54180   50.00000   50.00000   50.00000   90.00000   90.00000   90.00000
LATT -1
SFAC C  
C      1  0.4577170000000  0.5293500000000  0.4859930000000 1.0
C      1  0.5105440000000  0.4594290000000  0.5245240000000 1.0
C      1  0.4554990000000  0.5271110000000  0.5131000000000 1.0
C      1  0.4583880000000  0.5085340000000  0.5354130000000 1.0
C      1  0.4996780000000  0.4941320000000  0.4509050000000 1.0
C      1  0.5226450000000  0.4846810000000  0.5273170000000 1.0
C      1  0.4798510000000  0.4488310000000  0.4883070000000 1.0
C      1  0.5034560000000  0.5021740000000  0.5392350000000 1.0
C      1  0.4651300000000  0.4505240000000  0.5095850000000 1.0
C      1  0.5398200000000  0.4949710000000  0.5073300000000 1.0
C      1  0.4813760000000  0.4627760000000  0.5290320000000 1.0
C      1  0.5206480000000  0.5349800000000  0.4625420000000 1.0
C      1  0.4972200000000  0.5210590000000  0.4521600000000 1.0
C      1  0.5041150000000  0.5469280000000  0.4840750000000 1.0
C      1  0.5408110000000  0.5196290000000  0.4742750000000 1.0
C      1  0.4779600000000  0.4889540000000  0.5398400000000 1.0
C      1  0.4720440000000  0.5348380000000  0.5334390000000 1.0
C      1  0.5159200000000  0.4769200000000  0.4659320000000 1.0
C      1  0.5184490000000  0.4439850000000  0.5033270000000 1.0
C      1  0.4802690000000  0.5354270000000  0.4729910000000 1.0
C      1  0.5058760000000  0.4532770000000  0.4797700000000 1.0
C      1  0.5150780000000  0.5381590000000  0.5092250000000 1.0
C      1  0.5386810000000  0.4906680000000  0.4779190000000 1.0
C      1  0.5390870000000  0.5233120000000  0.5028740000000 1.0
C      1  0.4997380000000  0.5293530000000  0.5308880000000 1.0
END
