TITL C-121990-384-9 -0.172516566360428 125000 -279.212520843725 0 0 42 (C1) n - 1
REM
REM in /rds/project/t2_vol4/rds-t2-cs072/BORA/CARBON/from-Arr/AIRSS/Generating-Clusters/GAP-ML-2020/Only-C1/SD-CG/HFTN-CG
REM
REM
REM
REM
REM
REM ./C.cell (11c1c37f851c82e70ff6c80c92926a4b)
REM AIRSS Version 0.9.1 bugfix July 2018 build 013d7b7c2542+ Fri, 06 Jul 2018 19:26:36 +0100
REM compiler GCC version 9.3.0
REM options -cpp -mtune=generic -march=x86-64 -g -O0
REM seed 668520923 1374229569 -125076545 1003072717 -493952288 -670597344 153082109 -1419960276 -36479318 1336061470 -1772692434 -1029407782 22077155 830590529 -836803122 774314640 -2120081144 -1895503482 -259013739 -765533009 -1246560335 -1467558201 309043379 362981981 -1622324672 1289487245 1899914976 252040075 -758509876 -124624678 -684102296 -534609123 1292781106
REM
CELL 1.54180   50.00000   50.00000   50.00000   90.00000   90.00000   90.00000
LATT -1
SFAC C  
C      1  0.5385990000000  0.4712570000000  0.5260350000000 1.0
C      1  0.5012610000000  0.4439240000000  0.5248670000000 1.0
C      1  0.5576340000000  0.5375880000000  0.5013510000000 1.0
C      1  0.5353060000000  0.4961560000000  0.4547110000000 1.0
C      1  0.4948570000000  0.4981110000000  0.5356170000000 1.0
C      1  0.5491340000000  0.4661630000000  0.4778720000000 1.0
C      1  0.4763450000000  0.4684670000000  0.4949770000000 1.0
C      1  0.4755410000000  0.5483920000000  0.4984720000000 1.0
C      1  0.4687620000000  0.5139970000000  0.5371630000000 1.0
C      1  0.5316640000000  0.4671020000000  0.4535690000000 1.0
C      1  0.4587670000000  0.5101560000000  0.5645720000000 1.0
C      1  0.4647020000000  0.5349140000000  0.4734460000000 1.0
C      1  0.4976830000000  0.4890350000000  0.5048000000000 1.0
C      1  0.4828100000000  0.4964490000000  0.4489280000000 1.0
C      1  0.4571310000000  0.4589570000000  0.5403380000000 1.0
C      1  0.5561300000000  0.5101590000000  0.5015900000000 1.0
C      1  0.5000920000000  0.5611450000000  0.4903840000000 1.0
C      1  0.5209170000000  0.5577970000000  0.5093360000000 1.0
C      1  0.5485800000000  0.5611270000000  0.5043270000000 1.0
C      1  0.5390680000000  0.4554700000000  0.5014880000000 1.0
C      1  0.4484430000000  0.5049990000000  0.5185870000000 1.0
C      1  0.5049020000000  0.4569020000000  0.4536690000000 1.0
C      1  0.4857960000000  0.4719950000000  0.4382760000000 1.0
C      1  0.5201440000000  0.5152310000000  0.5362960000000 1.0
C      1  0.4312970000000  0.4900000000000  0.5061180000000 1.0
C      1  0.5003410000000  0.4771520000000  0.5543350000000 1.0
C      1  0.5019370000000  0.5619590000000  0.4624230000000 1.0
C      1  0.4731020000000  0.4519040000000  0.5206180000000 1.0
C      1  0.5414360000000  0.4995820000000  0.5247930000000 1.0
C      1  0.5042090000000  0.5381540000000  0.4475290000000 1.0
C      1  0.4813380000000  0.5388980000000  0.5243620000000 1.0
C      1  0.5169730000000  0.4595910000000  0.5420240000000 1.0
C      1  0.4949160000000  0.4501150000000  0.4794450000000 1.0
C      1  0.4787490000000  0.5479330000000  0.4519900000000 1.0
C      1  0.4618590000000  0.5066940000000  0.4677100000000 1.0
C      1  0.4531720000000  0.4867730000000  0.4876040000000 1.0
C      1  0.5543410000000  0.4943090000000  0.4773680000000 1.0
C      1  0.5029960000000  0.5115440000000  0.4894020000000 1.0
C      1  0.5089410000000  0.5107110000000  0.4596690000000 1.0
C      1  0.5134910000000  0.4424780000000  0.4999230000000 1.0
C      1  0.4566330000000  0.4963370000000  0.5850980000000 1.0
C      1  0.5100000000000  0.5403690000000  0.5289180000000 1.0
END
