TITL C-121218-6135-11 -179.727612493282 125000 -134.719359725879 0 0 21 (C1) n - 1
REM
REM in /rds/project/t2_vol4/rds-t2-cs072/BORA/CARBON/from-Arr/AIRSS/Generating-Clusters/GAP-ML-2020/Only-C1/SD-CG/HFTN-CG
REM
REM
REM
REM
REM
REM ./C.cell (11c1c37f851c82e70ff6c80c92926a4b)
REM AIRSS Version 0.9.1 bugfix July 2018 build 013d7b7c2542+ Fri, 06 Jul 2018 19:26:36 +0100
REM compiler GCC version 9.3.0
REM options -cpp -mtune=generic -march=x86-64 -g -O0
REM seed 213885719 798701816 -172098264 34743940 -1675320323 -896841851 1549039179 -1727438698 1078725894 -2011156980 291221774 1415121628 -1771436186 -1584136892 -2130841280 595677740 1540095648 1751030689 -361002297 1532268076 -46274865 1211578488 1508278998 1113044324 -427022144 -521760869 -539392442 -1541040826 17395716 -1891990787 -1109319215 -229716426 -254413570
REM
CELL 1.54180   50.00000   50.00000   50.00000   90.00000   90.00000   90.00000
LATT -1
SFAC C  
C      1  0.5312870000000  0.5015540000000  0.4898720000000 1.0
C      1  0.4576870000000  0.5239480000000  0.4974010000000 1.0
C      1  0.5221980000000  0.5218660000000  0.4728940000000 1.0
C      1  0.5341180000000  0.5028730000000  0.5557370000000 1.0
C      1  0.4812450000000  0.5383040000000  0.4921010000000 1.0
C      1  0.4975750000000  0.5453020000000  0.5133190000000 1.0
C      1  0.5279030000000  0.4585680000000  0.4665710000000 1.0
C      1  0.5225490000000  0.4721830000000  0.4884730000000 1.0
C      1  0.5167870000000  0.4645750000000  0.5365210000000 1.0
C      1  0.5432780000000  0.5103140000000  0.5120790000000 1.0
C      1  0.5047180000000  0.4621770000000  0.5119350000000 1.0
C      1  0.4957120000000  0.5286730000000  0.4688950000000 1.0
C      1  0.4563160000000  0.4748060000000  0.4649230000000 1.0
C      1  0.4796300000000  0.5175320000000  0.4480830000000 1.0
C      1  0.4479270000000  0.5015190000000  0.5032900000000 1.0
C      1  0.5151680000000  0.5438860000000  0.5307410000000 1.0
C      1  0.4773560000000  0.4618220000000  0.5079480000000 1.0
C      1  0.4587840000000  0.4759730000000  0.4936780000000 1.0
C      1  0.5329230000000  0.5212260000000  0.5346840000000 1.0
C      1  0.5279280000000  0.4775640000000  0.5556140000000 1.0
C      1  0.4689120000000  0.4953350000000  0.4552400000000 1.0
END
