TITL C-125556-3491-5 -0.0174835409237144 125000 -389.712561367474 0 0 57 (C1) n - 1
REM
REM in /rds/project/t2_vol4/rds-t2-cs072/BORA/CARBON/from-Arr/AIRSS/Generating-Clusters/GAP-ML-2020/Only-C1/SD-CG/HFTN-CG
REM
REM
REM
REM
REM
REM ./C.cell (11c1c37f851c82e70ff6c80c92926a4b)
REM AIRSS Version 0.9.1 bugfix July 2018 build 013d7b7c2542+ Fri, 06 Jul 2018 19:26:36 +0100
REM compiler GCC version 9.3.0
REM options -cpp -mtune=generic -march=x86-64 -g -O0
REM seed 618402922 336190372 329506498 1617822557 -1801347591 1343082673 -1352216176 -1089029241 -1041172554 -681466938 570709164 -2069814929 368503391 194264804 433319948 776933402 -28741178 -1070098749 1852690576 1508216724 700518656 1436076092 -1859338578 -196333812 -843813043 -231366037 1594189704 -1924189501 -1677033170 -318961245 -462179202 708158622 1900347622
REM
CELL 1.54180   50.00000   50.00000   50.00000   90.00000   90.00000   90.00000
LATT -1
SFAC C  
C      1  0.5337350000000  0.5405550000000  0.4373670000000 1.0
C      1  0.4316950000000  0.4844720000000  0.4758450000000 1.0
C      1  0.4842400000000  0.4955910000000  0.5045840000000 1.0
C      1  0.4489000000000  0.4647680000000  0.5181620000000 1.0
C      1  0.4422950000000  0.5138270000000  0.5238710000000 1.0
C      1  0.4863450000000  0.4838260000000  0.4406910000000 1.0
C      1  0.5556510000000  0.5549010000000  0.4891850000000 1.0
C      1  0.5512420000000  0.4657290000000  0.4992120000000 1.0
C      1  0.5146730000000  0.5215690000000  0.4285880000000 1.0
C      1  0.5331130000000  0.4645720000000  0.5477510000000 1.0
C      1  0.4407930000000  0.5215570000000  0.4960470000000 1.0
C      1  0.4894420000000  0.4593430000000  0.4567920000000 1.0
C      1  0.5473220000000  0.5037460000000  0.5293800000000 1.0
C      1  0.4856820000000  0.4467150000000  0.5470860000000 1.0
C      1  0.5209750000000  0.5124360000000  0.4816670000000 1.0
C      1  0.4927320000000  0.5062070000000  0.4799090000000 1.0
C      1  0.4268820000000  0.5118040000000  0.4720600000000 1.0
C      1  0.5658060000000  0.5369030000000  0.4695490000000 1.0
C      1  0.5321670000000  0.5618200000000  0.4953270000000 1.0
C      1  0.4791070000000  0.5063270000000  0.5731980000000 1.0
C      1  0.4818570000000  0.5553740000000  0.4881460000000 1.0
C      1  0.5556300000000  0.4889950000000  0.4554360000000 1.0
C      1  0.5051320000000  0.5446480000000  0.4421510000000 1.0
C      1  0.5649940000000  0.4831780000000  0.4811930000000 1.0
C      1  0.5222920000000  0.4221600000000  0.5258300000000 1.0
C      1  0.4583670000000  0.5450510000000  0.5007080000000 1.0
C      1  0.5297110000000  0.4505460000000  0.4869310000000 1.0
C      1  0.4569850000000  0.5387430000000  0.5291140000000 1.0
C      1  0.4832450000000  0.4388370000000  0.5001380000000 1.0
C      1  0.4747300000000  0.5042790000000  0.4565380000000 1.0
C      1  0.4793800000000  0.4663420000000  0.5650960000000 1.0
C      1  0.5244950000000  0.4868240000000  0.5647360000000 1.0
C      1  0.5018140000000  0.5014050000000  0.5230670000000 1.0
C      1  0.4717760000000  0.4518490000000  0.4779160000000 1.0
C      1  0.4627450000000  0.5298020000000  0.4498380000000 1.0
C      1  0.5702220000000  0.5084080000000  0.4701120000000 1.0
C      1  0.5495090000000  0.4746100000000  0.5268320000000 1.0
C      1  0.5166440000000  0.5345300000000  0.5539550000000 1.0
C      1  0.4777290000000  0.5470300000000  0.5450640000000 1.0
C      1  0.5147390000000  0.4427150000000  0.5426180000000 1.0
C      1  0.4478670000000  0.4670200000000  0.4889290000000 1.0
C      1  0.5595850000000  0.5462100000000  0.4436110000000 1.0
C      1  0.4356540000000  0.5279790000000  0.4494210000000 1.0
C      1  0.4598750000000  0.4874140000000  0.5601200000000 1.0
C      1  0.5121610000000  0.4356670000000  0.5037150000000 1.0
C      1  0.5059720000000  0.5606620000000  0.5056000000000 1.0
C      1  0.5120920000000  0.4933800000000  0.4318830000000 1.0
C      1  0.4901120000000  0.5298620000000  0.5652540000000 1.0
C      1  0.5345730000000  0.5120940000000  0.5542720000000 1.0
C      1  0.5315210000000  0.4777690000000  0.4455880000000 1.0
C      1  0.4690790000000  0.4455300000000  0.5239490000000 1.0
C      1  0.5273490000000  0.5103070000000  0.5097220000000 1.0
C      1  0.4989790000000  0.4848610000000  0.5760500000000 1.0
C      1  0.5036150000000  0.5530960000000  0.5333710000000 1.0
C      1  0.4829580000000  0.5502220000000  0.4593580000000 1.0
C      1  0.5184180000000  0.4578560000000  0.4616320000000 1.0
C      1  0.4453940000000  0.4880750000000  0.5358360000000 1.0
END
