TITL C-121979-6819-5 -839.473956877785 125000 -872.136823792607 0 0 125 (C1) n - 1
REM
REM in /rds/project/t2_vol4/rds-t2-cs072/BORA/CARBON/from-Arr/AIRSS/Generating-Clusters/GAP-ML-2020/Only-C1/SD-CG/HFTN-CG
REM
REM
REM
REM
REM
REM ./C.cell (11c1c37f851c82e70ff6c80c92926a4b)
REM AIRSS Version 0.9.1 bugfix July 2018 build 013d7b7c2542+ Fri, 06 Jul 2018 19:26:36 +0100
REM compiler GCC version 9.3.0
REM options -cpp -mtune=generic -march=x86-64 -g -O0
REM seed -1354606253 1031411363 2004348279 -813459919 -699221274 1036291557 -1368273868 -1521568787 358767032 2118267952 -818920321 -1429210659 801551593 518409359 -1225004813 -255240871 9435911 177049868 357080488 883630531 -1357280895 1320390053 -1968755031 24022208 1896050366 -1743170275 -781259951 276394585 1829802305 751204017 -1713708013 -731385219 -540223296
REM
CELL 1.54180   50.00000   50.00000   50.00000   90.00000   90.00000   90.00000
LATT -1
SFAC C  
C      1  0.4335900000000  0.4284390000000  0.4998970000000 1.0
C      1  0.5520790000000  0.4862730000000  0.5235240000000 1.0
C      1  0.5312340000000  0.4699390000000  0.5676580000000 1.0
C      1  0.4685520000000  0.4502520000000  0.5616410000000 1.0
C      1  0.4627380000000  0.5218430000000  0.4666730000000 1.0
C      1  0.4077820000000  0.4694540000000  0.4744050000000 1.0
C      1  0.5376430000000  0.5104820000000  0.5225930000000 1.0
C      1  0.5106630000000  0.4646910000000  0.5407570000000 1.0
C      1  0.4549400000000  0.4957780000000  0.4527140000000 1.0
C      1  0.4423860000000  0.5250700000000  0.5164960000000 1.0
C      1  0.4628580000000  0.4698740000000  0.4707350000000 1.0
C      1  0.5131900000000  0.5376840000000  0.4595590000000 1.0
C      1  0.4926790000000  0.4409260000000  0.5466910000000 1.0
C      1  0.5478740000000  0.4661300000000  0.5043060000000 1.0
C      1  0.4533950000000  0.4384830000000  0.4545630000000 1.0
C      1  0.4876430000000  0.5953750000000  0.5066120000000 1.0
C      1  0.5389210000000  0.5694520000000  0.5004990000000 1.0
C      1  0.4228560000000  0.4974890000000  0.4473270000000 1.0
C      1  0.4158520000000  0.5299070000000  0.5344580000000 1.0
C      1  0.5584720000000  0.5351420000000  0.5723100000000 1.0
C      1  0.5391220000000  0.5698050000000  0.5505430000000 1.0
C      1  0.4775680000000  0.5436640000000  0.5808560000000 1.0
C      1  0.4793710000000  0.4268840000000  0.4460190000000 1.0
C      1  0.4398090000000  0.5391740000000  0.4892330000000 1.0
C      1  0.5650400000000  0.4616650000000  0.4365230000000 1.0
C      1  0.5535570000000  0.4302360000000  0.4624520000000 1.0
C      1  0.4405850000000  0.5638710000000  0.5521920000000 1.0
C      1  0.4895920000000  0.5201410000000  0.5908770000000 1.0
C      1  0.5466420000000  0.4758500000000  0.4767730000000 1.0
C      1  0.5294020000000  0.5811020000000  0.5268360000000 1.0
C      1  0.5163100000000  0.5088860000000  0.4535970000000 1.0
C      1  0.4089790000000  0.4992770000000  0.4738710000000 1.0
C      1  0.4570550000000  0.4936580000000  0.5487150000000 1.0
C      1  0.4667240000000  0.4017060000000  0.4802280000000 1.0
C      1  0.5566400000000  0.4384550000000  0.5099680000000 1.0
C      1  0.5848850000000  0.4534080000000  0.5034030000000 1.0
C      1  0.5577790000000  0.4820420000000  0.5673540000000 1.0
C      1  0.4529500000000  0.4263560000000  0.5226680000000 1.0
C      1  0.5426780000000  0.5546760000000  0.4414030000000 1.0
C      1  0.5657940000000  0.5549870000000  0.5015980000000 1.0
C      1  0.5240500000000  0.5407240000000  0.4243770000000 1.0
C      1  0.4684580000000  0.4775900000000  0.5712260000000 1.0
C      1  0.4494920000000  0.5683590000000  0.4877000000000 1.0
C      1  0.4363270000000  0.4524020000000  0.4349000000000 1.0
C      1  0.4938520000000  0.5356630000000  0.5027750000000 1.0
C      1  0.5151540000000  0.4241240000000  0.5586520000000 1.0
C      1  0.4885480000000  0.4861440000000  0.4142400000000 1.0
C      1  0.4920590000000  0.4643810000000  0.4749610000000 1.0
C      1  0.4271750000000  0.4641160000000  0.5116350000000 1.0
C      1  0.5403030000000  0.4561410000000  0.4539200000000 1.0
C      1  0.5875550000000  0.5066420000000  0.5514780000000 1.0
C      1  0.5333720000000  0.5388900000000  0.5841300000000 1.0
C      1  0.4159080000000  0.5556530000000  0.5437250000000 1.0
C      1  0.4693920000000  0.4819210000000  0.5232050000000 1.0
C      1  0.4126700000000  0.4492490000000  0.4940610000000 1.0
C      1  0.5739730000000  0.4885180000000  0.4401200000000 1.0
C      1  0.4460990000000  0.4418210000000  0.5466100000000 1.0
C      1  0.4157080000000  0.4686910000000  0.4465510000000 1.0
C      1  0.5187160000000  0.5425360000000  0.4897470000000 1.0
C      1  0.4671480000000  0.5469140000000  0.4462860000000 1.0
C      1  0.5294700000000  0.5875050000000  0.4785490000000 1.0
C      1  0.5324610000000  0.5126550000000  0.4262680000000 1.0
C      1  0.4860170000000  0.5886340000000  0.4605010000000 1.0
C      1  0.5270860000000  0.4975540000000  0.4780910000000 1.0
C      1  0.5602730000000  0.5124260000000  0.4344980000000 1.0
C      1  0.5387540000000  0.4400050000000  0.5624320000000 1.0
C      1  0.5444030000000  0.4214720000000  0.4871060000000 1.0
C      1  0.5378860000000  0.5199450000000  0.4944040000000 1.0
C      1  0.4829540000000  0.4269190000000  0.5199570000000 1.0
C      1  0.5683130000000  0.5089590000000  0.5719660000000 1.0
C      1  0.4923500000000  0.5293600000000  0.5304270000000 1.0
C      1  0.5922770000000  0.5231110000000  0.5296190000000 1.0
C      1  0.5114280000000  0.5089510000000  0.5333380000000 1.0
C      1  0.5118280000000  0.4615620000000  0.4460830000000 1.0
C      1  0.5863660000000  0.5097290000000  0.4843790000000 1.0
C      1  0.4169450000000  0.5277790000000  0.4739410000000 1.0
C      1  0.4227000000000  0.5274620000000  0.4453910000000 1.0
C      1  0.4593330000000  0.5800270000000  0.5382640000000 1.0
C      1  0.4851430000000  0.5824010000000  0.5503800000000 1.0
C      1  0.4929360000000  0.4372440000000  0.4907140000000 1.0
C      1  0.4573430000000  0.5022740000000  0.5035280000000 1.0
C      1  0.4608750000000  0.4953830000000  0.4204120000000 1.0
C      1  0.4806290000000  0.5129600000000  0.4885380000000 1.0
C      1  0.4557900000000  0.5414160000000  0.5629590000000 1.0
C      1  0.4272760000000  0.4610100000000  0.5401430000000 1.0
C      1  0.5785470000000  0.4863160000000  0.4690830000000 1.0
C      1  0.4872300000000  0.4908820000000  0.5868760000000 1.0
C      1  0.5216340000000  0.5617630000000  0.5720690000000 1.0
C      1  0.5263650000000  0.4093050000000  0.5368880000000 1.0
C      1  0.4455980000000  0.4191900000000  0.4761070000000 1.0
C      1  0.5934150000000  0.4749190000000  0.5194380000000 1.0
C      1  0.4939540000000  0.5657920000000  0.5717790000000 1.0
C      1  0.5114830000000  0.4886110000000  0.4315200000000 1.0
C      1  0.5042470000000  0.5795840000000  0.4410410000000 1.0
C      1  0.4945730000000  0.4432740000000  0.4294800000000 1.0
C      1  0.4524260000000  0.4656190000000  0.4156370000000 1.0
C      1  0.5031830000000  0.5911790000000  0.5299200000000 1.0
C      1  0.5760400000000  0.4804720000000  0.5430060000000 1.0
C      1  0.5158870000000  0.4156710000000  0.4902640000000 1.0
C      1  0.5162130000000  0.4875870000000  0.5875450000000 1.0
C      1  0.5770840000000  0.5477150000000  0.5266230000000 1.0
C      1  0.4434510000000  0.5375080000000  0.4287290000000 1.0
C      1  0.5183470000000  0.5166570000000  0.5928490000000 1.0
C      1  0.4613650000000  0.5835770000000  0.5096750000000 1.0
C      1  0.5669230000000  0.5321430000000  0.4814240000000 1.0
C      1  0.5968070000000  0.5032820000000  0.5090460000000 1.0
C      1  0.4623920000000  0.5234810000000  0.5408640000000 1.0
C      1  0.4520850000000  0.4749100000000  0.4989290000000 1.0
C      1  0.5017300000000  0.5965300000000  0.4827310000000 1.0
C      1  0.4797170000000  0.4587410000000  0.4119130000000 1.0
C      1  0.4493850000000  0.5196560000000  0.4088450000000 1.0
C      1  0.5487530000000  0.4283750000000  0.5368920000000 1.0
C      1  0.5071920000000  0.4073700000000  0.5167390000000 1.0
C      1  0.4279340000000  0.4872620000000  0.5498520000000 1.0
C      1  0.5625590000000  0.5362440000000  0.4518790000000 1.0
C      1  0.4898050000000  0.4139500000000  0.4704690000000 1.0
C      1  0.5311890000000  0.5796520000000  0.4507580000000 1.0
C      1  0.5625090000000  0.5537770000000  0.5507680000000 1.0
C      1  0.4992640000000  0.4836660000000  0.5219640000000 1.0
C      1  0.5779770000000  0.4423990000000  0.4546580000000 1.0
C      1  0.4638560000000  0.5712410000000  0.4632650000000 1.0
C      1  0.5010270000000  0.4886570000000  0.4900480000000 1.0
C      1  0.4971610000000  0.5518830000000  0.4366440000000 1.0
C      1  0.5880790000000  0.4585000000000  0.4756490000000 1.0
C      1  0.4099870000000  0.5069140000000  0.5474210000000 1.0
END
