TITL C-121244-6137-6 97.44595574715 125000 -468.943814217238 0 0 69 (C1) n - 1
REM
REM in /rds/project/t2_vol4/rds-t2-cs072/BORA/CARBON/from-Arr/AIRSS/Generating-Clusters/GAP-ML-2020/Only-C1/SD-CG/HFTN-CG
REM
REM
REM
REM
REM
REM ./C.cell (11c1c37f851c82e70ff6c80c92926a4b)
REM AIRSS Version 0.9.1 bugfix July 2018 build 013d7b7c2542+ Fri, 06 Jul 2018 19:26:36 +0100
REM compiler GCC version 9.3.0
REM options -cpp -mtune=generic -march=x86-64 -g -O0
REM seed -609606096 1798979313 -924930083 -907260877 -1442048404 899828871 -1195156948 -499108581 31752845 -911054990 1365586149 1380351102 2012092919 -1357570700 1967975267 -322064804 -863885716 -845200480 1908074327 -2096723125 -1518413326 -1695664941 813184142 279635657 186360749 -1700734820 236224860 -1177362549 -482431440 1734778496 -1260561709 23310691 601443436
REM
CELL 1.54180   50.00000   50.00000   50.00000   90.00000   90.00000   90.00000
LATT -1
SFAC C  
C      1  0.5060100000000  0.4775960000000  0.4909090000000 1.0
C      1  0.4577450000000  0.4922160000000  0.5457860000000 1.0
C      1  0.5578210000000  0.4557890000000  0.4835540000000 1.0
C      1  0.4304780000000  0.5172540000000  0.5122690000000 1.0
C      1  0.4407410000000  0.5261960000000  0.4678950000000 1.0
C      1  0.5131680000000  0.5271910000000  0.5033150000000 1.0
C      1  0.5585830000000  0.4492760000000  0.5107150000000 1.0
C      1  0.5175000000000  0.5520850000000  0.4580450000000 1.0
C      1  0.5573920000000  0.5442020000000  0.5183540000000 1.0
C      1  0.5308170000000  0.5053190000000  0.4959870000000 1.0
C      1  0.5681950000000  0.4755220000000  0.5032050000000 1.0
C      1  0.5387210000000  0.5397250000000  0.5416990000000 1.0
C      1  0.5774970000000  0.5001090000000  0.4884870000000 1.0
C      1  0.5183000000000  0.4888450000000  0.5827060000000 1.0
C      1  0.5100960000000  0.5393020000000  0.5324930000000 1.0
C      1  0.5127200000000  0.5067740000000  0.4522600000000 1.0
C      1  0.5673110000000  0.4985660000000  0.4613110000000 1.0
C      1  0.5034850000000  0.4915240000000  0.5436020000000 1.0
C      1  0.4910480000000  0.4523960000000  0.4389900000000 1.0
C      1  0.4898960000000  0.5164880000000  0.4128670000000 1.0
C      1  0.5328210000000  0.4527910000000  0.5272530000000 1.0
C      1  0.5243830000000  0.4893980000000  0.4728930000000 1.0
C      1  0.4280160000000  0.5082580000000  0.4854560000000 1.0
C      1  0.4682690000000  0.4914230000000  0.5713890000000 1.0
C      1  0.4367780000000  0.4624960000000  0.5016710000000 1.0
C      1  0.4335740000000  0.4809450000000  0.4785740000000 1.0
C      1  0.5061010000000  0.4967300000000  0.4241900000000 1.0
C      1  0.5322940000000  0.5301080000000  0.4472650000000 1.0
C      1  0.5420240000000  0.4916720000000  0.5660440000000 1.0
C      1  0.4837640000000  0.4545510000000  0.5248310000000 1.0
C      1  0.5000470000000  0.5203020000000  0.5535530000000 1.0
C      1  0.5487230000000  0.4945640000000  0.5166780000000 1.0
C      1  0.4877760000000  0.5187400000000  0.4930070000000 1.0
C      1  0.4581690000000  0.5429860000000  0.5584320000000 1.0
C      1  0.5180410000000  0.5177240000000  0.5778030000000 1.0
C      1  0.4836340000000  0.4925580000000  0.5000840000000 1.0
C      1  0.4920860000000  0.5671420000000  0.4959140000000 1.0
C      1  0.4731070000000  0.4426490000000  0.4795500000000 1.0
C      1  0.5196050000000  0.5573020000000  0.4875520000000 1.0
C      1  0.5470720000000  0.4728200000000  0.4621710000000 1.0
C      1  0.4736740000000  0.5613680000000  0.4752670000000 1.0
C      1  0.4947050000000  0.4769550000000  0.5692610000000 1.0
C      1  0.5102870000000  0.4686000000000  0.4248120000000 1.0
C      1  0.4614890000000  0.4474140000000  0.5043930000000 1.0
C      1  0.4617710000000  0.5533100000000  0.5323490000000 1.0
C      1  0.4879900000000  0.5182480000000  0.4638430000000 1.0
C      1  0.5017710000000  0.4387450000000  0.4816420000000 1.0
C      1  0.5426950000000  0.5215340000000  0.5641240000000 1.0
C      1  0.5123810000000  0.4406060000000  0.4554820000000 1.0
C      1  0.4676770000000  0.4575350000000  0.4548030000000 1.0
C      1  0.4442590000000  0.5430460000000  0.5110910000000 1.0
C      1  0.5677000000000  0.5179860000000  0.5107340000000 1.0
C      1  0.4951110000000  0.4495740000000  0.5540440000000 1.0
C      1  0.4713930000000  0.5189260000000  0.5619980000000 1.0
C      1  0.4882350000000  0.5595350000000  0.5229980000000 1.0
C      1  0.5332430000000  0.4820360000000  0.5386120000000 1.0
C      1  0.5441410000000  0.5624600000000  0.5020630000000 1.0
C      1  0.5577370000000  0.5194800000000  0.4459950000000 1.0
C      1  0.4513970000000  0.4814880000000  0.4564180000000 1.0
C      1  0.5205000000000  0.4407180000000  0.5503730000000 1.0
C      1  0.4799650000000  0.4840500000000  0.5275230000000 1.0
C      1  0.5321350000000  0.4569420000000  0.4421030000000 1.0
C      1  0.5089020000000  0.4530310000000  0.5068860000000 1.0
C      1  0.4752550000000  0.5309670000000  0.4305890000000 1.0
C      1  0.4221740000000  0.4711290000000  0.5230980000000 1.0
C      1  0.4496620000000  0.5486890000000  0.4835090000000 1.0
C      1  0.4325010000000  0.4953300000000  0.5320420000000 1.0
C      1  0.4883890000000  0.5474870000000  0.4534500000000 1.0
C      1  0.4590490000000  0.5112780000000  0.4517440000000 1.0
END
