TITL C-121966-4392-6 -0.0134647517391965 125000 -318.798157465837 0 0 47 (C1) n - 1
REM
REM in /rds/project/t2_vol4/rds-t2-cs072/BORA/CARBON/from-Arr/AIRSS/Generating-Clusters/GAP-ML-2020/Only-C1/SD-CG/HFTN-CG
REM
REM
REM
REM
REM
REM ./C.cell (11c1c37f851c82e70ff6c80c92926a4b)
REM AIRSS Version 0.9.1 bugfix July 2018 build 013d7b7c2542+ Fri, 06 Jul 2018 19:26:36 +0100
REM compiler GCC version 9.3.0
REM options -cpp -mtune=generic -march=x86-64 -g -O0
REM seed 2116640267 -2028281457 1835951784 1885107337 -2140600438 1302544418 1370891372 -260619729 816458626 1144535566 239977388 891229627 -422461172 -2029485424 691475828 770927206 1878686442 1047039702 -813206510 25376672 14396458 -398325257 279319193 66024277 -26650851 1427118760 -902525582 670346382 -2104048381 -313431907 -75139475 -497652051 -935919030
REM
CELL 1.54180   50.00000   50.00000   50.00000   90.00000   90.00000   90.00000
LATT -1
SFAC C  
C      1  0.4670860000000  0.4676490000000  0.5164990000000 1.0
C      1  0.5161850000000  0.5489410000000  0.5038740000000 1.0
C      1  0.4614460000000  0.5463700000000  0.5143290000000 1.0
C      1  0.5522120000000  0.4929870000000  0.4879720000000 1.0
C      1  0.4969540000000  0.4940930000000  0.4402610000000 1.0
C      1  0.5313150000000  0.5162380000000  0.5548050000000 1.0
C      1  0.4686790000000  0.4573740000000  0.4575980000000 1.0
C      1  0.4610200000000  0.4877210000000  0.5573100000000 1.0
C      1  0.5110650000000  0.5510750000000  0.4739680000000 1.0
C      1  0.4874550000000  0.4404800000000  0.4726680000000 1.0
C      1  0.5257380000000  0.4942180000000  0.5378610000000 1.0
C      1  0.5427230000000  0.4783610000000  0.4649470000000 1.0
C      1  0.5146780000000  0.4532950000000  0.5405190000000 1.0
C      1  0.4852510000000  0.4676470000000  0.4360840000000 1.0
C      1  0.5117840000000  0.4544830000000  0.4365110000000 1.0
C      1  0.4464880000000  0.4784230000000  0.4994520000000 1.0
C      1  0.5065390000000  0.5643680000000  0.5278310000000 1.0
C      1  0.4708400000000  0.4652240000000  0.5447880000000 1.0
C      1  0.5094900000000  0.5344900000000  0.5635440000000 1.0
C      1  0.5074400000000  0.4982810000000  0.5158100000000 1.0
C      1  0.5237180000000  0.4801710000000  0.4435150000000 1.0
C      1  0.5444600000000  0.5396050000000  0.5402980000000 1.0
C      1  0.4920730000000  0.4772830000000  0.5042390000000 1.0
C      1  0.4948410000000  0.4516440000000  0.4967330000000 1.0
C      1  0.4857210000000  0.5390260000000  0.4671020000000 1.0
C      1  0.4614470000000  0.5142240000000  0.5502770000000 1.0
C      1  0.5427090000000  0.5380010000000  0.5114660000000 1.0
C      1  0.4630740000000  0.5423500000000  0.4857010000000 1.0
C      1  0.4984550000000  0.5222370000000  0.5084090000000 1.0
C      1  0.4802810000000  0.5148480000000  0.4509070000000 1.0
C      1  0.5367600000000  0.4672110000000  0.5316890000000 1.0
C      1  0.4816670000000  0.5359250000000  0.5551130000000 1.0
C      1  0.5230410000000  0.5569310000000  0.5495220000000 1.0
C      1  0.4452980000000  0.5208290000000  0.4807000000000 1.0
C      1  0.4548020000000  0.5036540000000  0.4605600000000 1.0
C      1  0.5441820000000  0.4524080000000  0.4806310000000 1.0
C      1  0.4390990000000  0.5062800000000  0.5041810000000 1.0
C      1  0.4487020000000  0.5227620000000  0.5255810000000 1.0
C      1  0.5544730000000  0.5370330000000  0.4667830000000 1.0
C      1  0.5352680000000  0.4288790000000  0.4703500000000 1.0
C      1  0.4521760000000  0.4762590000000  0.4702940000000 1.0
C      1  0.5115990000000  0.4356440000000  0.4575840000000 1.0
C      1  0.5486800000000  0.4682420000000  0.5048960000000 1.0
C      1  0.5549530000000  0.5211750000000  0.4908840000000 1.0
C      1  0.5351130000000  0.5518280000000  0.4590790000000 1.0
C      1  0.4931390000000  0.4480320000000  0.5528930000000 1.0
C      1  0.4798830000000  0.5557990000000  0.5339840000000 1.0
END
