TITL C-121219-6184-4 -430.801249297452 125000 -702.38094871399 0 0 100 (C1) n - 1
REM
REM in /rds/project/t2_vol4/rds-t2-cs072/BORA/CARBON/from-Arr/AIRSS/Generating-Clusters/GAP-ML-2020/Only-C1/SD-CG/HFTN-CG
REM
REM
REM
REM
REM
REM ./C.cell (11c1c37f851c82e70ff6c80c92926a4b)
REM AIRSS Version 0.9.1 bugfix July 2018 build 013d7b7c2542+ Fri, 06 Jul 2018 19:26:36 +0100
REM compiler GCC version 9.3.0
REM options -cpp -mtune=generic -march=x86-64 -g -O0
REM seed 2088368831 -293642309 646904144 -632020445 -250819700 2129108332 -583597898 1751854310 717354689 2057956847 1907697945 204575452 90399388 830175838 1491835939 789205374 262181499 573343778 -1653357501 245290724 904335170 194742584 908455752 1711376382 1469847540 1196927618 -750728030 -104649087 2124365159 265559136 -774253376 -1647289157 -2035120540
REM
CELL 1.54180   50.00000   50.00000   50.00000   90.00000   90.00000   90.00000
LATT -1
SFAC C  
C      1  0.4684150000000  0.5616320000000  0.5518600000000 1.0
C      1  0.5507300000000  0.5432370000000  0.4428890000000 1.0
C      1  0.4327380000000  0.5321130000000  0.5307160000000 1.0
C      1  0.4242540000000  0.4725220000000  0.5423880000000 1.0
C      1  0.5634740000000  0.5170440000000  0.4393920000000 1.0
C      1  0.5578800000000  0.4425160000000  0.4726290000000 1.0
C      1  0.4820640000000  0.5167730000000  0.5367150000000 1.0
C      1  0.4951900000000  0.4594870000000  0.5669910000000 1.0
C      1  0.5793050000000  0.5507890000000  0.5092430000000 1.0
C      1  0.4804750000000  0.5632150000000  0.5015410000000 1.0
C      1  0.4859800000000  0.5163950000000  0.4903340000000 1.0
C      1  0.5665650000000  0.5476000000000  0.4665480000000 1.0
C      1  0.4835070000000  0.5280010000000  0.4292050000000 1.0
C      1  0.4451840000000  0.5212540000000  0.4530230000000 1.0
C      1  0.4791590000000  0.5512680000000  0.4454490000000 1.0
C      1  0.4913500000000  0.5343360000000  0.5131770000000 1.0
C      1  0.4344840000000  0.4421620000000  0.4770660000000 1.0
C      1  0.5044950000000  0.5859650000000  0.5366930000000 1.0
C      1  0.4157720000000  0.4645250000000  0.4783810000000 1.0
C      1  0.4214760000000  0.5118580000000  0.4667860000000 1.0
C      1  0.5271970000000  0.5143070000000  0.5745730000000 1.0
C      1  0.5304800000000  0.5642830000000  0.5008670000000 1.0
C      1  0.4662370000000  0.5067970000000  0.4390830000000 1.0
C      1  0.5431740000000  0.4461860000000  0.4474300000000 1.0
C      1  0.5919070000000  0.5238200000000  0.5071620000000 1.0
C      1  0.4835570000000  0.4713980000000  0.4775330000000 1.0
C      1  0.5576120000000  0.4706280000000  0.4415820000000 1.0
C      1  0.5122350000000  0.5719410000000  0.5613060000000 1.0
C      1  0.5112380000000  0.5271630000000  0.4223730000000 1.0
C      1  0.5281610000000  0.4261740000000  0.5072990000000 1.0
C      1  0.5063370000000  0.4802930000000  0.4104600000000 1.0
C      1  0.5037460000000  0.4219280000000  0.4585910000000 1.0
C      1  0.5305460000000  0.5810260000000  0.5259880000000 1.0
C      1  0.4055800000000  0.4887010000000  0.5243170000000 1.0
C      1  0.4612300000000  0.4591200000000  0.4087510000000 1.0
C      1  0.5702440000000  0.5024410000000  0.5500480000000 1.0
C      1  0.5876310000000  0.5192880000000  0.5351240000000 1.0
C      1  0.4831710000000  0.4700360000000  0.3995290000000 1.0
C      1  0.4667860000000  0.4271310000000  0.5110500000000 1.0
C      1  0.4443200000000  0.5457240000000  0.5554630000000 1.0
C      1  0.5036670000000  0.5621450000000  0.4552840000000 1.0
C      1  0.5232540000000  0.4960370000000  0.4746730000000 1.0
C      1  0.5155360000000  0.4415430000000  0.4419980000000 1.0
C      1  0.4494400000000  0.4846050000000  0.5520390000000 1.0
C      1  0.5413510000000  0.4668670000000  0.5613740000000 1.0
C      1  0.5278050000000  0.4865390000000  0.5794000000000 1.0
C      1  0.5241930000000  0.5025740000000  0.4153520000000 1.0
C      1  0.4757190000000  0.4664750000000  0.5445390000000 1.0
C      1  0.5729400000000  0.4663730000000  0.4663580000000 1.0
C      1  0.5797490000000  0.5209550000000  0.4630270000000 1.0
C      1  0.5630810000000  0.4747690000000  0.5425330000000 1.0
C      1  0.5536220000000  0.4403510000000  0.5008140000000 1.0
C      1  0.5191780000000  0.4497740000000  0.5552650000000 1.0
C      1  0.5017150000000  0.4656010000000  0.4342480000000 1.0
C      1  0.4340750000000  0.5445330000000  0.5028780000000 1.0
C      1  0.5498400000000  0.4952830000000  0.4278870000000 1.0
C      1  0.4581670000000  0.4559300000000  0.4363440000000 1.0
C      1  0.4543620000000  0.5566500000000  0.4878700000000 1.0
C      1  0.5053730000000  0.5694560000000  0.4830700000000 1.0
C      1  0.4159100000000  0.5253270000000  0.4920620000000 1.0
C      1  0.4091020000000  0.5154180000000  0.5183510000000 1.0
C      1  0.4977090000000  0.5238340000000  0.5679230000000 1.0
C      1  0.5103630000000  0.4171830000000  0.4870230000000 1.0
C      1  0.5119890000000  0.4409170000000  0.5281270000000 1.0
C      1  0.5392240000000  0.5693700000000  0.5523090000000 1.0
C      1  0.4751870000000  0.4198720000000  0.4634680000000 1.0
C      1  0.4817770000000  0.4146980000000  0.4908560000000 1.0
C      1  0.5787720000000  0.5473510000000  0.5378190000000 1.0
C      1  0.4793050000000  0.5769670000000  0.5286550000000 1.0
C      1  0.5112580000000  0.4707050000000  0.4837390000000 1.0
C      1  0.4748490000000  0.4903120000000  0.4981910000000 1.0
C      1  0.5524290000000  0.5218510000000  0.5648590000000 1.0
C      1  0.4559770000000  0.5472270000000  0.4607470000000 1.0
C      1  0.5677260000000  0.4638510000000  0.5144210000000 1.0
C      1  0.5325010000000  0.5135540000000  0.5156090000000 1.0
C      1  0.5425590000000  0.5061840000000  0.4914000000000 1.0
C      1  0.4520240000000  0.5091870000000  0.5325070000000 1.0
C      1  0.5236220000000  0.5480940000000  0.4379410000000 1.0
C      1  0.5183800000000  0.4905770000000  0.5264680000000 1.0
C      1  0.4765820000000  0.4766740000000  0.4483250000000 1.0
C      1  0.4915040000000  0.5533440000000  0.5672800000000 1.0
C      1  0.5042030000000  0.5154520000000  0.4699330000000 1.0
C      1  0.5199210000000  0.5385570000000  0.5162740000000 1.0
C      1  0.4488270000000  0.4946920000000  0.5060790000000 1.0
C      1  0.5582070000000  0.5490360000000  0.5565900000000 1.0
C      1  0.4550840000000  0.5015270000000  0.5770520000000 1.0
C      1  0.4408320000000  0.4367770000000  0.5044310000000 1.0
C      1  0.4902060000000  0.4894430000000  0.5276510000000 1.0
C      1  0.5594420000000  0.5595730000000  0.4910460000000 1.0
C      1  0.4132270000000  0.4864230000000  0.4629910000000 1.0
C      1  0.5890850000000  0.5061160000000  0.4860530000000 1.0
C      1  0.5807530000000  0.4783120000000  0.4909960000000 1.0
C      1  0.4829550000000  0.5029880000000  0.5833390000000 1.0
C      1  0.4479360000000  0.5279160000000  0.5760780000000 1.0
C      1  0.5183190000000  0.4670440000000  0.5115000000000 1.0
C      1  0.4068420000000  0.4679340000000  0.5050950000000 1.0
C      1  0.4818130000000  0.4408940000000  0.5299300000000 1.0
C      1  0.5000920000000  0.4803680000000  0.5847410000000 1.0
C      1  0.4519620000000  0.4348520000000  0.4555680000000 1.0
C      1  0.4245880000000  0.4520680000000  0.5220650000000 1.0
END
