TITL C-121231-6115-1 21.1244877582741 125000 -663.286586437923 0 0 98 (C1) n - 1
REM
REM in /rds/project/t2_vol4/rds-t2-cs072/BORA/CARBON/from-Arr/AIRSS/Generating-Clusters/GAP-ML-2020/Only-C1/SD-CG/HFTN-CG
REM
REM
REM
REM
REM
REM ./C.cell (11c1c37f851c82e70ff6c80c92926a4b)
REM AIRSS Version 0.9.1 bugfix July 2018 build 013d7b7c2542+ Fri, 06 Jul 2018 19:26:36 +0100
REM compiler GCC version 9.3.0
REM options -cpp -mtune=generic -march=x86-64 -g -O0
REM seed 799267156 -272289581 -1706802895 1719978514 82666231 -19701302 1675742962 -220793815 54390854 1752512254 -1826805394 1378090309 -459663743 1996055133 -1596715712 -1538821040 -445850691 -400619377 1721278297 -133005883 -1980013154 -2038109778 1927244532 761210341 2005825031 851246685 -562044924 87625243 -720199731 1820838330 -10459552 -35272962 -108143936
REM
CELL 1.54180   50.00000   50.00000   50.00000   90.00000   90.00000   90.00000
LATT -1
SFAC C  
C      1  0.4379990000000  0.5071560000000  0.4409480000000 1.0
C      1  0.5604700000000  0.4697000000000  0.4559180000000 1.0
C      1  0.5242470000000  0.4376180000000  0.4706850000000 1.0
C      1  0.5121510000000  0.4612540000000  0.5095590000000 1.0
C      1  0.4625540000000  0.5812060000000  0.4934520000000 1.0
C      1  0.5411510000000  0.5536180000000  0.4842130000000 1.0
C      1  0.4818590000000  0.4294920000000  0.4897990000000 1.0
C      1  0.5252510000000  0.5642240000000  0.4605480000000 1.0
C      1  0.4800930000000  0.4992830000000  0.4246890000000 1.0
C      1  0.4775010000000  0.4778570000000  0.5412780000000 1.0
C      1  0.4195160000000  0.5055960000000  0.4991480000000 1.0
C      1  0.5124020000000  0.5557400000000  0.5547470000000 1.0
C      1  0.4954980000000  0.5347670000000  0.4864950000000 1.0
C      1  0.4966930000000  0.4262140000000  0.5430430000000 1.0
C      1  0.4849420000000  0.5015430000000  0.4568980000000 1.0
C      1  0.4636280000000  0.5156630000000  0.5703530000000 1.0
C      1  0.4336120000000  0.4884330000000  0.5406960000000 1.0
C      1  0.4902850000000  0.5868810000000  0.4898290000000 1.0
C      1  0.4707050000000  0.4980940000000  0.5000370000000 1.0
C      1  0.4500330000000  0.5333110000000  0.4349370000000 1.0
C      1  0.5005770000000  0.5783830000000  0.4640310000000 1.0
C      1  0.4833890000000  0.5050360000000  0.5493030000000 1.0
C      1  0.4666230000000  0.4742780000000  0.5138820000000 1.0
C      1  0.5631220000000  0.5256380000000  0.4447120000000 1.0
C      1  0.5057340000000  0.5778830000000  0.5132110000000 1.0
C      1  0.5073910000000  0.5144100000000  0.5881030000000 1.0
C      1  0.5286440000000  0.4975740000000  0.4250010000000 1.0
C      1  0.5639240000000  0.4484350000000  0.5332920000000 1.0
C      1  0.4606600000000  0.5089750000000  0.4748700000000 1.0
C      1  0.4964230000000  0.4267330000000  0.4640650000000 1.0
C      1  0.5159010000000  0.5504840000000  0.5030760000000 1.0
C      1  0.5387680000000  0.5672560000000  0.5479270000000 1.0
C      1  0.4861330000000  0.4623910000000  0.4940220000000 1.0
C      1  0.5120800000000  0.4721480000000  0.5824580000000 1.0
C      1  0.4717790000000  0.4156470000000  0.5509490000000 1.0
C      1  0.4715340000000  0.5423240000000  0.5722820000000 1.0
C      1  0.4958480000000  0.5106850000000  0.5048030000000 1.0
C      1  0.4319440000000  0.5008480000000  0.4688600000000 1.0
C      1  0.5251880000000  0.4339980000000  0.5018230000000 1.0
C      1  0.5664580000000  0.5218870000000  0.5431350000000 1.0
C      1  0.5186040000000  0.5421130000000  0.4402830000000 1.0
C      1  0.5537590000000  0.5647960000000  0.5097610000000 1.0
C      1  0.4495540000000  0.4197490000000  0.5376090000000 1.0
C      1  0.5066910000000  0.5214710000000  0.4626070000000 1.0
C      1  0.5440730000000  0.4543630000000  0.5517780000000 1.0
C      1  0.5156300000000  0.4480850000000  0.5584360000000 1.0
C      1  0.5796160000000  0.4846090000000  0.4714420000000 1.0
C      1  0.5006420000000  0.4240770000000  0.5139870000000 1.0
C      1  0.5701230000000  0.4422770000000  0.4889430000000 1.0
C      1  0.4632560000000  0.4598640000000  0.4483520000000 1.0
C      1  0.4931360000000  0.5491650000000  0.4275460000000 1.0
C      1  0.4620150000000  0.4907550000000  0.5846710000000 1.0
C      1  0.5238210000000  0.5005760000000  0.4975430000000 1.0
C      1  0.4551450000000  0.4849620000000  0.4307960000000 1.0
C      1  0.5153630000000  0.5383650000000  0.5307630000000 1.0
C      1  0.5599090000000  0.5490330000000  0.5349130000000 1.0
C      1  0.5354380000000  0.4756180000000  0.5002090000000 1.0
C      1  0.5158080000000  0.4630740000000  0.4547800000000 1.0
C      1  0.5393160000000  0.5242500000000  0.4282120000000 1.0
C      1  0.4523530000000  0.4785170000000  0.5603130000000 1.0
C      1  0.4648150000000  0.5545750000000  0.5463910000000 1.0
C      1  0.4889340000000  0.4734710000000  0.4655990000000 1.0
C      1  0.4996310000000  0.5404340000000  0.5774080000000 1.0
C      1  0.5490870000000  0.5049690000000  0.5611960000000 1.0
C      1  0.4657800000000  0.5377100000000  0.4804200000000 1.0
C      1  0.4431320000000  0.5720290000000  0.4766280000000 1.0
C      1  0.4523920000000  0.4328290000000  0.4900980000000 1.0
C      1  0.4960600000000  0.5192930000000  0.5308700000000 1.0
C      1  0.4839490000000  0.4404610000000  0.4392820000000 1.0
C      1  0.5539170000000  0.4440020000000  0.4662790000000 1.0
C      1  0.4899530000000  0.4883570000000  0.5909290000000 1.0
C      1  0.4566400000000  0.5555880000000  0.4553460000000 1.0
C      1  0.4172400000000  0.4772390000000  0.5002350000000 1.0
C      1  0.4445260000000  0.5429030000000  0.5273560000000 1.0
C      1  0.4305260000000  0.5153060000000  0.5242520000000 1.0
C      1  0.5532680000000  0.5281940000000  0.4724640000000 1.0
C      1  0.4900260000000  0.5678910000000  0.5388250000000 1.0
C      1  0.5314060000000  0.5078710000000  0.4712940000000 1.0
C      1  0.4416670000000  0.4370400000000  0.5171200000000 1.0
C      1  0.5737050000000  0.5005570000000  0.5249300000000 1.0
C      1  0.5463230000000  0.4925180000000  0.5199160000000 1.0
C      1  0.4814950000000  0.5681040000000  0.4450380000000 1.0
C      1  0.5362490000000  0.4845300000000  0.4502770000000 1.0
C      1  0.4347060000000  0.4667820000000  0.5198570000000 1.0
C      1  0.5074490000000  0.4696450000000  0.5382660000000 1.0
C      1  0.5839400000000  0.4673320000000  0.4941450000000 1.0
C      1  0.5784360000000  0.5129040000000  0.4644090000000 1.0
C      1  0.5361390000000  0.4839990000000  0.5451040000000 1.0
C      1  0.5042840000000  0.4849110000000  0.4169350000000 1.0
C      1  0.4502460000000  0.5541030000000  0.5008110000000 1.0
C      1  0.4440270000000  0.4508120000000  0.4689120000000 1.0
C      1  0.5040420000000  0.4579580000000  0.4278760000000 1.0
C      1  0.5343840000000  0.5819900000000  0.5236760000000 1.0
C      1  0.5544570000000  0.4341950000000  0.5107060000000 1.0
C      1  0.4259440000000  0.4716470000000  0.4738290000000 1.0
C      1  0.5806500000000  0.4730460000000  0.5223410000000 1.0
C      1  0.5294960000000  0.4976960000000  0.5798720000000 1.0
C      1  0.4741200000000  0.5287270000000  0.4210890000000 1.0
END
