TITL C-121218-6135-5 -13.1850889180924 125000 -344.875471073008 0 0 51 (C1) n - 1
REM
REM in /rds/project/t2_vol4/rds-t2-cs072/BORA/CARBON/from-Arr/AIRSS/Generating-Clusters/GAP-ML-2020/Only-C1/SD-CG/HFTN-CG
REM
REM
REM
REM
REM
REM ./C.cell (11c1c37f851c82e70ff6c80c92926a4b)
REM AIRSS Version 0.9.1 bugfix July 2018 build 013d7b7c2542+ Fri, 06 Jul 2018 19:26:36 +0100
REM compiler GCC version 9.3.0
REM options -cpp -mtune=generic -march=x86-64 -g -O0
REM seed 914127558 -483213246 238791813 1456542421 -1982121904 647738431 -1493348086 -1979372561 -47777237 1423038956 -685178136 1807379845 -493511058 -1871099515 747684635 675220624 -432361668 -542414995 -508985240 -1157135670 -341516703 -1411049559 -1247810954 -311200578 -959377967 -1484892427 1240992305 -1396201787 -912718923 1920262863 -759319606 -317277185 112496127
REM
CELL 1.54180   50.00000   50.00000   50.00000   90.00000   90.00000   90.00000
LATT -1
SFAC C  
C      1  0.5506800000000  0.4461510000000  0.5200580000000 1.0
C      1  0.5457550000000  0.4954250000000  0.4836700000000 1.0
C      1  0.4988390000000  0.4689150000000  0.4514510000000 1.0
C      1  0.5280310000000  0.5050060000000  0.4386120000000 1.0
C      1  0.5496470000000  0.5238600000000  0.4754930000000 1.0
C      1  0.4736460000000  0.4488640000000  0.5151210000000 1.0
C      1  0.5146630000000  0.4951760000000  0.4918780000000 1.0
C      1  0.4890520000000  0.5454730000000  0.4532330000000 1.0
C      1  0.5284670000000  0.5058940000000  0.5595880000000 1.0
C      1  0.4841150000000  0.5005490000000  0.5578630000000 1.0
C      1  0.5498580000000  0.5382080000000  0.4994730000000 1.0
C      1  0.5562080000000  0.5201550000000  0.5215970000000 1.0
C      1  0.4680490000000  0.5590380000000  0.5311400000000 1.0
C      1  0.4835720000000  0.5160960000000  0.4548360000000 1.0
C      1  0.5589230000000  0.4941630000000  0.5105640000000 1.0
C      1  0.4631950000000  0.4532200000000  0.4888210000000 1.0
C      1  0.4793190000000  0.5549450000000  0.4785260000000 1.0
C      1  0.5262660000000  0.5517970000000  0.5058660000000 1.0
C      1  0.4931210000000  0.5135040000000  0.4868380000000 1.0
C      1  0.4526390000000  0.4809360000000  0.4589710000000 1.0
C      1  0.4913350000000  0.5414590000000  0.5285010000000 1.0
C      1  0.4736400000000  0.4615080000000  0.4618590000000 1.0
C      1  0.5250980000000  0.4396050000000  0.5082550000000 1.0
C      1  0.5128850000000  0.4993920000000  0.5198720000000 1.0
C      1  0.5245010000000  0.4391870000000  0.4809080000000 1.0
C      1  0.5052820000000  0.5090930000000  0.5729390000000 1.0
C      1  0.5012680000000  0.4449970000000  0.5240140000000 1.0
C      1  0.5013400000000  0.4962410000000  0.4425610000000 1.0
C      1  0.4445980000000  0.5210910000000  0.4825310000000 1.0
C      1  0.4431410000000  0.4734860000000  0.4846340000000 1.0
C      1  0.4492240000000  0.5614020000000  0.5135920000000 1.0
C      1  0.4332430000000  0.4668290000000  0.5399050000000 1.0
C      1  0.5511330000000  0.4721050000000  0.5276260000000 1.0
C      1  0.4336680000000  0.4891280000000  0.5271400000000 1.0
C      1  0.5059380000000  0.4617680000000  0.5462470000000 1.0
C      1  0.5386840000000  0.5274460000000  0.5438520000000 1.0
C      1  0.5157280000000  0.5496390000000  0.4504190000000 1.0
C      1  0.5339960000000  0.5302230000000  0.4525660000000 1.0
C      1  0.5236360000000  0.4572510000000  0.4611990000000 1.0
C      1  0.5456650000000  0.4771230000000  0.4600180000000 1.0
C      1  0.5207040000000  0.5469840000000  0.5337080000000 1.0
C      1  0.5495430000000  0.4882500000000  0.4358220000000 1.0
C      1  0.4812630000000  0.4723160000000  0.5549660000000 1.0
C      1  0.4535210000000  0.5472320000000  0.4888950000000 1.0
C      1  0.4869450000000  0.5114080000000  0.5304350000000 1.0
C      1  0.4560840000000  0.5087150000000  0.4585920000000 1.0
C      1  0.5280290000000  0.4811340000000  0.5429340000000 1.0
C      1  0.4608620000000  0.4617790000000  0.5378100000000 1.0
C      1  0.4431650000000  0.4975390000000  0.5013410000000 1.0
C      1  0.4991530000000  0.5432690000000  0.4971090000000 1.0
C      1  0.4726860000000  0.5050290000000  0.5061480000000 1.0
END
