TITL C-120590-4561-3 0.0978674662370691 125000 -541.854927305093 0 0 80 (C1) n - 1
REM
REM in /rds/project/t2_vol4/rds-t2-cs072/BORA/CARBON/from-Arr/AIRSS/Generating-Clusters/GAP-ML-2020/Only-C1/SD-CG/HFTN-CG
REM
REM
REM
REM
REM
REM ./C.cell (11c1c37f851c82e70ff6c80c92926a4b)
REM AIRSS Version 0.9.1 bugfix July 2018 build 013d7b7c2542+ Fri, 06 Jul 2018 19:26:36 +0100
REM compiler GCC version 9.3.0
REM options -cpp -mtune=generic -march=x86-64 -g -O0
REM seed 2073795696 -1567795954 -832225643 -642624635 1057211933 1510142417 1829418534 -858750634 855869349 -542234128 1119533018 829826019 266125008 -246877093 968385295 1038814510 1812229509 -804349431 524153315 1972323656 197694348 -669759779 844904269 1937015589 -916716740 1199532467 635168471 1863361316 955742383 1816206430 2127239733 765678667 -1305903055
REM
CELL 1.54180   50.00000   50.00000   50.00000   90.00000   90.00000   90.00000
LATT -1
SFAC C  
C      1  0.4857960000000  0.4939310000000  0.5707460000000 1.0
C      1  0.4289720000000  0.5349280000000  0.4691760000000 1.0
C      1  0.4675310000000  0.5105620000000  0.4862890000000 1.0
C      1  0.4395430000000  0.4783000000000  0.5488430000000 1.0
C      1  0.4431400000000  0.4511180000000  0.5472810000000 1.0
C      1  0.4948080000000  0.5545350000000  0.4356600000000 1.0
C      1  0.5416420000000  0.4817220000000  0.5352710000000 1.0
C      1  0.4834550000000  0.4858130000000  0.4942240000000 1.0
C      1  0.5306440000000  0.5511340000000  0.5585180000000 1.0
C      1  0.4962880000000  0.5101680000000  0.4472820000000 1.0
C      1  0.5485790000000  0.5280630000000  0.4592250000000 1.0
C      1  0.4724130000000  0.4770450000000  0.5215820000000 1.0
C      1  0.4877000000000  0.4945460000000  0.5398060000000 1.0
C      1  0.4962940000000  0.5664630000000  0.5278430000000 1.0
C      1  0.5434500000000  0.5365900000000  0.5072980000000 1.0
C      1  0.5617460000000  0.5146500000000  0.5032870000000 1.0
C      1  0.5943410000000  0.4789490000000  0.4882570000000 1.0
C      1  0.5398590000000  0.4278130000000  0.4569470000000 1.0
C      1  0.5119220000000  0.4279150000000  0.4577300000000 1.0
C      1  0.5283330000000  0.4868200000000  0.4787720000000 1.0
C      1  0.4332550000000  0.4759780000000  0.4940370000000 1.0
C      1  0.4441800000000  0.4883510000000  0.5196690000000 1.0
C      1  0.4428850000000  0.5591200000000  0.4767430000000 1.0
C      1  0.5348670000000  0.4870250000000  0.5636460000000 1.0
C      1  0.4672560000000  0.5175730000000  0.4405950000000 1.0
C      1  0.4985150000000  0.4397040000000  0.4342720000000 1.0
C      1  0.5538860000000  0.4427260000000  0.4787770000000 1.0
C      1  0.4603280000000  0.4370100000000  0.5018250000000 1.0
C      1  0.4925020000000  0.4317780000000  0.5278420000000 1.0
C      1  0.5398740000000  0.5463450000000  0.4789450000000 1.0
C      1  0.5161060000000  0.4985270000000  0.5317960000000 1.0
C      1  0.4440520000000  0.5207630000000  0.5684450000000 1.0
C      1  0.4538930000000  0.5637210000000  0.5036980000000 1.0
C      1  0.4535400000000  0.4949380000000  0.5674580000000 1.0
C      1  0.4654640000000  0.4465460000000  0.5291740000000 1.0
C      1  0.4592980000000  0.5652640000000  0.4545920000000 1.0
C      1  0.4464940000000  0.4530970000000  0.4835700000000 1.0
C      1  0.4442670000000  0.5440380000000  0.5214970000000 1.0
C      1  0.5119120000000  0.4503230000000  0.5628100000000 1.0
C      1  0.5398640000000  0.5328870000000  0.4335950000000 1.0
C      1  0.5446840000000  0.4514980000000  0.4387270000000 1.0
C      1  0.5122640000000  0.5325050000000  0.4333830000000 1.0
C      1  0.5777490000000  0.4717490000000  0.5079100000000 1.0
C      1  0.5650570000000  0.4935530000000  0.5220210000000 1.0
C      1  0.4873650000000  0.5736070000000  0.4567170000000 1.0
C      1  0.5520200000000  0.5327950000000  0.5556260000000 1.0
C      1  0.5177940000000  0.4617830000000  0.4334770000000 1.0
C      1  0.4520540000000  0.5372770000000  0.5489920000000 1.0
C      1  0.4987850000000  0.5787140000000  0.4819610000000 1.0
C      1  0.4082730000000  0.5168760000000  0.4713290000000 1.0
C      1  0.5225810000000  0.5702980000000  0.5386440000000 1.0
C      1  0.5047240000000  0.4443700000000  0.4814840000000 1.0
C      1  0.4749450000000  0.5214790000000  0.5331170000000 1.0
C      1  0.4709730000000  0.4432360000000  0.4370730000000 1.0
C      1  0.4813030000000  0.5752550000000  0.5053300000000 1.0
C      1  0.4951710000000  0.5192040000000  0.5800660000000 1.0
C      1  0.4675980000000  0.5448610000000  0.4348380000000 1.0
C      1  0.4632160000000  0.4556490000000  0.4597050000000 1.0
C      1  0.4488340000000  0.5116600000000  0.4633600000000 1.0
C      1  0.5356350000000  0.5660530000000  0.5145630000000 1.0
C      1  0.5109960000000  0.4743810000000  0.5738140000000 1.0
C      1  0.4877280000000  0.4285430000000  0.5001770000000 1.0
C      1  0.5184190000000  0.5314710000000  0.5779750000000 1.0
C      1  0.5297460000000  0.4590030000000  0.4912840000000 1.0
C      1  0.5257680000000  0.5695660000000  0.4874740000000 1.0
C      1  0.5625020000000  0.4474250000000  0.5067380000000 1.0
C      1  0.5092630000000  0.5028960000000  0.4947710000000 1.0
C      1  0.5173720000000  0.4397550000000  0.5384080000000 1.0
C      1  0.5651350000000  0.4601210000000  0.4566480000000 1.0
C      1  0.4932380000000  0.5213280000000  0.4760440000000 1.0
C      1  0.4961140000000  0.5382550000000  0.5257510000000 1.0
C      1  0.5378880000000  0.4549920000000  0.5215690000000 1.0
C      1  0.4249810000000  0.4944480000000  0.4740470000000 1.0
C      1  0.5411320000000  0.5126710000000  0.5722880000000 1.0
C      1  0.5554250000000  0.5033890000000  0.4753550000000 1.0
C      1  0.5761050000000  0.4834140000000  0.4681070000000 1.0
C      1  0.5180480000000  0.5222660000000  0.5167290000000 1.0
C      1  0.4532780000000  0.5165710000000  0.5122590000000 1.0
C      1  0.4884430000000  0.4679110000000  0.4713340000000 1.0
C      1  0.5084990000000  0.4823890000000  0.4538820000000 1.0
END
