TITL C-121983-4401-5 -0.156446589042418 125000 -504.848308104978 0 0 74 (C1) n - 1
REM
REM in /rds/project/t2_vol4/rds-t2-cs072/BORA/CARBON/from-Arr/AIRSS/Generating-Clusters/GAP-ML-2020/Only-C1/SD-CG/HFTN-CG
REM
REM
REM
REM
REM
REM ./C.cell (11c1c37f851c82e70ff6c80c92926a4b)
REM AIRSS Version 0.9.1 bugfix July 2018 build 013d7b7c2542+ Fri, 06 Jul 2018 19:26:36 +0100
REM compiler GCC version 9.3.0
REM options -cpp -mtune=generic -march=x86-64 -g -O0
REM seed 1452078423 -639517654 1721261014 -1518443074 -1596142803 -503546307 -1288501374 -94735873 520662430 -1848233812 -2092774387 1169241158 -1402939921 -934066677 -1351188610 621606895 2047016569 -183244610 -1610006253 -1378250935 1109428320 -113580815 1070636328 -847760304 1414892398 1653230170 -1324014428 -244680499 -1333075930 -1799620762 207832721 1719606896 -144234804
REM
CELL 1.54180   50.00000   50.00000   50.00000   90.00000   90.00000   90.00000
LATT -1
SFAC C  
C      1  0.4993120000000  0.5640700000000  0.5424760000000 1.0
C      1  0.4829700000000  0.4144020000000  0.5093620000000 1.0
C      1  0.4249050000000  0.5221670000000  0.5209640000000 1.0
C      1  0.5413930000000  0.4552420000000  0.5017920000000 1.0
C      1  0.4883760000000  0.5543660000000  0.4527150000000 1.0
C      1  0.5651730000000  0.4769900000000  0.5407370000000 1.0
C      1  0.4719900000000  0.5901090000000  0.4828010000000 1.0
C      1  0.5720790000000  0.5315820000000  0.4848520000000 1.0
C      1  0.4660640000000  0.5444480000000  0.5177160000000 1.0
C      1  0.4713320000000  0.4988130000000  0.4436150000000 1.0
C      1  0.4421010000000  0.5357960000000  0.5017870000000 1.0
C      1  0.5205970000000  0.5494120000000  0.5482130000000 1.0
C      1  0.4868000000000  0.5787490000000  0.5019330000000 1.0
C      1  0.4774270000000  0.5694820000000  0.5281680000000 1.0
C      1  0.5078830000000  0.5241880000000  0.5520410000000 1.0
C      1  0.4778470000000  0.5064480000000  0.4923980000000 1.0
C      1  0.5498390000000  0.4716870000000  0.4510110000000 1.0
C      1  0.5642480000000  0.5268210000000  0.5337870000000 1.0
C      1  0.5370460000000  0.5561740000000  0.5037400000000 1.0
C      1  0.4765420000000  0.4400130000000  0.5514530000000 1.0
C      1  0.5189310000000  0.4272680000000  0.5346480000000 1.0
C      1  0.5337820000000  0.5141460000000  0.4416090000000 1.0
C      1  0.4829830000000  0.4911490000000  0.5189880000000 1.0
C      1  0.4656650000000  0.5670830000000  0.4679800000000 1.0
C      1  0.4755140000000  0.5240270000000  0.4239690000000 1.0
C      1  0.5782290000000  0.5191970000000  0.5104120000000 1.0
C      1  0.4475700000000  0.5104550000000  0.4582140000000 1.0
C      1  0.4384490000000  0.4591450000000  0.4955850000000 1.0
C      1  0.5273720000000  0.5388520000000  0.4303480000000 1.0
C      1  0.5437910000000  0.5474940000000  0.5298190000000 1.0
C      1  0.4695980000000  0.4924230000000  0.5484370000000 1.0
C      1  0.5455080000000  0.4664520000000  0.5594940000000 1.0
C      1  0.5213880000000  0.4688880000000  0.5201750000000 1.0
C      1  0.5350610000000  0.4999560000000  0.4851030000000 1.0
C      1  0.5045320000000  0.4247420000000  0.4922730000000 1.0
C      1  0.4608690000000  0.4458420000000  0.4783450000000 1.0
C      1  0.4425270000000  0.4402910000000  0.5171150000000 1.0
C      1  0.4656270000000  0.4701150000000  0.4352590000000 1.0
C      1  0.4961570000000  0.4575930000000  0.5623140000000 1.0
C      1  0.4325360000000  0.4855330000000  0.5004110000000 1.0
C      1  0.5336420000000  0.4697380000000  0.4750500000000 1.0
C      1  0.4508170000000  0.4507110000000  0.5421790000000 1.0
C      1  0.5610200000000  0.5041890000000  0.5508910000000 1.0
C      1  0.4902990000000  0.4513730000000  0.4851670000000 1.0
C      1  0.5527220000000  0.5509580000000  0.4798220000000 1.0
C      1  0.5049500000000  0.5126690000000  0.5243420000000 1.0
C      1  0.4585980000000  0.4237270000000  0.4999390000000 1.0
C      1  0.4929720000000  0.4966070000000  0.4664130000000 1.0
C      1  0.5282950000000  0.4982870000000  0.5141800000000 1.0
C      1  0.4976520000000  0.5413760000000  0.4285520000000 1.0
C      1  0.5280670000000  0.4286800000000  0.5072350000000 1.0
C      1  0.4897600000000  0.5322740000000  0.5066160000000 1.0
C      1  0.5396190000000  0.4934110000000  0.5683720000000 1.0
C      1  0.5228690000000  0.4528190000000  0.5488380000000 1.0
C      1  0.4450670000000  0.4791520000000  0.5456030000000 1.0
C      1  0.5169070000000  0.5142930000000  0.4662830000000 1.0
C      1  0.5078110000000  0.5561550000000  0.4962450000000 1.0
C      1  0.5644170000000  0.5052250000000  0.4749890000000 1.0
C      1  0.5101420000000  0.5466540000000  0.4689160000000 1.0
C      1  0.4419260000000  0.5514320000000  0.4733680000000 1.0
C      1  0.4913970000000  0.4202350000000  0.5358740000000 1.0
C      1  0.5126880000000  0.5021020000000  0.5691760000000 1.0
C      1  0.5052400000000  0.4695210000000  0.4694450000000 1.0
C      1  0.5363140000000  0.5518670000000  0.4558090000000 1.0
C      1  0.4485690000000  0.5079610000000  0.4868410000000 1.0
C      1  0.4901630000000  0.4842980000000  0.5676640000000 1.0
C      1  0.4590530000000  0.4494200000000  0.4483440000000 1.0
C      1  0.4506420000000  0.5386800000000  0.4246600000000 1.0
C      1  0.4378110000000  0.5354320000000  0.4487730000000 1.0
C      1  0.5659230000000  0.4703720000000  0.5132020000000 1.0
C      1  0.5570160000000  0.4976220000000  0.4461710000000 1.0
C      1  0.4280030000000  0.4949910000000  0.5269720000000 1.0
C      1  0.4931500000000  0.4643660000000  0.5131690000000 1.0
C      1  0.5764650000000  0.4917940000000  0.4988390000000 1.0
END
