TITL C-125549-2221-2 -160.595730723368 125000 -94.2887858969616 0 0 15 (C1) n - 1
REM
REM in /rds/project/t2_vol4/rds-t2-cs072/BORA/CARBON/from-Arr/AIRSS/Generating-Clusters/GAP-ML-2020/Only-C1/SD-CG/HFTN-CG
REM
REM
REM
REM
REM
REM ./C.cell (11c1c37f851c82e70ff6c80c92926a4b)
REM AIRSS Version 0.9.1 bugfix July 2018 build 013d7b7c2542+ Fri, 06 Jul 2018 19:26:36 +0100
REM compiler GCC version 9.3.0
REM options -cpp -mtune=generic -march=x86-64 -g -O0
REM seed 1172329296 164874323 1332063261 -1266336256 818872903 -443163313 1543601635 -2091790046 -201966698 -536760532 -1979077864 1285127420 909347523 1710537837 1927070714 -1607856921 583387195 1808281252 237704802 -1581073835 1940383935 1461560540 -480403947 -1605293754 -1112425427 1609262054 -1510687507 -1031450199 -985681973 -259330352 796999093 -1407609067 -1381708769
REM
CELL 1.54180   50.00000   50.00000   50.00000   90.00000   90.00000   90.00000
LATT -1
SFAC C  
C      1  0.4371080000000  0.5419680000000  0.5170430000000 1.0
C      1  0.5448810000000  0.4651610000000  0.5289140000000 1.0
C      1  0.5040810000000  0.5133500000000  0.4997400000000 1.0
C      1  0.5145200000000  0.4590530000000  0.4574430000000 1.0
C      1  0.5253170000000  0.4723920000000  0.4801640000000 1.0
C      1  0.4141510000000  0.5356670000000  0.5272240000000 1.0
C      1  0.5422750000000  0.4923890000000  0.5236170000000 1.0
C      1  0.4625480000000  0.5394880000000  0.5147490000000 1.0
C      1  0.4882550000000  0.5331910000000  0.5146850000000 1.0
C      1  0.5049930000000  0.4938320000000  0.4785580000000 1.0
C      1  0.4921060000000  0.4572670000000  0.4436700000000 1.0
C      1  0.5235590000000  0.5120270000000  0.5216430000000 1.0
C      1  0.5432180000000  0.4707680000000  0.5016670000000 1.0
C      1  0.4935580000000  0.4809060000000  0.4555430000000 1.0
C      1  0.5094300000000  0.5325420000000  0.5353400000000 1.0
END
