TITL C-121982-4448-9 0.0597674154765865 125000 -455.559201606495 0 0 67 (C1) n - 1
REM
REM in /rds/project/t2_vol4/rds-t2-cs072/BORA/CARBON/from-Arr/AIRSS/Generating-Clusters/GAP-ML-2020/Only-C1/SD-CG/HFTN-CG
REM
REM
REM
REM
REM
REM ./C.cell (11c1c37f851c82e70ff6c80c92926a4b)
REM AIRSS Version 0.9.1 bugfix July 2018 build 013d7b7c2542+ Fri, 06 Jul 2018 19:26:36 +0100
REM compiler GCC version 9.3.0
REM options -cpp -mtune=generic -march=x86-64 -g -O0
REM seed -1653155470 253357737 -534670484 97605112 1323886291 1933637555 -585968958 1880208453 -264824838 1079938378 918109732 1287973476 -1065217660 1220526224 774224407 -1064951726 -271762044 -594744725 -19689453 -644694555 -703455843 -2073836521 -480796844 328849174 2072503440 -1352017383 1384623181 -67737207 32738553 1239367568 -1874623238 -1998048082 -1650394439
REM
CELL 1.54180   50.00000   50.00000   50.00000   90.00000   90.00000   90.00000
LATT -1
SFAC C  
C      1  0.4501800000000  0.5312520000000  0.4369050000000 1.0
C      1  0.5338830000000  0.5479740000000  0.5501960000000 1.0
C      1  0.5156890000000  0.5131170000000  0.4875520000000 1.0
C      1  0.4930480000000  0.4930380000000  0.5786240000000 1.0
C      1  0.4694330000000  0.4992940000000  0.5634860000000 1.0
C      1  0.5083140000000  0.5697690000000  0.4497520000000 1.0
C      1  0.4715060000000  0.5590990000000  0.4756220000000 1.0
C      1  0.5369760000000  0.5237780000000  0.4406670000000 1.0
C      1  0.4914950000000  0.4807320000000  0.5177170000000 1.0
C      1  0.5258390000000  0.4466940000000  0.5368930000000 1.0
C      1  0.4960140000000  0.5467460000000  0.4390020000000 1.0
C      1  0.5363310000000  0.4875800000000  0.5619670000000 1.0
C      1  0.4725790000000  0.4744460000000  0.4926270000000 1.0
C      1  0.4661280000000  0.4998910000000  0.4800490000000 1.0
C      1  0.5187680000000  0.5644340000000  0.5311350000000 1.0
C      1  0.5539250000000  0.4451590000000  0.5259780000000 1.0
C      1  0.4465940000000  0.4666770000000  0.5073060000000 1.0
C      1  0.4470540000000  0.5047410000000  0.4327890000000 1.0
C      1  0.5001500000000  0.5078010000000  0.5116810000000 1.0
C      1  0.5540390000000  0.5023430000000  0.4356430000000 1.0
C      1  0.5596280000000  0.4905010000000  0.5437550000000 1.0
C      1  0.4949270000000  0.4670090000000  0.5666280000000 1.0
C      1  0.5221600000000  0.4625230000000  0.5607320000000 1.0
C      1  0.4293720000000  0.4914000000000  0.4522360000000 1.0
C      1  0.5040470000000  0.4393180000000  0.4790850000000 1.0
C      1  0.4553000000000  0.5570920000000  0.4987650000000 1.0
C      1  0.4370120000000  0.5046020000000  0.4765380000000 1.0
C      1  0.5361190000000  0.5547020000000  0.5099790000000 1.0
C      1  0.4367430000000  0.5363660000000  0.5121430000000 1.0
C      1  0.5097410000000  0.5225140000000  0.4329050000000 1.0
C      1  0.5258610000000  0.5433280000000  0.4851940000000 1.0
C      1  0.4873720000000  0.4595520000000  0.4655910000000 1.0
C      1  0.4765380000000  0.4338210000000  0.5238720000000 1.0
C      1  0.5498110000000  0.4436670000000  0.4972500000000 1.0
C      1  0.5166690000000  0.4675300000000  0.5177740000000 1.0
C      1  0.4895610000000  0.5438690000000  0.5609340000000 1.0
C      1  0.4246190000000  0.5123290000000  0.5014680000000 1.0
C      1  0.4683630000000  0.5464070000000  0.4492630000000 1.0
C      1  0.5181260000000  0.5064850000000  0.5742380000000 1.0
C      1  0.4923940000000  0.4267250000000  0.5028920000000 1.0
C      1  0.5266280000000  0.4616480000000  0.4918420000000 1.0
C      1  0.5541640000000  0.4952330000000  0.4623270000000 1.0
C      1  0.4576330000000  0.4544140000000  0.5309780000000 1.0
C      1  0.5758370000000  0.5169050000000  0.5009590000000 1.0
C      1  0.4913840000000  0.5633950000000  0.5396940000000 1.0
C      1  0.5500200000000  0.4234690000000  0.4777640000000 1.0
C      1  0.4658000000000  0.5271520000000  0.5580610000000 1.0
C      1  0.5023350000000  0.5629360000000  0.4757120000000 1.0
C      1  0.5042010000000  0.4302270000000  0.5278710000000 1.0
C      1  0.5253600000000  0.4227280000000  0.4689500000000 1.0
C      1  0.5157720000000  0.5341080000000  0.5672050000000 1.0
C      1  0.5067080000000  0.4786530000000  0.4546230000000 1.0
C      1  0.4671430000000  0.5621480000000  0.5248030000000 1.0
C      1  0.5461080000000  0.5379040000000  0.4648330000000 1.0
C      1  0.4702890000000  0.4878990000000  0.4312150000000 1.0
C      1  0.5684210000000  0.4656280000000  0.5357220000000 1.0
C      1  0.5522990000000  0.5395020000000  0.5296970000000 1.0
C      1  0.4506850000000  0.5408580000000  0.5371800000000 1.0
C      1  0.4651570000000  0.4631530000000  0.4465000000000 1.0
C      1  0.4968850000000  0.4969350000000  0.4356730000000 1.0
C      1  0.4744720000000  0.4742910000000  0.5452960000000 1.0
C      1  0.5662770000000  0.5144060000000  0.5270180000000 1.0
C      1  0.4270820000000  0.4853480000000  0.5049570000000 1.0
C      1  0.5643450000000  0.5184950000000  0.4773970000000 1.0
C      1  0.4392880000000  0.4647500000000  0.4537390000000 1.0
C      1  0.4858460000000  0.5172590000000  0.4895040000000 1.0
C      1  0.5275480000000  0.4862520000000  0.4736470000000 1.0
END
