TITL C-121971-4459-2 -177.156238861077 125000 -699.006836442323 0 0 101 (C1) n - 1
REM
REM in /rds/project/t2_vol4/rds-t2-cs072/BORA/CARBON/from-Arr/AIRSS/Generating-Clusters/GAP-ML-2020/Only-C1/SD-CG/HFTN-CG
REM
REM
REM
REM
REM
REM ./C.cell (11c1c37f851c82e70ff6c80c92926a4b)
REM AIRSS Version 0.9.1 bugfix July 2018 build 013d7b7c2542+ Fri, 06 Jul 2018 19:26:36 +0100
REM compiler GCC version 9.3.0
REM options -cpp -mtune=generic -march=x86-64 -g -O0
REM seed -1053246004 1454949354 -290161819 879311017 2070331160 -94488267 -10388937 -539502391 1903660295 719453158 613979563 -150230553 -199381701 -571320119 -880979551 -1308470687 690769693 -241976853 532126774 -1464839315 -317065641 -744913710 1704498722 -760546112 1699292799 -748514343 -1689393493 -781819360 -1421636931 -569789509 -1696479466 -1606344923 -154729238
REM
CELL 1.54180   50.00000   50.00000   50.00000   90.00000   90.00000   90.00000
LATT -1
SFAC C  
C      1  0.4991240000000  0.5163990000000  0.4893760000000 1.0
C      1  0.4314370000000  0.5098940000000  0.4870360000000 1.0
C      1  0.4984840000000  0.4785530000000  0.5827040000000 1.0
C      1  0.4163190000000  0.4665050000000  0.4805040000000 1.0
C      1  0.5390320000000  0.5580120000000  0.5597430000000 1.0
C      1  0.4493630000000  0.4928740000000  0.5688660000000 1.0
C      1  0.5739380000000  0.4912580000000  0.4831560000000 1.0
C      1  0.5254800000000  0.5830460000000  0.4660180000000 1.0
C      1  0.5544440000000  0.4896620000000  0.4356760000000 1.0
C      1  0.4328140000000  0.4418900000000  0.5195900000000 1.0
C      1  0.5745820000000  0.5027790000000  0.5279380000000 1.0
C      1  0.5002680000000  0.4363200000000  0.4489170000000 1.0
C      1  0.5220710000000  0.5071600000000  0.4502110000000 1.0
C      1  0.5504470000000  0.4865660000000  0.5743180000000 1.0
C      1  0.5399720000000  0.5114240000000  0.4262430000000 1.0
C      1  0.5014480000000  0.4329980000000  0.5289430000000 1.0
C      1  0.4615200000000  0.4743670000000  0.4494740000000 1.0
C      1  0.4991790000000  0.5811530000000  0.4756030000000 1.0
C      1  0.5733210000000  0.5005610000000  0.4551710000000 1.0
C      1  0.5747230000000  0.5291880000000  0.4581710000000 1.0
C      1  0.4170810000000  0.4630710000000  0.5086800000000 1.0
C      1  0.4613210000000  0.5167790000000  0.5564800000000 1.0
C      1  0.4533370000000  0.5610250000000  0.5310140000000 1.0
C      1  0.5458220000000  0.5294130000000  0.5603890000000 1.0
C      1  0.4781540000000  0.4252210000000  0.4648760000000 1.0
C      1  0.4599560000000  0.5100060000000  0.5266190000000 1.0
C      1  0.5636140000000  0.4535240000000  0.5392490000000 1.0
C      1  0.5080630000000  0.5050220000000  0.5814980000000 1.0
C      1  0.4742680000000  0.5017570000000  0.4259050000000 1.0
C      1  0.5054240000000  0.4616740000000  0.4367420000000 1.0
C      1  0.4806360000000  0.5173540000000  0.4679240000000 1.0
C      1  0.5146240000000  0.5689230000000  0.5228490000000 1.0
C      1  0.4358340000000  0.4669800000000  0.4411560000000 1.0
C      1  0.4309700000000  0.4490210000000  0.4634960000000 1.0
C      1  0.4814980000000  0.4753570000000  0.4299380000000 1.0
C      1  0.5419340000000  0.4936900000000  0.4936900000000 1.0
C      1  0.4715780000000  0.4826700000000  0.5245310000000 1.0
C      1  0.4268980000000  0.4939330000000  0.4418940000000 1.0
C      1  0.5031400000000  0.5176290000000  0.5354650000000 1.0
C      1  0.4322110000000  0.5070530000000  0.5157120000000 1.0
C      1  0.5271660000000  0.4752510000000  0.5346590000000 1.0
C      1  0.5376330000000  0.5509140000000  0.5167510000000 1.0
C      1  0.4705450000000  0.4738900000000  0.5793610000000 1.0
C      1  0.4451450000000  0.5581810000000  0.5015270000000 1.0
C      1  0.5581170000000  0.5483720000000  0.4447450000000 1.0
C      1  0.4927440000000  0.4132530000000  0.4868330000000 1.0
C      1  0.5744750000000  0.5249590000000  0.5473600000000 1.0
C      1  0.4836780000000  0.5272860000000  0.5145120000000 1.0
C      1  0.5574380000000  0.5634260000000  0.5368630000000 1.0
C      1  0.5739420000000  0.5346890000000  0.4868130000000 1.0
C      1  0.4745650000000  0.5560490000000  0.5110830000000 1.0
C      1  0.5359890000000  0.5089720000000  0.5787230000000 1.0
C      1  0.5147150000000  0.4570380000000  0.5700970000000 1.0
C      1  0.4951140000000  0.5752380000000  0.5034300000000 1.0
C      1  0.4157460000000  0.4933050000000  0.4691380000000 1.0
C      1  0.5831880000000  0.5124470000000  0.5008050000000 1.0
C      1  0.4509430000000  0.5705590000000  0.4749920000000 1.0
C      1  0.5620390000000  0.4466600000000  0.4907980000000 1.0
C      1  0.5517450000000  0.4393290000000  0.5166850000000 1.0
C      1  0.4748180000000  0.5737390000000  0.4602870000000 1.0
C      1  0.5012510000000  0.4886720000000  0.5282270000000 1.0
C      1  0.4349850000000  0.5508560000000  0.4608920000000 1.0
C      1  0.4729880000000  0.4787810000000  0.4949400000000 1.0
C      1  0.5446730000000  0.5638760000000  0.4658230000000 1.0
C      1  0.5005670000000  0.4858230000000  0.4968270000000 1.0
C      1  0.5198850000000  0.4101080000000  0.4826680000000 1.0
C      1  0.5116320000000  0.5645130000000  0.5511760000000 1.0
C      1  0.4948470000000  0.5163890000000  0.4415470000000 1.0
C      1  0.5434700000000  0.5386080000000  0.4218790000000 1.0
C      1  0.4968490000000  0.4399920000000  0.5568440000000 1.0
C      1  0.5282770000000  0.5173440000000  0.4795830000000 1.0
C      1  0.4621830000000  0.4582950000000  0.5385810000000 1.0
C      1  0.4190490000000  0.4858950000000  0.5276160000000 1.0
C      1  0.5809510000000  0.5496560000000  0.5375270000000 1.0
C      1  0.4509970000000  0.4308020000000  0.4747090000000 1.0
C      1  0.5237010000000  0.4683730000000  0.4918230000000 1.0
C      1  0.4523390000000  0.4273640000000  0.5032090000000 1.0
C      1  0.5385660000000  0.4527760000000  0.4692720000000 1.0
C      1  0.4805860000000  0.4209990000000  0.5111350000000 1.0
C      1  0.5242790000000  0.4285110000000  0.4629630000000 1.0
C      1  0.4608050000000  0.5478950000000  0.5542160000000 1.0
C      1  0.4915680000000  0.5216100000000  0.5633680000000 1.0
C      1  0.4300180000000  0.5382480000000  0.4855600000000 1.0
C      1  0.4728240000000  0.5566510000000  0.4365920000000 1.0
C      1  0.5246400000000  0.4501710000000  0.5169420000000 1.0
C      1  0.5456590000000  0.5440760000000  0.4887360000000 1.0
C      1  0.5798620000000  0.4668690000000  0.4976320000000 1.0
C      1  0.5416230000000  0.4641610000000  0.5599790000000 1.0
C      1  0.5188790000000  0.5481690000000  0.4134530000000 1.0
C      1  0.4887880000000  0.5510410000000  0.5628460000000 1.0
C      1  0.5795910000000  0.4731240000000  0.5263350000000 1.0
C      1  0.4611670000000  0.4953210000000  0.4742590000000 1.0
C      1  0.5318250000000  0.5239730000000  0.5321530000000 1.0
C      1  0.4474380000000  0.5131090000000  0.4317770000000 1.0
C      1  0.4711940000000  0.4498700000000  0.5640500000000 1.0
C      1  0.4485580000000  0.5408390000000  0.4381320000000 1.0
C      1  0.5445070000000  0.4984740000000  0.5225990000000 1.0
C      1  0.5317940000000  0.4726210000000  0.4463520000000 1.0
C      1  0.4962320000000  0.5427780000000  0.4268600000000 1.0
C      1  0.4301180000000  0.4779340000000  0.5526420000000 1.0
C      1  0.4367600000000  0.4511680000000  0.5470530000000 1.0
END
