TITL C-120592-4467-7 0.315145903414737 125000 -668.584131885868 0 0 97 (C1) n - 1
REM
REM in /rds/project/t2_vol4/rds-t2-cs072/BORA/CARBON/from-Arr/AIRSS/Generating-Clusters/GAP-ML-2020/Only-C1/SD-CG/HFTN-CG
REM
REM
REM
REM
REM
REM ./C.cell (11c1c37f851c82e70ff6c80c92926a4b)
REM AIRSS Version 0.9.1 bugfix July 2018 build 013d7b7c2542+ Fri, 06 Jul 2018 19:26:36 +0100
REM compiler GCC version 9.3.0
REM options -cpp -mtune=generic -march=x86-64 -g -O0
REM seed 1504442753 -175575802 1631923920 -2041853505 -1317780173 -91346637 -1727893505 -2072821420 732348982 949441424 -529991773 1285869571 -264135299 -1219239170 341709511 -643506208 1006917499 -162344918 -416429080 -1679683809 1629555373 -1173558921 2138590710 1632868640 -2129281054 -1527944911 1827318637 109561418 -941080368 -145574835 -1987130610 1861940003 -400249763
REM
CELL 1.54180   50.00000   50.00000   50.00000   90.00000   90.00000   90.00000
LATT -1
SFAC C  
C      1  0.5078600000000  0.4285780000000  0.4490300000000 1.0
C      1  0.4599070000000  0.5313000000000  0.5673720000000 1.0
C      1  0.4425800000000  0.4719190000000  0.4657090000000 1.0
C      1  0.5740480000000  0.4484400000000  0.4665710000000 1.0
C      1  0.4807750000000  0.4416880000000  0.5593880000000 1.0
C      1  0.5123830000000  0.4322060000000  0.5130600000000 1.0
C      1  0.4693360000000  0.5345240000000  0.4522530000000 1.0
C      1  0.4166370000000  0.5139590000000  0.5008140000000 1.0
C      1  0.5031790000000  0.4524750000000  0.4356180000000 1.0
C      1  0.4143080000000  0.4920160000000  0.5205160000000 1.0
C      1  0.5248770000000  0.4939530000000  0.5211940000000 1.0
C      1  0.4800870000000  0.5034320000000  0.5260020000000 1.0
C      1  0.5078890000000  0.5704300000000  0.4560520000000 1.0
C      1  0.4823870000000  0.5857960000000  0.5195670000000 1.0
C      1  0.4780450000000  0.4924100000000  0.4272560000000 1.0
C      1  0.5208830000000  0.4918700000000  0.5841670000000 1.0
C      1  0.4993530000000  0.4510890000000  0.5781880000000 1.0
C      1  0.4481150000000  0.5106240000000  0.4932130000000 1.0
C      1  0.5351450000000  0.5356540000000  0.4201480000000 1.0
C      1  0.5077390000000  0.5166790000000  0.5262380000000 1.0
C      1  0.5471250000000  0.5102030000000  0.4255130000000 1.0
C      1  0.5505680000000  0.5555550000000  0.5219960000000 1.0
C      1  0.5695390000000  0.5410300000000  0.4512130000000 1.0
C      1  0.5637990000000  0.5464230000000  0.4980050000000 1.0
C      1  0.5200570000000  0.5262170000000  0.4788490000000 1.0
C      1  0.4193780000000  0.5324120000000  0.5238640000000 1.0
C      1  0.5639020000000  0.5116860000000  0.4511240000000 1.0
C      1  0.5373760000000  0.5687870000000  0.4549190000000 1.0
C      1  0.5430360000000  0.4404060000000  0.5105620000000 1.0
C      1  0.4595410000000  0.4332980000000  0.5189820000000 1.0
C      1  0.4970630000000  0.4933960000000  0.4502810000000 1.0
C      1  0.5008910000000  0.5066360000000  0.4141180000000 1.0
C      1  0.4723080000000  0.5733030000000  0.4953140000000 1.0
C      1  0.4461010000000  0.5426390000000  0.4706460000000 1.0
C      1  0.5477610000000  0.4472590000000  0.4798860000000 1.0
C      1  0.4835220000000  0.5443630000000  0.5026470000000 1.0
C      1  0.4592670000000  0.5531720000000  0.5483890000000 1.0
C      1  0.5613970000000  0.4530870000000  0.5271700000000 1.0
C      1  0.4824240000000  0.5197200000000  0.5833860000000 1.0
C      1  0.5831700000000  0.4903920000000  0.4636330000000 1.0
C      1  0.4618500000000  0.4638390000000  0.5565600000000 1.0
C      1  0.4216210000000  0.5101610000000  0.5427380000000 1.0
C      1  0.5631710000000  0.5154880000000  0.4986350000000 1.0
C      1  0.5264250000000  0.4925280000000  0.4201640000000 1.0
C      1  0.5216540000000  0.4549860000000  0.5615320000000 1.0
C      1  0.4250110000000  0.4666620000000  0.5153000000000 1.0
C      1  0.5607710000000  0.4686960000000  0.5531660000000 1.0
C      1  0.4293400000000  0.5196010000000  0.4728000000000 1.0
C      1  0.5093120000000  0.4177320000000  0.4880460000000 1.0
C      1  0.5060020000000  0.5346620000000  0.4198400000000 1.0
C      1  0.5609790000000  0.5582760000000  0.4728790000000 1.0
C      1  0.4577630000000  0.4527610000000  0.4498860000000 1.0
C      1  0.5112610000000  0.5187150000000  0.5774210000000 1.0
C      1  0.5788950000000  0.4744100000000  0.5133290000000 1.0
C      1  0.5112040000000  0.5373450000000  0.5051420000000 1.0
C      1  0.5818290000000  0.4937190000000  0.4922930000000 1.0
C      1  0.5080650000000  0.5869280000000  0.5063810000000 1.0
C      1  0.4635500000000  0.5253300000000  0.5126980000000 1.0
C      1  0.5408330000000  0.4722970000000  0.5726500000000 1.0
C      1  0.4527780000000  0.4847440000000  0.5760160000000 1.0
C      1  0.4881380000000  0.4179340000000  0.4675380000000 1.0
C      1  0.4763910000000  0.4622960000000  0.4306300000000 1.0
C      1  0.5196800000000  0.5335880000000  0.5530670000000 1.0
C      1  0.4978330000000  0.4763590000000  0.5907840000000 1.0
C      1  0.5499020000000  0.5539830000000  0.4341690000000 1.0
C      1  0.5111970000000  0.4729990000000  0.5389120000000 1.0
C      1  0.4461210000000  0.5608050000000  0.4932510000000 1.0
C      1  0.5909910000000  0.4646760000000  0.4557620000000 1.0
C      1  0.4428660000000  0.5476500000000  0.5217860000000 1.0
C      1  0.4720170000000  0.4757890000000  0.5131780000000 1.0
C      1  0.4491360000000  0.4344200000000  0.4922490000000 1.0
C      1  0.4862560000000  0.4859390000000  0.5488490000000 1.0
C      1  0.5092100000000  0.5605270000000  0.5459380000000 1.0
C      1  0.4411560000000  0.5088860000000  0.5636480000000 1.0
C      1  0.4855980000000  0.4305980000000  0.5325020000000 1.0
C      1  0.5234490000000  0.5667540000000  0.5209130000000 1.0
C      1  0.4902180000000  0.4929240000000  0.4792160000000 1.0
C      1  0.4958750000000  0.5182590000000  0.4660290000000 1.0
C      1  0.5138300000000  0.4813150000000  0.4943460000000 1.0
C      1  0.4999770000000  0.4610150000000  0.5138370000000 1.0
C      1  0.4971020000000  0.5817690000000  0.4794900000000 1.0
C      1  0.4917800000000  0.5505190000000  0.4395610000000 1.0
C      1  0.5199440000000  0.4754990000000  0.4440870000000 1.0
C      1  0.4309310000000  0.4564500000000  0.4889120000000 1.0
C      1  0.4750110000000  0.4931280000000  0.5919930000000 1.0
C      1  0.4568860000000  0.5098890000000  0.4377100000000 1.0
C      1  0.5339140000000  0.4774260000000  0.4730480000000 1.0
C      1  0.4819190000000  0.5697740000000  0.5434090000000 1.0
C      1  0.4629280000000  0.4306290000000  0.4677050000000 1.0
C      1  0.5434590000000  0.5073330000000  0.4755490000000 1.0
C      1  0.5537200000000  0.5089970000000  0.5259770000000 1.0
C      1  0.4497130000000  0.4587920000000  0.5299820000000 1.0
C      1  0.5469470000000  0.5340540000000  0.5399300000000 1.0
C      1  0.4360340000000  0.4989400000000  0.4526950000000 1.0
C      1  0.4628100000000  0.4860500000000  0.4868280000000 1.0
C      1  0.5287550000000  0.4269960000000  0.4691830000000 1.0
C      1  0.5722380000000  0.4891350000000  0.5370100000000 1.0
END
