TITL C-131266-6858-2 -0.00322887348822135 125000 -639.141890833859 0 0 91 (C1) n - 1
REM
REM in /rds/project/t2_vol4/rds-t2-cs072/BORA/CARBON/from-Arr/AIRSS/Generating-Clusters/GAP-ML-2020/Only-C1/SD-CG/HFTN-CG
REM
REM
REM
REM
REM
REM ./C.cell (11c1c37f851c82e70ff6c80c92926a4b)
REM AIRSS Version 0.9.1 bugfix July 2018 build 013d7b7c2542+ Fri, 06 Jul 2018 19:26:36 +0100
REM compiler GCC version 9.3.0
REM options -cpp -mtune=generic -march=x86-64 -g -O0
REM seed -447233234 1543661312 -492509458 -1941141916 -568383819 659700801 404843183 -909412608 -1258106505 720054729 245685759 1057850684 197266432 -529564817 1509279817 -1232813906 -85774493 351036914 1002249689 -84939576 -1368819541 1931641211 -1378960308 498608896 -1876073791 -1607233177 -1271417688 45862808 -1804955056 2107781167 952882360 1408644359 658036255
REM
CELL 1.54180   50.00000   50.00000   50.00000   90.00000   90.00000   90.00000
LATT -1
SFAC C  
C      1  0.4619500000000  0.5542470000000  0.4386570000000 1.0
C      1  0.4802830000000  0.4624190000000  0.4235580000000 1.0
C      1  0.4717590000000  0.5209160000000  0.4766270000000 1.0
C      1  0.4254200000000  0.4945310000000  0.4603810000000 1.0
C      1  0.4559450000000  0.4374620000000  0.4841200000000 1.0
C      1  0.5189190000000  0.4961940000000  0.5351320000000 1.0
C      1  0.4900150000000  0.4786580000000  0.4796600000000 1.0
C      1  0.4541810000000  0.5363720000000  0.5385750000000 1.0
C      1  0.4877160000000  0.4874330000000  0.4122260000000 1.0
C      1  0.5526670000000  0.5009930000000  0.5007260000000 1.0
C      1  0.5644490000000  0.4836220000000  0.5628190000000 1.0
C      1  0.4987690000000  0.4345130000000  0.4571210000000 1.0
C      1  0.4659220000000  0.4278870000000  0.5083710000000 1.0
C      1  0.4737420000000  0.4849700000000  0.5402710000000 1.0
C      1  0.4601500000000  0.4587650000000  0.4431880000000 1.0
C      1  0.4545780000000  0.5270860000000  0.4290900000000 1.0
C      1  0.5117750000000  0.4412860000000  0.5701020000000 1.0
C      1  0.4324180000000  0.5188110000000  0.4467870000000 1.0
C      1  0.4640990000000  0.5838350000000  0.5401130000000 1.0
C      1  0.5022640000000  0.5125750000000  0.5768480000000 1.0
C      1  0.5001230000000  0.4773370000000  0.5942400000000 1.0
C      1  0.4696750000000  0.5745070000000  0.4937940000000 1.0
C      1  0.5694610000000  0.5255560000000  0.4915290000000 1.0
C      1  0.4902020000000  0.5670600000000  0.4762320000000 1.0
C      1  0.4753120000000  0.5144120000000  0.4136960000000 1.0
C      1  0.5713090000000  0.4966810000000  0.5392810000000 1.0
C      1  0.4834950000000  0.5304540000000  0.5317970000000 1.0
C      1  0.5301790000000  0.4741400000000  0.5934300000000 1.0
C      1  0.5239840000000  0.5025600000000  0.5049340000000 1.0
C      1  0.4980250000000  0.5315280000000  0.4115340000000 1.0
C      1  0.4232190000000  0.4689010000000  0.5008970000000 1.0
C      1  0.4223820000000  0.5187100000000  0.5051840000000 1.0
C      1  0.5544950000000  0.5646170000000  0.5159830000000 1.0
C      1  0.4356160000000  0.4680390000000  0.4552720000000 1.0
C      1  0.4939320000000  0.5068580000000  0.5476980000000 1.0
C      1  0.4885610000000  0.5624160000000  0.4477000000000 1.0
C      1  0.4906070000000  0.5025460000000  0.5999070000000 1.0
C      1  0.4887530000000  0.4554060000000  0.5782980000000 1.0
C      1  0.4444360000000  0.4894340000000  0.5377290000000 1.0
C      1  0.5282610000000  0.5580950000000  0.5422110000000 1.0
C      1  0.5492280000000  0.4660560000000  0.4496220000000 1.0
C      1  0.4428770000000  0.5637850000000  0.5023190000000 1.0
C      1  0.5660390000000  0.4778650000000  0.5154860000000 1.0
C      1  0.5197650000000  0.4671080000000  0.5290720000000 1.0
C      1  0.4412540000000  0.5638830000000  0.4533440000000 1.0
C      1  0.5381820000000  0.4288840000000  0.4871420000000 1.0
C      1  0.4476930000000  0.5632520000000  0.5317790000000 1.0
C      1  0.5364260000000  0.4512660000000  0.5785560000000 1.0
C      1  0.4767360000000  0.4560740000000  0.5485840000000 1.0
C      1  0.4825940000000  0.5783740000000  0.5213960000000 1.0
C      1  0.5106650000000  0.4220710000000  0.4792570000000 1.0
C      1  0.5447930000000  0.5798640000000  0.5362710000000 1.0
C      1  0.5525350000000  0.4497720000000  0.4740640000000 1.0
C      1  0.4269530000000  0.5423290000000  0.4626450000000 1.0
C      1  0.5081400000000  0.5514790000000  0.4307000000000 1.0
C      1  0.5391050000000  0.4303720000000  0.5148820000000 1.0
C      1  0.4940570000000  0.4185470000000  0.5035950000000 1.0
C      1  0.5232810000000  0.5169370000000  0.4131600000000 1.0
C      1  0.4937350000000  0.5056430000000  0.4669600000000 1.0
C      1  0.4267490000000  0.5431180000000  0.4909400000000 1.0
C      1  0.5125920000000  0.4230910000000  0.5240410000000 1.0
C      1  0.5710240000000  0.5134910000000  0.4614250000000 1.0
C      1  0.4362650000000  0.5153380000000  0.5308240000000 1.0
C      1  0.5680470000000  0.4856390000000  0.4611520000000 1.0
C      1  0.5316500000000  0.5187730000000  0.5762120000000 1.0
C      1  0.4763300000000  0.4509860000000  0.4669210000000 1.0
C      1  0.5045020000000  0.4441730000000  0.5420520000000 1.0
C      1  0.5114810000000  0.5537960000000  0.4938480000000 1.0
C      1  0.4326850000000  0.4525560000000  0.4800020000000 1.0
C      1  0.4195890000000  0.4951760000000  0.4891220000000 1.0
C      1  0.5643990000000  0.5248280000000  0.5400170000000 1.0
C      1  0.5082880000000  0.4771720000000  0.5017150000000 1.0
C      1  0.4797900000000  0.4876680000000  0.5077960000000 1.0
C      1  0.5022850000000  0.5561660000000  0.5245070000000 1.0
C      1  0.5703080000000  0.5405330000000  0.5175190000000 1.0
C      1  0.5463880000000  0.4957080000000  0.5826020000000 1.0
C      1  0.5166560000000  0.4892980000000  0.4148220000000 1.0
C      1  0.5089450000000  0.5217020000000  0.4893320000000 1.0
C      1  0.5571410000000  0.5482090000000  0.4753130000000 1.0
C      1  0.5554630000000  0.4570590000000  0.5577950000000 1.0
C      1  0.5282010000000  0.4666940000000  0.4296030000000 1.0
C      1  0.5346280000000  0.5372570000000  0.4311010000000 1.0
C      1  0.5054090000000  0.4492850000000  0.4335140000000 1.0
C      1  0.4356280000000  0.4649420000000  0.5260360000000 1.0
C      1  0.5419390000000  0.5350780000000  0.5556060000000 1.0
C      1  0.5559650000000  0.5355370000000  0.4499210000000 1.0
C      1  0.5485210000000  0.4555810000000  0.5287250000000 1.0
C      1  0.4809060000000  0.5171550000000  0.5045830000000 1.0
C      1  0.4559250000000  0.4445280000000  0.5305860000000 1.0
C      1  0.5691250000000  0.4706970000000  0.4867220000000 1.0
C      1  0.5400720000000  0.5633760000000  0.4910950000000 1.0
END
