TITL C-134196-9828-1 -53.1983241090647 125000 -258.437796558869 0 0 40 (C1) n - 1
REM
REM in /rds/project/t2_vol4/rds-t2-cs072/BORA/CARBON/from-Arr/AIRSS/Generating-Clusters/GAP-ML-2020/Only-C1/SD-CG/HFTN-CG
REM
REM
REM
REM
REM
REM ./C.cell (11c1c37f851c82e70ff6c80c92926a4b)
REM AIRSS Version 0.9.1 bugfix July 2018 build 013d7b7c2542+ Fri, 06 Jul 2018 19:26:36 +0100
REM compiler GCC version 9.3.0
REM options -cpp -mtune=generic -march=x86-64 -g -O0
REM seed -958979228 -1390109493 477142932 -894886096 -1490172700 -755963037 1299456737 1804641627 -1599161307 -1349228540 -852664984 -1147320162 378512264 -42007947 -1097431962 790117364 -1205615442 -515670133 109560670 1240189997 1905014762 -1846286105 -2071175806 -801669170 -1567956899 947972876 272738832 -1987210758 1953027987 1927679739 -58653223 1587210344 1682494091
REM
CELL 1.54180   50.00000   50.00000   50.00000   90.00000   90.00000   90.00000
LATT -1
SFAC C  
C      1  0.4815830000000  0.4713280000000  0.5451460000000 1.0
C      1  0.5063590000000  0.5144980000000  0.5434320000000 1.0
C      1  0.5614300000000  0.5586270000000  0.5293810000000 1.0
C      1  0.5450900000000  0.5328660000000  0.4586120000000 1.0
C      1  0.5254660000000  0.5005200000000  0.5266920000000 1.0
C      1  0.5008000000000  0.4569750000000  0.5273160000000 1.0
C      1  0.4615360000000  0.4986300000000  0.4992880000000 1.0
C      1  0.5031880000000  0.5413740000000  0.5332560000000 1.0
C      1  0.4653680000000  0.4963100000000  0.4346950000000 1.0
C      1  0.5409350000000  0.5185490000000  0.5049130000000 1.0
C      1  0.4962390000000  0.5046690000000  0.4694660000000 1.0
C      1  0.4833120000000  0.5579670000000  0.5411290000000 1.0
C      1  0.4933920000000  0.5300800000000  0.5087080000000 1.0
C      1  0.5125390000000  0.4576770000000  0.4718360000000 1.0
C      1  0.5019780000000  0.5317950000000  0.4825130000000 1.0
C      1  0.4673550000000  0.4552410000000  0.4592530000000 1.0
C      1  0.4828680000000  0.4567990000000  0.4832190000000 1.0
C      1  0.5306380000000  0.5360830000000  0.4826400000000 1.0
C      1  0.4561110000000  0.5098060000000  0.5398940000000 1.0
C      1  0.4524040000000  0.5350790000000  0.5260230000000 1.0
C      1  0.4730000000000  0.5355630000000  0.4722210000000 1.0
C      1  0.5086850000000  0.4695970000000  0.4461830000000 1.0
C      1  0.4482040000000  0.4881980000000  0.5215100000000 1.0
C      1  0.5512300000000  0.4913780000000  0.4965210000000 1.0
C      1  0.5436430000000  0.4568350000000  0.5174540000000 1.0
C      1  0.4598550000000  0.4635070000000  0.5275250000000 1.0
C      1  0.4643240000000  0.5270840000000  0.5001400000000 1.0
C      1  0.5595020000000  0.5363980000000  0.5180860000000 1.0
C      1  0.5396680000000  0.5116480000000  0.4455190000000 1.0
C      1  0.4852110000000  0.4861700000000  0.4894440000000 1.0
C      1  0.5298220000000  0.4706530000000  0.4916600000000 1.0
C      1  0.5083190000000  0.4819830000000  0.5097090000000 1.0
C      1  0.5509050000000  0.4824420000000  0.5251330000000 1.0
C      1  0.4823860000000  0.4996390000000  0.5470690000000 1.0
C      1  0.5168980000000  0.4963050000000  0.4486020000000 1.0
C      1  0.4784220000000  0.4717980000000  0.4411220000000 1.0
C      1  0.4771510000000  0.4477680000000  0.5105650000000 1.0
C      1  0.4717020000000  0.5149210000000  0.4529220000000 1.0
C      1  0.5251120000000  0.4434860000000  0.5324220000000 1.0
C      1  0.4573700000000  0.5597530000000  0.5387840000000 1.0
END
