TITL C-130745-6703-2 3.36796617333377 125000 -936.53492531511 0 0 134 (C1) n - 1
REM
REM in /rds/project/t2_vol4/rds-t2-cs072/BORA/CARBON/from-Arr/AIRSS/Generating-Clusters/GAP-ML-2020/Only-C1/SD-CG/HFTN-CG
REM
REM
REM
REM
REM
REM ./C.cell (11c1c37f851c82e70ff6c80c92926a4b)
REM AIRSS Version 0.9.1 bugfix July 2018 build 013d7b7c2542+ Fri, 06 Jul 2018 19:26:36 +0100
REM compiler GCC version 9.3.0
REM options -cpp -mtune=generic -march=x86-64 -g -O0
REM seed 423276184 645060600 -687527342 -953378105 885404920 344321835 1123290666 -800817581 -323927744 -1230892373 914678901 524206840 -738761241 -1565077606 586768914 -101380972 -1225865637 945357631 641463655 1971864803 394297773 546727970 -956592861 73107413 -155624138 -1139882255 122007851 692978960 -999949980 -1647301602 459336805 -816161097 -15792818
REM
CELL 1.54180   50.00000   50.00000   50.00000   90.00000   90.00000   90.00000
LATT -1
SFAC C  
C      1  0.5137340000000  0.5027970000000  0.5259190000000 1.0
C      1  0.5601980000000  0.4245740000000  0.5270260000000 1.0
C      1  0.5531820000000  0.4856690000000  0.5719600000000 1.0
C      1  0.5274900000000  0.4434410000000  0.5576690000000 1.0
C      1  0.4792270000000  0.5070770000000  0.6046280000000 1.0
C      1  0.5558450000000  0.5706990000000  0.5219840000000 1.0
C      1  0.4498070000000  0.4861900000000  0.4137990000000 1.0
C      1  0.4431160000000  0.4204210000000  0.5371070000000 1.0
C      1  0.5911930000000  0.4657830000000  0.5086220000000 1.0
C      1  0.5138030000000  0.5966710000000  0.5249060000000 1.0
C      1  0.4799610000000  0.5873240000000  0.5562380000000 1.0
C      1  0.5561510000000  0.5065040000000  0.4427640000000 1.0
C      1  0.4684480000000  0.4014570000000  0.5051260000000 1.0
C      1  0.4959040000000  0.5634150000000  0.3997690000000 1.0
C      1  0.5526760000000  0.4348650000000  0.4987790000000 1.0
C      1  0.5412510000000  0.4859000000000  0.4276580000000 1.0
C      1  0.4494010000000  0.4177450000000  0.4909290000000 1.0
C      1  0.4548190000000  0.4962380000000  0.5225380000000 1.0
C      1  0.4860970000000  0.4676670000000  0.5468460000000 1.0
C      1  0.5215720000000  0.4974010000000  0.4787600000000 1.0
C      1  0.4048120000000  0.4962090000000  0.4916850000000 1.0
C      1  0.4549720000000  0.4248180000000  0.4630870000000 1.0
C      1  0.5427670000000  0.5505980000000  0.5425650000000 1.0
C      1  0.4459980000000  0.4338060000000  0.5613830000000 1.0
C      1  0.4202760000000  0.4712200000000  0.5408350000000 1.0
C      1  0.5794060000000  0.5122610000000  0.5426820000000 1.0
C      1  0.5354930000000  0.4120890000000  0.4879170000000 1.0
C      1  0.4931410000000  0.3925690000000  0.4955850000000 1.0
C      1  0.4492830000000  0.5787680000000  0.4892320000000 1.0
C      1  0.4437650000000  0.4489430000000  0.4515320000000 1.0
C      1  0.4789520000000  0.5204870000000  0.4526620000000 1.0
C      1  0.4702530000000  0.5151880000000  0.5035390000000 1.0
C      1  0.4953930000000  0.5476140000000  0.5328600000000 1.0
C      1  0.5061310000000  0.4731510000000  0.5880740000000 1.0
C      1  0.4739680000000  0.4907340000000  0.4538900000000 1.0
C      1  0.5282100000000  0.5185410000000  0.4598630000000 1.0
C      1  0.4727270000000  0.4325040000000  0.5705420000000 1.0
C      1  0.5134470000000  0.4479560000000  0.4259770000000 1.0
C      1  0.5773970000000  0.4507200000000  0.4887630000000 1.0
C      1  0.4322490000000  0.4694910000000  0.4678810000000 1.0
C      1  0.4659610000000  0.5936280000000  0.5081470000000 1.0
C      1  0.4891890000000  0.4173490000000  0.5481150000000 1.0
C      1  0.4521710000000  0.4763930000000  0.5768260000000 1.0
C      1  0.4602030000000  0.5207460000000  0.4779210000000 1.0
C      1  0.5739000000000  0.5683910000000  0.5020620000000 1.0
C      1  0.4500100000000  0.5040350000000  0.5674280000000 1.0
C      1  0.5998640000000  0.4915400000000  0.5021880000000 1.0
C      1  0.4274080000000  0.5625890000000  0.4999090000000 1.0
C      1  0.4509460000000  0.4602740000000  0.4252540000000 1.0
C      1  0.5092170000000  0.5461330000000  0.5806140000000 1.0
C      1  0.5011030000000  0.4678710000000  0.4096890000000 1.0
C      1  0.5392810000000  0.4199260000000  0.5457710000000 1.0
C      1  0.5765410000000  0.4627590000000  0.4627070000000 1.0
C      1  0.4718760000000  0.4693950000000  0.4077350000000 1.0
C      1  0.5591290000000  0.5292590000000  0.5549380000000 1.0
C      1  0.5188680000000  0.4693260000000  0.4704180000000 1.0
C      1  0.4454180000000  0.5546760000000  0.4464990000000 1.0
C      1  0.4795560000000  0.4619300000000  0.5766640000000 1.0
C      1  0.4341370000000  0.4594620000000  0.5627120000000 1.0
C      1  0.4706910000000  0.5105250000000  0.5462780000000 1.0
C      1  0.5214350000000  0.4904260000000  0.4086710000000 1.0
C      1  0.5390390000000  0.5405750000000  0.4134300000000 1.0
C      1  0.4143060000000  0.5438480000000  0.4832120000000 1.0
C      1  0.4288740000000  0.5007470000000  0.5400710000000 1.0
C      1  0.5213110000000  0.4108610000000  0.4628620000000 1.0
C      1  0.4961310000000  0.3978680000000  0.4689620000000 1.0
C      1  0.4595290000000  0.5733960000000  0.4629010000000 1.0
C      1  0.4847620000000  0.4684340000000  0.5002630000000 1.0
C      1  0.4665460000000  0.4699690000000  0.5228630000000 1.0
C      1  0.4794860000000  0.5465410000000  0.5826950000000 1.0
C      1  0.5217770000000  0.5213600000000  0.5878650000000 1.0
C      1  0.5936310000000  0.5041390000000  0.4771660000000 1.0
C      1  0.5641350000000  0.5562310000000  0.4552310000000 1.0
C      1  0.4672420000000  0.4068280000000  0.5323790000000 1.0
C      1  0.5185550000000  0.5343960000000  0.5245380000000 1.0
C      1  0.4622270000000  0.5859630000000  0.5339540000000 1.0
C      1  0.5459960000000  0.5134590000000  0.5754290000000 1.0
C      1  0.5169410000000  0.4043390000000  0.5368130000000 1.0
C      1  0.5779270000000  0.4917610000000  0.4577230000000 1.0
C      1  0.4929200000000  0.5571840000000  0.4878950000000 1.0
C      1  0.5058870000000  0.4248970000000  0.4411580000000 1.0
C      1  0.5313490000000  0.4656290000000  0.5755010000000 1.0
C      1  0.4642400000000  0.5220230000000  0.5878540000000 1.0
C      1  0.5128320000000  0.5623270000000  0.4455190000000 1.0
C      1  0.5934690000000  0.5149820000000  0.5178340000000 1.0
C      1  0.4710440000000  0.5356950000000  0.5292580000000 1.0
C      1  0.5176870000000  0.3990350000000  0.5087470000000 1.0
C      1  0.5585620000000  0.4489680000000  0.4486510000000 1.0
C      1  0.4932420000000  0.6011570000000  0.5046700000000 1.0
C      1  0.5293240000000  0.4571960000000  0.4993970000000 1.0
C      1  0.5188090000000  0.5642870000000  0.4155340000000 1.0
C      1  0.5319060000000  0.5897230000000  0.4820790000000 1.0
C      1  0.4152700000000  0.4709510000000  0.4911500000000 1.0
C      1  0.5225550000000  0.5639690000000  0.5623370000000 1.0
C      1  0.4607760000000  0.5351430000000  0.4291200000000 1.0
C      1  0.5381820000000  0.5671820000000  0.4634410000000 1.0
C      1  0.5565030000000  0.5253730000000  0.4959950000000 1.0
C      1  0.5149700000000  0.5440880000000  0.4970600000000 1.0
C      1  0.5081290000000  0.5870310000000  0.5516250000000 1.0
C      1  0.4420510000000  0.5127840000000  0.4221380000000 1.0
C      1  0.4511620000000  0.5589880000000  0.5410040000000 1.0
C      1  0.5376080000000  0.5896290000000  0.5106690000000 1.0
C      1  0.4908580000000  0.5749610000000  0.4632210000000 1.0
C      1  0.4231510000000  0.5397940000000  0.4565650000000 1.0
C      1  0.4966800000000  0.4979430000000  0.5016150000000 1.0
C      1  0.5848220000000  0.4631370000000  0.5369950000000 1.0
C      1  0.5824220000000  0.5563890000000  0.4791630000000 1.0
C      1  0.5058280000000  0.5303230000000  0.4445370000000 1.0
C      1  0.4806570000000  0.5424640000000  0.4082040000000 1.0
C      1  0.4191730000000  0.4554860000000  0.5152490000000 1.0
C      1  0.5370260000000  0.5401420000000  0.4793520000000 1.0
C      1  0.5003140000000  0.5222860000000  0.4151000000000 1.0
C      1  0.5361990000000  0.4833240000000  0.5169540000000 1.0
C      1  0.5852160000000  0.5291440000000  0.4916570000000 1.0
C      1  0.4664430000000  0.5653250000000  0.5678230000000 1.0
C      1  0.4161520000000  0.5248390000000  0.5279850000000 1.0
C      1  0.5047320000000  0.4996240000000  0.5984800000000 1.0
C      1  0.4268660000000  0.5128730000000  0.4462480000000 1.0
C      1  0.5045500000000  0.5965310000000  0.4792160000000 1.0
C      1  0.5040950000000  0.4485640000000  0.5095330000000 1.0
C      1  0.4326910000000  0.4303040000000  0.5125160000000 1.0
C      1  0.5589770000000  0.5358120000000  0.4336240000000 1.0
C      1  0.4265070000000  0.5518490000000  0.5277130000000 1.0
C      1  0.5802310000000  0.4366370000000  0.5401650000000 1.0
C      1  0.4802620000000  0.4143710000000  0.4527960000000 1.0
C      1  0.5242330000000  0.5183100000000  0.4015010000000 1.0
C      1  0.4071020000000  0.5210490000000  0.5004940000000 1.0
C      1  0.4887460000000  0.4713320000000  0.4705620000000 1.0
C      1  0.5032530000000  0.4450610000000  0.5398570000000 1.0
C      1  0.5754380000000  0.4856070000000  0.5530400000000 1.0
C      1  0.5344690000000  0.4616040000000  0.4423670000000 1.0
C      1  0.4960150000000  0.4958070000000  0.5471410000000 1.0
C      1  0.4443420000000  0.4953510000000  0.4631910000000 1.0
C      1  0.5462410000000  0.4986590000000  0.4960160000000 1.0
END
