TITL C-130719-6874-4 86.5212117418927 125000 -661.780698265226 0 0 96 (C1) n - 1
REM
REM in /rds/project/t2_vol4/rds-t2-cs072/BORA/CARBON/from-Arr/AIRSS/Generating-Clusters/GAP-ML-2020/Only-C1/SD-CG/HFTN-CG
REM
REM
REM
REM
REM
REM ./C.cell (11c1c37f851c82e70ff6c80c92926a4b)
REM AIRSS Version 0.9.1 bugfix July 2018 build 013d7b7c2542+ Fri, 06 Jul 2018 19:26:36 +0100
REM compiler GCC version 9.3.0
REM options -cpp -mtune=generic -march=x86-64 -g -O0
REM seed -1231718615 -1128431234 2061877646 -236466209 1034204292 -431781632 -373893045 -1643773619 -966569658 907709254 403391751 8911638 -1795237981 1178933202 -1565511600 -178893398 988482195 626322127 -488508032 2101466598 -88377421 -566101871 -2120093681 459892334 102041588 497937234 1612845515 -1258372669 -643606996 1705517084 -623491696 -273384502 958763288
REM
CELL 1.54180   50.00000   50.00000   50.00000   90.00000   90.00000   90.00000
LATT -1
SFAC C  
C      1  0.4700280000000  0.5228230000000  0.5261200000000 1.0
C      1  0.4615930000000  0.4842240000000  0.5054110000000 1.0
C      1  0.4583970000000  0.4509180000000  0.4475250000000 1.0
C      1  0.5562240000000  0.4974160000000  0.5351000000000 1.0
C      1  0.4418550000000  0.5584100000000  0.5063390000000 1.0
C      1  0.4531610000000  0.5336100000000  0.4407060000000 1.0
C      1  0.4823350000000  0.5107710000000  0.4141110000000 1.0
C      1  0.4089040000000  0.4980340000000  0.5075860000000 1.0
C      1  0.5427480000000  0.5788560000000  0.4973850000000 1.0
C      1  0.4279170000000  0.5122170000000  0.4879840000000 1.0
C      1  0.5201940000000  0.4570350000000  0.5691990000000 1.0
C      1  0.5191960000000  0.4784270000000  0.4175090000000 1.0
C      1  0.5198150000000  0.5273610000000  0.4320450000000 1.0
C      1  0.5080110000000  0.4541250000000  0.4997630000000 1.0
C      1  0.5097770000000  0.5058650000000  0.4152400000000 1.0
C      1  0.4817150000000  0.5712240000000  0.5277040000000 1.0
C      1  0.5015590000000  0.5685050000000  0.4550090000000 1.0
C      1  0.5006450000000  0.5491560000000  0.4346090000000 1.0
C      1  0.4827300000000  0.4873450000000  0.5665940000000 1.0
C      1  0.5322670000000  0.5684860000000  0.4692680000000 1.0
C      1  0.5043070000000  0.4367250000000  0.4412810000000 1.0
C      1  0.5516200000000  0.5439040000000  0.5509240000000 1.0
C      1  0.5055260000000  0.4682360000000  0.5250200000000 1.0
C      1  0.4856210000000  0.4155770000000  0.5116510000000 1.0
C      1  0.5705210000000  0.5089190000000  0.5107680000000 1.0
C      1  0.5181020000000  0.4139120000000  0.4788160000000 1.0
C      1  0.5248980000000  0.5124230000000  0.5714440000000 1.0
C      1  0.5260690000000  0.5381220000000  0.5323830000000 1.0
C      1  0.4638930000000  0.4693710000000  0.5534530000000 1.0
C      1  0.4895790000000  0.4141310000000  0.4817640000000 1.0
C      1  0.5292790000000  0.4274150000000  0.5018270000000 1.0
C      1  0.5745640000000  0.4868770000000  0.4932630000000 1.0
C      1  0.4347070000000  0.4759890000000  0.5469440000000 1.0
C      1  0.5551370000000  0.5592230000000  0.4567550000000 1.0
C      1  0.5273500000000  0.4288800000000  0.4563610000000 1.0
C      1  0.5516190000000  0.5162280000000  0.5587180000000 1.0
C      1  0.4418690000000  0.4655980000000  0.4658490000000 1.0
C      1  0.4219730000000  0.5305830000000  0.5439310000000 1.0
C      1  0.5697910000000  0.5391120000000  0.4692660000000 1.0
C      1  0.4338990000000  0.5414140000000  0.4842510000000 1.0
C      1  0.4669930000000  0.5509720000000  0.5424590000000 1.0
C      1  0.5239620000000  0.5570910000000  0.5551750000000 1.0
C      1  0.5130140000000  0.5145970000000  0.5445680000000 1.0
C      1  0.4112400000000  0.4715110000000  0.5072890000000 1.0
C      1  0.5303880000000  0.5190060000000  0.4586450000000 1.0
C      1  0.4988050000000  0.4577610000000  0.4229450000000 1.0
C      1  0.5601360000000  0.5153240000000  0.4585150000000 1.0
C      1  0.5673020000000  0.4696850000000  0.5351850000000 1.0
C      1  0.5472330000000  0.4504280000000  0.5744630000000 1.0
C      1  0.5673140000000  0.4545830000000  0.5589000000000 1.0
C      1  0.5101770000000  0.5749270000000  0.5342800000000 1.0
C      1  0.4445460000000  0.4416800000000  0.5131280000000 1.0
C      1  0.4624540000000  0.4919360000000  0.4221520000000 1.0
C      1  0.4750210000000  0.4416040000000  0.5495450000000 1.0
C      1  0.4462860000000  0.5069490000000  0.5143630000000 1.0
C      1  0.4810960000000  0.4336790000000  0.4597690000000 1.0
C      1  0.5541970000000  0.4417190000000  0.4928650000000 1.0
C      1  0.4850630000000  0.4545690000000  0.4817230000000 1.0
C      1  0.5438570000000  0.4749240000000  0.4282110000000 1.0
C      1  0.4705990000000  0.4648620000000  0.4259670000000 1.0
C      1  0.5509540000000  0.4440310000000  0.4643960000000 1.0
C      1  0.5696240000000  0.5605470000000  0.5379060000000 1.0
C      1  0.4957930000000  0.5427410000000  0.4864750000000 1.0
C      1  0.5585520000000  0.4680240000000  0.4500240000000 1.0
C      1  0.5045840000000  0.4439700000000  0.5461130000000 1.0
C      1  0.5199830000000  0.4939670000000  0.4757280000000 1.0
C      1  0.5686420000000  0.4623650000000  0.5070330000000 1.0
C      1  0.4904790000000  0.5196370000000  0.5023150000000 1.0
C      1  0.4246360000000  0.5032040000000  0.5350950000000 1.0
C      1  0.4554120000000  0.4588160000000  0.4912810000000 1.0
C      1  0.5104280000000  0.4229540000000  0.5244660000000 1.0
C      1  0.4383410000000  0.5505370000000  0.5342870000000 1.0
C      1  0.5641300000000  0.5627060000000  0.5107520000000 1.0
C      1  0.5138390000000  0.5407080000000  0.5776240000000 1.0
C      1  0.5269810000000  0.5880080000000  0.5169170000000 1.0
C      1  0.4646100000000  0.4272910000000  0.5266790000000 1.0
C      1  0.4781440000000  0.4764940000000  0.5272810000000 1.0
C      1  0.5354960000000  0.5319810000000  0.5040180000000 1.0
C      1  0.4947260000000  0.4820050000000  0.4721960000000 1.0
C      1  0.5700760000000  0.4898740000000  0.4654300000000 1.0
C      1  0.4254830000000  0.4576390000000  0.5267000000000 1.0
C      1  0.4518870000000  0.5493370000000  0.4636480000000 1.0
C      1  0.4772530000000  0.5387380000000  0.5679760000000 1.0
C      1  0.4671700000000  0.5707660000000  0.5020870000000 1.0
C      1  0.4768460000000  0.5365550000000  0.4255890000000 1.0
C      1  0.4900400000000  0.5472290000000  0.5909800000000 1.0
C      1  0.4770990000000  0.5623680000000  0.4743370000000 1.0
C      1  0.4336890000000  0.4936100000000  0.4629990000000 1.0
C      1  0.4441820000000  0.5058210000000  0.4396210000000 1.0
C      1  0.5233170000000  0.5420030000000  0.4785860000000 1.0
C      1  0.5196710000000  0.5063270000000  0.5025780000000 1.0
C      1  0.4774640000000  0.4996570000000  0.4859110000000 1.0
C      1  0.5234660000000  0.4923850000000  0.5273420000000 1.0
C      1  0.4829280000000  0.5137230000000  0.5522200000000 1.0
C      1  0.5654580000000  0.5353460000000  0.4984650000000 1.0
C      1  0.5095460000000  0.4833820000000  0.5749230000000 1.0
END
