TITL C-136416-9155-6 0.131456692023433 125000 -601.917318830953 0 0 86 (C1) n - 1
REM
REM in /rds/project/t2_vol4/rds-t2-cs072/BORA/CARBON/from-Arr/AIRSS/Generating-Clusters/GAP-ML-2020/Only-C1/SD-CG/HFTN-CG
REM
REM
REM
REM
REM
REM ./C.cell (11c1c37f851c82e70ff6c80c92926a4b)
REM AIRSS Version 0.9.1 bugfix July 2018 build 013d7b7c2542+ Fri, 06 Jul 2018 19:26:36 +0100
REM compiler GCC version 9.3.0
REM options -cpp -mtune=generic -march=x86-64 -g -O0
REM seed 1589219210 -150163812 -326552114 -2101312073 969935335 1526260441 -2069911899 -351799353 -294289639 808166707 1555394845 -1819124901 1210970532 -1829679303 975822334 -115515595 -310164034 -1173990192 960003507 513556131 526181342 -2092856665 -1836411559 -1860275985 -2061593048 -1854057616 -981046268 478930393 52477713 1034874178 -593951239 -663141369 2058506521
REM
CELL 1.54180   50.00000   50.00000   50.00000   90.00000   90.00000   90.00000
LATT -1
SFAC C  
C      1  0.5797840000000  0.5243020000000  0.4959490000000 1.0
C      1  0.4547860000000  0.5591970000000  0.5295410000000 1.0
C      1  0.5492950000000  0.5610140000000  0.5097660000000 1.0
C      1  0.4958300000000  0.4830350000000  0.4877760000000 1.0
C      1  0.5454100000000  0.5617090000000  0.4445620000000 1.0
C      1  0.4973810000000  0.4641030000000  0.5599140000000 1.0
C      1  0.4775850000000  0.5283920000000  0.4886290000000 1.0
C      1  0.5192020000000  0.5602340000000  0.5024280000000 1.0
C      1  0.4874370000000  0.4506210000000  0.4469420000000 1.0
C      1  0.4996540000000  0.4626400000000  0.5296790000000 1.0
C      1  0.4771710000000  0.5729340000000  0.5190890000000 1.0
C      1  0.5576260000000  0.4971480000000  0.5594200000000 1.0
C      1  0.5551840000000  0.5533600000000  0.5370380000000 1.0
C      1  0.4670570000000  0.4972720000000  0.5651510000000 1.0
C      1  0.4755950000000  0.4607880000000  0.4915990000000 1.0
C      1  0.4574090000000  0.4527690000000  0.4493820000000 1.0
C      1  0.4893580000000  0.5140900000000  0.5733930000000 1.0
C      1  0.4698500000000  0.4684470000000  0.5200330000000 1.0
C      1  0.5146200000000  0.5280040000000  0.4237810000000 1.0
C      1  0.5683930000000  0.5510390000000  0.4906380000000 1.0
C      1  0.5659210000000  0.5059150000000  0.4781350000000 1.0
C      1  0.4602990000000  0.4228650000000  0.5039420000000 1.0
C      1  0.5442930000000  0.4196000000000  0.5121210000000 1.0
C      1  0.5233060000000  0.5117050000000  0.4544040000000 1.0
C      1  0.4560410000000  0.4510560000000  0.5406300000000 1.0
C      1  0.4978660000000  0.4328660000000  0.5221310000000 1.0
C      1  0.4251650000000  0.5270860000000  0.5083020000000 1.0
C      1  0.4983390000000  0.5607330000000  0.4520880000000 1.0
C      1  0.5486330000000  0.4375860000000  0.4909490000000 1.0
C      1  0.4772760000000  0.5167520000000  0.4622320000000 1.0
C      1  0.5412380000000  0.5227540000000  0.4730420000000 1.0
C      1  0.5458110000000  0.4718700000000  0.5645140000000 1.0
C      1  0.5238130000000  0.5294740000000  0.4981140000000 1.0
C      1  0.4504740000000  0.5638440000000  0.4824120000000 1.0
C      1  0.5659430000000  0.4595780000000  0.4967700000000 1.0
C      1  0.4482330000000  0.4593940000000  0.4779510000000 1.0
C      1  0.5426700000000  0.4659230000000  0.4554010000000 1.0
C      1  0.5289710000000  0.4786000000000  0.4334990000000 1.0
C      1  0.5001760000000  0.5701270000000  0.4793790000000 1.0
C      1  0.4694350000000  0.4267550000000  0.5305440000000 1.0
C      1  0.5306990000000  0.4429480000000  0.4685710000000 1.0
C      1  0.4752350000000  0.5760230000000  0.4908170000000 1.0
C      1  0.4871620000000  0.4326720000000  0.4922430000000 1.0
C      1  0.5145620000000  0.4811900000000  0.5111330000000 1.0
C      1  0.5701340000000  0.4677160000000  0.5245740000000 1.0
C      1  0.4376690000000  0.4402190000000  0.4987630000000 1.0
C      1  0.4510770000000  0.5031910000000  0.4564540000000 1.0
C      1  0.5797480000000  0.5409250000000  0.5402510000000 1.0
C      1  0.4541750000000  0.4873190000000  0.4315810000000 1.0
C      1  0.5349710000000  0.5441810000000  0.5556270000000 1.0
C      1  0.5554070000000  0.5487560000000  0.4650510000000 1.0
C      1  0.4308950000000  0.4544910000000  0.5239950000000 1.0
C      1  0.5188540000000  0.4760590000000  0.5737990000000 1.0
C      1  0.5108810000000  0.5092500000000  0.5158990000000 1.0
C      1  0.5084820000000  0.5540840000000  0.5519000000000 1.0
C      1  0.5327090000000  0.5062630000000  0.4277950000000 1.0
C      1  0.5204840000000  0.5547460000000  0.4351260000000 1.0
C      1  0.5217860000000  0.4169650000000  0.5298060000000 1.0
C      1  0.4825270000000  0.5079900000000  0.5059750000000 1.0
C      1  0.4990560000000  0.4763500000000  0.4371790000000 1.0
C      1  0.5031420000000  0.5672180000000  0.5269150000000 1.0
C      1  0.4381260000000  0.5523970000000  0.5073990000000 1.0
C      1  0.4763090000000  0.5427020000000  0.4447630000000 1.0
C      1  0.4568610000000  0.4936950000000  0.5105890000000 1.0
C      1  0.4237370000000  0.5145560000000  0.4832750000000 1.0
C      1  0.4859270000000  0.5401660000000  0.5624650000000 1.0
C      1  0.4417700000000  0.4892500000000  0.4827320000000 1.0
C      1  0.4331520000000  0.5267410000000  0.4600540000000 1.0
C      1  0.5156300000000  0.5043200000000  0.5773690000000 1.0
C      1  0.4339110000000  0.5053650000000  0.5284840000000 1.0
C      1  0.4864230000000  0.5234360000000  0.4234640000000 1.0
C      1  0.4433130000000  0.4627190000000  0.4275640000000 1.0
C      1  0.5570510000000  0.4528700000000  0.5456360000000 1.0
C      1  0.4489050000000  0.5501780000000  0.4578060000000 1.0
C      1  0.5388100000000  0.5183010000000  0.5676360000000 1.0
C      1  0.4994660000000  0.4966290000000  0.4617980000000 1.0
C      1  0.4807080000000  0.4948990000000  0.4219090000000 1.0
C      1  0.4599360000000  0.5410500000000  0.5507020000000 1.0
C      1  0.5469230000000  0.4275220000000  0.5389850000000 1.0
C      1  0.4695650000000  0.4690410000000  0.5623240000000 1.0
C      1  0.4199790000000  0.4789710000000  0.5279200000000 1.0
C      1  0.5023810000000  0.4357830000000  0.4662470000000 1.0
C      1  0.4488170000000  0.5148060000000  0.5519200000000 1.0
C      1  0.5743660000000  0.4940630000000  0.5358170000000 1.0
C      1  0.5829790000000  0.5185730000000  0.5237500000000 1.0
C      1  0.5627690000000  0.4778290000000  0.4746690000000 1.0
END
