TITL C-134172-9899-1 -0.254445919107565 125000 -879.97643631635 0 0 127 (C1) n - 1
REM
REM in /rds/project/t2_vol4/rds-t2-cs072/BORA/CARBON/from-Arr/AIRSS/Generating-Clusters/GAP-ML-2020/Only-C1/SD-CG/HFTN-CG
REM
REM
REM
REM
REM
REM ./C.cell (11c1c37f851c82e70ff6c80c92926a4b)
REM AIRSS Version 0.9.1 bugfix July 2018 build 013d7b7c2542+ Fri, 06 Jul 2018 19:26:36 +0100
REM compiler GCC version 9.3.0
REM options -cpp -mtune=generic -march=x86-64 -g -O0
REM seed 842205723 371732045 825585466 -58516748 -1064762352 -598865996 489457826 766556836 -1107642648 156183836 373927943 1298672900 -1592032396 -1586429053 487954784 -15208493 -1759015870 -725149600 -1201575677 -1574722453 36236729 1260783683 1916174324 -802425840 -982746841 11097928 -524472679 -541648997 1622248219 -2145514243 577804639 1077025869 1568970924
REM
CELL 1.54180   50.00000   50.00000   50.00000   90.00000   90.00000   90.00000
LATT -1
SFAC C  
C      1  0.5014070000000  0.4365280000000  0.4173440000000 1.0
C      1  0.4577490000000  0.5764680000000  0.5579290000000 1.0
C      1  0.4865350000000  0.4119660000000  0.5072480000000 1.0
C      1  0.4132310000000  0.4713880000000  0.5012200000000 1.0
C      1  0.5241310000000  0.5214510000000  0.4962750000000 1.0
C      1  0.4840580000000  0.5512640000000  0.4951460000000 1.0
C      1  0.5489830000000  0.4644250000000  0.5063100000000 1.0
C      1  0.5491070000000  0.4256390000000  0.4795860000000 1.0
C      1  0.4637990000000  0.4732220000000  0.5173020000000 1.0
C      1  0.5289860000000  0.4936110000000  0.5367320000000 1.0
C      1  0.4885240000000  0.5129890000000  0.5584310000000 1.0
C      1  0.5888820000000  0.5261080000000  0.5087310000000 1.0
C      1  0.4693870000000  0.5774110000000  0.4860490000000 1.0
C      1  0.5153460000000  0.4302170000000  0.5424710000000 1.0
C      1  0.4486800000000  0.4942720000000  0.5277600000000 1.0
C      1  0.4732020000000  0.4509280000000  0.4738850000000 1.0
C      1  0.4902330000000  0.4416110000000  0.5487200000000 1.0
C      1  0.5219370000000  0.4561880000000  0.5801590000000 1.0
C      1  0.5208590000000  0.4616310000000  0.4995440000000 1.0
C      1  0.5251970000000  0.5137370000000  0.4656630000000 1.0
C      1  0.4646380000000  0.5259660000000  0.4889340000000 1.0
C      1  0.5259080000000  0.5965670000000  0.5090970000000 1.0
C      1  0.4764150000000  0.5939360000000  0.5125280000000 1.0
C      1  0.5534970000000  0.4735490000000  0.4779250000000 1.0
C      1  0.5894400000000  0.4671950000000  0.4328670000000 1.0
C      1  0.5413000000000  0.4748470000000  0.4185130000000 1.0
C      1  0.5489280000000  0.5456870000000  0.5596310000000 1.0
C      1  0.5212460000000  0.4715900000000  0.4719180000000 1.0
C      1  0.5043470000000  0.5724140000000  0.5446990000000 1.0
C      1  0.5462540000000  0.4081050000000  0.5225500000000 1.0
C      1  0.5406950000000  0.5037160000000  0.4222940000000 1.0
C      1  0.4046980000000  0.5261050000000  0.5453390000000 1.0
C      1  0.4327120000000  0.4582150000000  0.4570960000000 1.0
C      1  0.5636240000000  0.4599100000000  0.4323880000000 1.0
C      1  0.4822520000000  0.5783830000000  0.4593200000000 1.0
C      1  0.4137720000000  0.5534920000000  0.5498340000000 1.0
C      1  0.5970570000000  0.4792850000000  0.4570190000000 1.0
C      1  0.5746220000000  0.5093620000000  0.5291910000000 1.0
C      1  0.5497110000000  0.4717760000000  0.5383530000000 1.0
C      1  0.4646310000000  0.4265670000000  0.5445020000000 1.0
C      1  0.4285990000000  0.5119990000000  0.4245450000000 1.0
C      1  0.5328480000000  0.4776830000000  0.5939520000000 1.0
C      1  0.4339550000000  0.4849760000000  0.5539180000000 1.0
C      1  0.4996070000000  0.5060000000000  0.5070880000000 1.0
C      1  0.5353570000000  0.5243440000000  0.5741240000000 1.0
C      1  0.5524090000000  0.4472810000000  0.4588390000000 1.0
C      1  0.4513840000000  0.4960030000000  0.4244490000000 1.0
C      1  0.3988660000000  0.5216780000000  0.5168040000000 1.0
C      1  0.4630050000000  0.4180430000000  0.4474310000000 1.0
C      1  0.5133890000000  0.5482760000000  0.4859270000000 1.0
C      1  0.5594930000000  0.5400640000000  0.4447830000000 1.0
C      1  0.5777830000000  0.4803820000000  0.5366980000000 1.0
C      1  0.5649130000000  0.4176400000000  0.5012960000000 1.0
C      1  0.4645100000000  0.4758850000000  0.4885640000000 1.0
C      1  0.5081920000000  0.4806540000000  0.5197040000000 1.0
C      1  0.5225600000000  0.5259420000000  0.4180490000000 1.0
C      1  0.4209220000000  0.5106420000000  0.5624020000000 1.0
C      1  0.4031200000000  0.4989750000000  0.4993620000000 1.0
C      1  0.5422890000000  0.5141220000000  0.5194240000000 1.0
C      1  0.4329980000000  0.5832130000000  0.5165450000000 1.0
C      1  0.5086120000000  0.5899450000000  0.4571310000000 1.0
C      1  0.5716090000000  0.5360160000000  0.5452740000000 1.0
C      1  0.4750630000000  0.4359880000000  0.4287330000000 1.0
C      1  0.4660680000000  0.5104860000000  0.5771370000000 1.0
C      1  0.5107450000000  0.4219310000000  0.4400070000000 1.0
C      1  0.4115930000000  0.5671090000000  0.5258280000000 1.0
C      1  0.5825350000000  0.5229360000000  0.4814170000000 1.0
C      1  0.6121620000000  0.4639380000000  0.5022750000000 1.0
C      1  0.5937620000000  0.4594660000000  0.5233190000000 1.0
C      1  0.4934600000000  0.4508250000000  0.5760920000000 1.0
C      1  0.4791410000000  0.5044240000000  0.4222110000000 1.0
C      1  0.4050600000000  0.5480490000000  0.5053100000000 1.0
C      1  0.5131130000000  0.5397930000000  0.4572500000000 1.0
C      1  0.4934400000000  0.5294100000000  0.4203540000000 1.0
C      1  0.5531000000000  0.5114830000000  0.4481750000000 1.0
C      1  0.4916970000000  0.5546200000000  0.4395210000000 1.0
C      1  0.5729140000000  0.4973930000000  0.4670900000000 1.0
C      1  0.4250000000000  0.5187530000000  0.4502420000000 1.0
C      1  0.4863730000000  0.4678260000000  0.5321260000000 1.0
C      1  0.4546360000000  0.4836080000000  0.5759760000000 1.0
C      1  0.4748320000000  0.4610640000000  0.4443140000000 1.0
C      1  0.5458850000000  0.5823880000000  0.5257650000000 1.0
C      1  0.5241290000000  0.4488750000000  0.4502300000000 1.0
C      1  0.5199570000000  0.4315380000000  0.4927610000000 1.0
C      1  0.5021080000000  0.5940030000000  0.5233170000000 1.0
C      1  0.5823160000000  0.5500940000000  0.5230790000000 1.0
C      1  0.4472720000000  0.4412320000000  0.5605820000000 1.0
C      1  0.4559320000000  0.5887560000000  0.5311940000000 1.0
C      1  0.4892710000000  0.4112230000000  0.4559790000000 1.0
C      1  0.4841750000000  0.5227680000000  0.5306600000000 1.0
C      1  0.5157930000000  0.4628310000000  0.4241640000000 1.0
C      1  0.4400050000000  0.5759580000000  0.4903860000000 1.0
C      1  0.4278430000000  0.4557380000000  0.5461580000000 1.0
C      1  0.4471650000000  0.4351690000000  0.4700110000000 1.0
C      1  0.5732320000000  0.5468670000000  0.4685100000000 1.0
C      1  0.5624300000000  0.5674550000000  0.4848010000000 1.0
C      1  0.4380270000000  0.5320390000000  0.4723970000000 1.0
C      1  0.4194570000000  0.5037690000000  0.4748050000000 1.0
C      1  0.4891600000000  0.5501900000000  0.5243190000000 1.0
C      1  0.4491390000000  0.4708490000000  0.4378760000000 1.0
C      1  0.4234950000000  0.5540910000000  0.4837280000000 1.0
C      1  0.4920830000000  0.4248660000000  0.4819560000000 1.0
C      1  0.4838160000000  0.5778950000000  0.5643710000000 1.0
C      1  0.4813440000000  0.5005190000000  0.4832500000000 1.0
C      1  0.5369540000000  0.5033340000000  0.5919790000000 1.0
C      1  0.5164190000000  0.5087710000000  0.5591950000000 1.0
C      1  0.4571590000000  0.5193180000000  0.5186880000000 1.0
C      1  0.6139410000000  0.4703090000000  0.4777090000000 1.0
C      1  0.5341270000000  0.5712940000000  0.4822630000000 1.0
C      1  0.5169140000000  0.4150260000000  0.5186250000000 1.0
C      1  0.5340980000000  0.5491360000000  0.4336600000000 1.0
C      1  0.4383610000000  0.5549680000000  0.5647690000000 1.0
C      1  0.5041200000000  0.4931540000000  0.4630110000000 1.0
C      1  0.5345580000000  0.5683010000000  0.5474990000000 1.0
C      1  0.4652990000000  0.4582640000000  0.5794190000000 1.0
C      1  0.5585010000000  0.4259230000000  0.5418920000000 1.0
C      1  0.4323530000000  0.4770620000000  0.4785920000000 1.0
C      1  0.5795070000000  0.4338760000000  0.5237220000000 1.0
C      1  0.4424670000000  0.5273440000000  0.5730950000000 1.0
C      1  0.5382150000000  0.4460390000000  0.5527700000000 1.0
C      1  0.4940580000000  0.4824940000000  0.4358240000000 1.0
C      1  0.4222310000000  0.4494740000000  0.5172230000000 1.0
C      1  0.5686800000000  0.5713920000000  0.5118550000000 1.0
C      1  0.5161740000000  0.5725440000000  0.4344000000000 1.0
C      1  0.5237760000000  0.5974200000000  0.4799580000000 1.0
C      1  0.4606730000000  0.4179890000000  0.5180530000000 1.0
C      1  0.4402850000000  0.4308650000000  0.5013170000000 1.0
END
