TITL C-134897-4540-6 -5.02247942256271 125000 -357.956477591529 0 0 53 (C1) n - 1
REM
REM in /rds/project/t2_vol4/rds-t2-cs072/BORA/CARBON/from-Arr/AIRSS/Generating-Clusters/GAP-ML-2020/Only-C1/SD-CG/HFTN-CG
REM
REM
REM
REM
REM
REM ./C.cell (11c1c37f851c82e70ff6c80c92926a4b)
REM AIRSS Version 0.9.1 bugfix July 2018 build 013d7b7c2542+ Fri, 06 Jul 2018 19:26:36 +0100
REM compiler GCC version 9.3.0
REM options -cpp -mtune=generic -march=x86-64 -g -O0
REM seed 1883353262 -1108478056 -937981605 -1405094154 -1568689514 -2063614005 -940729111 -20995798 1491805218 1389176617 -1991931970 -365121248 531048838 -495420445 2076369505 199657207 -1988568302 637954706 276438014 -1701031157 -356647276 -131879636 1338585486 -1157363057 2142191292 248610849 1352251817 109535194 -1078057524 869756803 -595234280 651149422 -1529017227
REM
CELL 1.54180   50.00000   50.00000   50.00000   90.00000   90.00000   90.00000
LATT -1
SFAC C  
C      1  0.5691610000000  0.5011000000000  0.4807290000000 1.0
C      1  0.4630470000000  0.5266190000000  0.4502750000000 1.0
C      1  0.4708270000000  0.4560940000000  0.4754140000000 1.0
C      1  0.5282910000000  0.4732630000000  0.4466380000000 1.0
C      1  0.5047350000000  0.5338370000000  0.5500290000000 1.0
C      1  0.4424040000000  0.4741420000000  0.4990370000000 1.0
C      1  0.4913910000000  0.4651070000000  0.5195400000000 1.0
C      1  0.5517010000000  0.5250950000000  0.5279250000000 1.0
C      1  0.4318390000000  0.4973280000000  0.5099100000000 1.0
C      1  0.4389150000000  0.5152960000000  0.4638890000000 1.0
C      1  0.5239300000000  0.5019200000000  0.5003090000000 1.0
C      1  0.5355340000000  0.4647490000000  0.4726530000000 1.0
C      1  0.4776330000000  0.5023550000000  0.5691570000000 1.0
C      1  0.5774570000000  0.5191360000000  0.4636710000000 1.0
C      1  0.4482490000000  0.4885870000000  0.4540990000000 1.0
C      1  0.5046780000000  0.4940050000000  0.5726070000000 1.0
C      1  0.5332160000000  0.5418290000000  0.4811460000000 1.0
C      1  0.4702350000000  0.5003120000000  0.4392460000000 1.0
C      1  0.5501890000000  0.5271960000000  0.4631130000000 1.0
C      1  0.4723730000000  0.5524230000000  0.4880480000000 1.0
C      1  0.4617620000000  0.4842650000000  0.5527180000000 1.0
C      1  0.5084860000000  0.5331810000000  0.4656220000000 1.0
C      1  0.4727960000000  0.4747850000000  0.4992950000000 1.0
C      1  0.4783140000000  0.5042300000000  0.4899870000000 1.0
C      1  0.4773410000000  0.5296390000000  0.5078820000000 1.0
C      1  0.4782140000000  0.5268510000000  0.5559830000000 1.0
C      1  0.5160200000000  0.4468450000000  0.4819210000000 1.0
C      1  0.5349610000000  0.4484770000000  0.5257960000000 1.0
C      1  0.4301070000000  0.5167480000000  0.4897240000000 1.0
C      1  0.4934910000000  0.4486120000000  0.4629700000000 1.0
C      1  0.5061250000000  0.5413830000000  0.5215960000000 1.0
C      1  0.5484240000000  0.4841420000000  0.4930580000000 1.0
C      1  0.5311350000000  0.4610460000000  0.5522330000000 1.0
C      1  0.5221160000000  0.5154380000000  0.5633590000000 1.0
C      1  0.4795380000000  0.5773500000000  0.4993150000000 1.0
C      1  0.5317380000000  0.5311940000000  0.5087030000000 1.0
C      1  0.4937230000000  0.4894960000000  0.4303570000000 1.0
C      1  0.5540210000000  0.4690330000000  0.5182470000000 1.0
C      1  0.4809980000000  0.5437270000000  0.4622510000000 1.0
C      1  0.5045520000000  0.5063130000000  0.4792550000000 1.0
C      1  0.5098500000000  0.4910240000000  0.5233160000000 1.0
C      1  0.5506040000000  0.4811400000000  0.5450230000000 1.0
C      1  0.5064460000000  0.4668520000000  0.5639260000000 1.0
C      1  0.4460520000000  0.5019930000000  0.5348510000000 1.0
C      1  0.5119740000000  0.4453930000000  0.5101860000000 1.0
C      1  0.4617840000000  0.5257130000000  0.5330760000000 1.0
C      1  0.4815140000000  0.4635150000000  0.5473750000000 1.0
C      1  0.5282990000000  0.5229300000000  0.4452120000000 1.0
C      1  0.5016880000000  0.4637400000000  0.4407610000000 1.0
C      1  0.5219570000000  0.4985420000000  0.4337860000000 1.0
C      1  0.4989150000000  0.5703060000000  0.5146520000000 1.0
C      1  0.5463060000000  0.5091690000000  0.5492840000000 1.0
C      1  0.4449450000000  0.4665330000000  0.4708420000000 1.0
END
