TITL C-136396-9166-8 -10.4015825486145 125000 -688.91079753818 0 0 98 (C1) n - 1
REM
REM in /rds/project/t2_vol4/rds-t2-cs072/BORA/CARBON/from-Arr/AIRSS/Generating-Clusters/GAP-ML-2020/Only-C1/SD-CG/HFTN-CG
REM
REM
REM
REM
REM
REM ./C.cell (11c1c37f851c82e70ff6c80c92926a4b)
REM AIRSS Version 0.9.1 bugfix July 2018 build 013d7b7c2542+ Fri, 06 Jul 2018 19:26:36 +0100
REM compiler GCC version 9.3.0
REM options -cpp -mtune=generic -march=x86-64 -g -O0
REM seed -621229372 -516935580 1071435939 -1246808512 -186408799 -577356696 -263083042 -635420563 1339250926 1885123809 -285155484 1144473247 535197927 -829638259 1248360418 -1623823968 338734841 1350391735 -471913788 532067874 -728704224 1850343899 -940143078 1927264206 1789068849 -628820870 -449310795 362082975 1316168307 -268530386 -1393956660 -806254227 42435084
REM
CELL 1.54180   50.00000   50.00000   50.00000   90.00000   90.00000   90.00000
LATT -1
SFAC C  
C      1  0.5591430000000  0.5455020000000  0.4809600000000 1.0
C      1  0.4310560000000  0.5298670000000  0.4997180000000 1.0
C      1  0.5594500000000  0.5066550000000  0.5616780000000 1.0
C      1  0.5411400000000  0.5533760000000  0.5509760000000 1.0
C      1  0.5083650000000  0.5017240000000  0.5874020000000 1.0
C      1  0.4256700000000  0.4651210000000  0.5089060000000 1.0
C      1  0.5486960000000  0.4817050000000  0.5716850000000 1.0
C      1  0.5025290000000  0.5218020000000  0.5185590000000 1.0
C      1  0.5219720000000  0.4753060000000  0.4804040000000 1.0
C      1  0.4897620000000  0.4272370000000  0.4483040000000 1.0
C      1  0.4912620000000  0.5132350000000  0.4459400000000 1.0
C      1  0.4655290000000  0.4284490000000  0.4641510000000 1.0
C      1  0.4842610000000  0.4830390000000  0.4494650000000 1.0
C      1  0.4218870000000  0.4897050000000  0.5236990000000 1.0
C      1  0.4878490000000  0.4454920000000  0.5477720000000 1.0
C      1  0.4562960000000  0.4254100000000  0.5092470000000 1.0
C      1  0.5377910000000  0.4291480000000  0.4547700000000 1.0
C      1  0.5573340000000  0.4479830000000  0.4673480000000 1.0
C      1  0.5418980000000  0.5043460000000  0.4585470000000 1.0
C      1  0.5752980000000  0.5321130000000  0.5230220000000 1.0
C      1  0.4430620000000  0.4444430000000  0.5228910000000 1.0
C      1  0.4730010000000  0.4174740000000  0.4898980000000 1.0
C      1  0.4728090000000  0.5255630000000  0.4259280000000 1.0
C      1  0.5327560000000  0.5262320000000  0.4801770000000 1.0
C      1  0.4521300000000  0.5712640000000  0.4818040000000 1.0
C      1  0.4677750000000  0.5670630000000  0.5384440000000 1.0
C      1  0.4576580000000  0.5449590000000  0.5545620000000 1.0
C      1  0.5742520000000  0.4595750000000  0.5369240000000 1.0
C      1  0.4390220000000  0.5331030000000  0.4535190000000 1.0
C      1  0.5702930000000  0.5126990000000  0.4558320000000 1.0
C      1  0.5628210000000  0.5403940000000  0.4515190000000 1.0
C      1  0.5180660000000  0.5580610000000  0.4445530000000 1.0
C      1  0.5354360000000  0.4405630000000  0.5543210000000 1.0
C      1  0.4968670000000  0.4719240000000  0.4250190000000 1.0
C      1  0.4858310000000  0.5314050000000  0.4705620000000 1.0
C      1  0.5574350000000  0.4582330000000  0.5593380000000 1.0
C      1  0.5445840000000  0.5299570000000  0.5677570000000 1.0
C      1  0.4244930000000  0.5765720000000  0.4856990000000 1.0
C      1  0.5828480000000  0.4801740000000  0.4962270000000 1.0
C      1  0.4398720000000  0.5238240000000  0.5452370000000 1.0
C      1  0.4763230000000  0.5371580000000  0.5752710000000 1.0
C      1  0.4968230000000  0.5766400000000  0.5100360000000 1.0
C      1  0.5563840000000  0.5542430000000  0.5268760000000 1.0
C      1  0.5390250000000  0.4298930000000  0.5279310000000 1.0
C      1  0.4259930000000  0.5178440000000  0.4735610000000 1.0
C      1  0.4381930000000  0.4907040000000  0.4390920000000 1.0
C      1  0.3985530000000  0.5423450000000  0.5183180000000 1.0
C      1  0.4984910000000  0.4524750000000  0.5209590000000 1.0
C      1  0.5792350000000  0.5292020000000  0.4953750000000 1.0
C      1  0.5025700000000  0.5472790000000  0.5761700000000 1.0
C      1  0.5112870000000  0.4515680000000  0.5657330000000 1.0
C      1  0.4567400000000  0.4707190000000  0.4433360000000 1.0
C      1  0.4679530000000  0.5678370000000  0.5074470000000 1.0
C      1  0.4478350000000  0.4964690000000  0.5365660000000 1.0
C      1  0.4952680000000  0.5754130000000  0.5390030000000 1.0
C      1  0.5213830000000  0.4772020000000  0.5797380000000 1.0
C      1  0.5288350000000  0.4870610000000  0.5055760000000 1.0
C      1  0.4950240000000  0.4731610000000  0.4759410000000 1.0
C      1  0.5828970000000  0.4838950000000  0.5249540000000 1.0
C      1  0.4130880000000  0.5564890000000  0.4997370000000 1.0
C      1  0.4742910000000  0.5545180000000  0.4333960000000 1.0
C      1  0.5119960000000  0.5474250000000  0.4726950000000 1.0
C      1  0.5015060000000  0.4432810000000  0.4274910000000 1.0
C      1  0.4970440000000  0.5677530000000  0.4305110000000 1.0
C      1  0.5144990000000  0.5642780000000  0.5566460000000 1.0
C      1  0.5388250000000  0.4684240000000  0.4296580000000 1.0
C      1  0.5124090000000  0.4177620000000  0.4646560000000 1.0
C      1  0.5429590000000  0.4741880000000  0.4588600000000 1.0
C      1  0.5212950000000  0.5263440000000  0.5833020000000 1.0
C      1  0.5264560000000  0.5145970000000  0.5052300000000 1.0
C      1  0.4467550000000  0.5168920000000  0.4320910000000 1.0
C      1  0.4592410000000  0.4504420000000  0.5469610000000 1.0
C      1  0.5147980000000  0.4772290000000  0.5275850000000 1.0
C      1  0.5184990000000  0.5674370000000  0.4948740000000 1.0
C      1  0.4473790000000  0.4506450000000  0.4623890000000 1.0
C      1  0.4289890000000  0.4656360000000  0.4797950000000 1.0
C      1  0.5647090000000  0.4411510000000  0.5174060000000 1.0
C      1  0.5373740000000  0.5397710000000  0.4354370000000 1.0
C      1  0.4948360000000  0.4980320000000  0.5351630000000 1.0
C      1  0.5719180000000  0.4523930000000  0.4913390000000 1.0
C      1  0.5462600000000  0.5634310000000  0.5014520000000 1.0
C      1  0.5025610000000  0.4146060000000  0.4914780000000 1.0
C      1  0.4772140000000  0.4918050000000  0.5625600000000 1.0
C      1  0.5143920000000  0.4279820000000  0.5134730000000 1.0
C      1  0.5762340000000  0.5080350000000  0.5385900000000 1.0
C      1  0.4607860000000  0.5517010000000  0.4603480000000 1.0
C      1  0.4724770000000  0.4936550000000  0.5125190000000 1.0
C      1  0.5205280000000  0.4874680000000  0.4192390000000 1.0
C      1  0.4797960000000  0.5203050000000  0.4982360000000 1.0
C      1  0.4810470000000  0.4687060000000  0.5001770000000 1.0
C      1  0.4171430000000  0.5206450000000  0.5249880000000 1.0
C      1  0.5224690000000  0.5127270000000  0.4357490000000 1.0
C      1  0.4552160000000  0.4762590000000  0.5559480000000 1.0
C      1  0.4803570000000  0.5096910000000  0.5828550000000 1.0
C      1  0.5829510000000  0.5050590000000  0.4814670000000 1.0
C      1  0.5300470000000  0.4412980000000  0.4297010000000 1.0
C      1  0.4591030000000  0.5393530000000  0.5059430000000 1.0
C      1  0.4255440000000  0.4907820000000  0.4654070000000 1.0
END
