TITL C-134197-9905-4 57.5375892411929 125000 -670.709312110531 0 0 95 (C1) n - 1
REM
REM in /rds/project/t2_vol4/rds-t2-cs072/BORA/CARBON/from-Arr/AIRSS/Generating-Clusters/GAP-ML-2020/Only-C1/SD-CG/HFTN-CG
REM
REM
REM
REM
REM
REM ./C.cell (11c1c37f851c82e70ff6c80c92926a4b)
REM AIRSS Version 0.9.1 bugfix July 2018 build 013d7b7c2542+ Fri, 06 Jul 2018 19:26:36 +0100
REM compiler GCC version 9.3.0
REM options -cpp -mtune=generic -march=x86-64 -g -O0
REM seed 911143279 1161146142 1156416507 36421236 2047644824 -1269953917 -2013412911 779143480 -1045719323 -1008251332 -1515488446 -707122786 -1688914590 195502137 1206224678 -502762245 -1016328256 -775611260 -912981685 -1103964077 1500345260 -1410576930 -1714046665 657024360 783898525 -1065713596 -1129940689 -765142004 -1575177968 678303159 -617974619 1180517107 -221464742
REM
CELL 1.54180   50.00000   50.00000   50.00000   90.00000   90.00000   90.00000
LATT -1
SFAC C  
C      1  0.4270550000000  0.4780630000000  0.5389430000000 1.0
C      1  0.4690480000000  0.4856600000000  0.4192870000000 1.0
C      1  0.4563630000000  0.5570730000000  0.5340650000000 1.0
C      1  0.5117990000000  0.5316400000000  0.5746790000000 1.0
C      1  0.5126300000000  0.5681050000000  0.5054290000000 1.0
C      1  0.5727560000000  0.5243680000000  0.4365060000000 1.0
C      1  0.4762380000000  0.4891110000000  0.5384820000000 1.0
C      1  0.4387450000000  0.5554790000000  0.4632980000000 1.0
C      1  0.5241740000000  0.4845250000000  0.5809620000000 1.0
C      1  0.4682670000000  0.4794180000000  0.5709960000000 1.0
C      1  0.5533020000000  0.4634580000000  0.5515440000000 1.0
C      1  0.4845220000000  0.4544670000000  0.5722940000000 1.0
C      1  0.4197000000000  0.4866150000000  0.4875380000000 1.0
C      1  0.4874830000000  0.4680520000000  0.5178980000000 1.0
C      1  0.5588320000000  0.4400140000000  0.5088190000000 1.0
C      1  0.4410100000000  0.4894890000000  0.5611770000000 1.0
C      1  0.4376690000000  0.5642430000000  0.4910860000000 1.0
C      1  0.5728460000000  0.4886540000000  0.5133940000000 1.0
C      1  0.4948320000000  0.4215220000000  0.5357530000000 1.0
C      1  0.5544680000000  0.4880340000000  0.4886720000000 1.0
C      1  0.5318050000000  0.4452970000000  0.5589590000000 1.0
C      1  0.4654890000000  0.5243490000000  0.5789640000000 1.0
C      1  0.4592410000000  0.4987640000000  0.5147860000000 1.0
C      1  0.5275960000000  0.4783560000000  0.4929620000000 1.0
C      1  0.4874490000000  0.4415340000000  0.4434450000000 1.0
C      1  0.5021460000000  0.5022940000000  0.5336730000000 1.0
C      1  0.5608740000000  0.4985140000000  0.4290090000000 1.0
C      1  0.4596760000000  0.5691270000000  0.5076420000000 1.0
C      1  0.5537680000000  0.5452190000000  0.4293500000000 1.0
C      1  0.5581180000000  0.5584300000000  0.4944110000000 1.0
C      1  0.4639630000000  0.5110160000000  0.4304440000000 1.0
C      1  0.5283000000000  0.5350380000000  0.4189290000000 1.0
C      1  0.4667710000000  0.4359540000000  0.4636330000000 1.0
C      1  0.4202970000000  0.5262840000000  0.5206480000000 1.0
C      1  0.5371770000000  0.5083170000000  0.4155440000000 1.0
C      1  0.4506380000000  0.4359610000000  0.5467980000000 1.0
C      1  0.5553370000000  0.5647990000000  0.4491390000000 1.0
C      1  0.5515100000000  0.5142900000000  0.5532380000000 1.0
C      1  0.4677880000000  0.4298520000000  0.4914390000000 1.0
C      1  0.4948570000000  0.4872840000000  0.4617270000000 1.0
C      1  0.4630130000000  0.5570880000000  0.4494230000000 1.0
C      1  0.4368370000000  0.4519950000000  0.5307890000000 1.0
C      1  0.4761950000000  0.4326410000000  0.5549840000000 1.0
C      1  0.4735590000000  0.5216250000000  0.5042770000000 1.0
C      1  0.5134280000000  0.4449630000000  0.4556850000000 1.0
C      1  0.5033400000000  0.5486090000000  0.4267340000000 1.0
C      1  0.5993320000000  0.4974210000000  0.4995920000000 1.0
C      1  0.4790980000000  0.5008690000000  0.5869190000000 1.0
C      1  0.5068660000000  0.5692260000000  0.4478320000000 1.0
C      1  0.4461470000000  0.4497950000000  0.5027780000000 1.0
C      1  0.5306780000000  0.4291180000000  0.4724220000000 1.0
C      1  0.4855910000000  0.5719250000000  0.4938790000000 1.0
C      1  0.4477410000000  0.4570070000000  0.4604960000000 1.0
C      1  0.4812140000000  0.5495260000000  0.5441120000000 1.0
C      1  0.4663940000000  0.4798100000000  0.4681580000000 1.0
C      1  0.5479170000000  0.4883720000000  0.5653160000000 1.0
C      1  0.4284090000000  0.4602090000000  0.4820340000000 1.0
C      1  0.5433110000000  0.5146940000000  0.4855110000000 1.0
C      1  0.5624110000000  0.5135330000000  0.5276350000000 1.0
C      1  0.5182980000000  0.4184550000000  0.4962240000000 1.0
C      1  0.5226760000000  0.4253790000000  0.5412150000000 1.0
C      1  0.5985760000000  0.5133940000000  0.4795990000000 1.0
C      1  0.5865120000000  0.5310680000000  0.4615460000000 1.0
C      1  0.4261210000000  0.5064840000000  0.4677760000000 1.0
C      1  0.4187640000000  0.5425770000000  0.4980920000000 1.0
C      1  0.5315390000000  0.5755790000000  0.4599470000000 1.0
C      1  0.5492050000000  0.5329000000000  0.5096790000000 1.0
C      1  0.5372230000000  0.4230580000000  0.5172240000000 1.0
C      1  0.5670490000000  0.4616690000000  0.5264640000000 1.0
C      1  0.4540010000000  0.5055870000000  0.4590880000000 1.0
C      1  0.4759120000000  0.5385300000000  0.4293140000000 1.0
C      1  0.4741940000000  0.5242310000000  0.4770180000000 1.0
C      1  0.5644010000000  0.4664300000000  0.4677150000000 1.0
C      1  0.5125010000000  0.4587190000000  0.5754560000000 1.0
C      1  0.4782990000000  0.4621990000000  0.4254680000000 1.0
C      1  0.4249120000000  0.4968900000000  0.5159030000000 1.0
C      1  0.4199830000000  0.5337080000000  0.4706260000000 1.0
C      1  0.4660070000000  0.4744400000000  0.4986960000000 1.0
C      1  0.4429340000000  0.5183580000000  0.5625860000000 1.0
C      1  0.5073380000000  0.5059260000000  0.5872370000000 1.0
C      1  0.4364990000000  0.5366080000000  0.5416150000000 1.0
C      1  0.5240760000000  0.5251830000000  0.4694370000000 1.0
C      1  0.5727230000000  0.5554850000000  0.4699660000000 1.0
C      1  0.5661330000000  0.4755660000000  0.4428240000000 1.0
C      1  0.4839890000000  0.5713610000000  0.4642020000000 1.0
C      1  0.4996740000000  0.5141440000000  0.4697860000000 1.0
C      1  0.4908900000000  0.4201540000000  0.5065950000000 1.0
C      1  0.5152230000000  0.4706780000000  0.4674420000000 1.0
C      1  0.5118510000000  0.4816550000000  0.5155580000000 1.0
C      1  0.4852900000000  0.5424320000000  0.5704360000000 1.0
C      1  0.5344390000000  0.5739920000000  0.4885620000000 1.0
C      1  0.5561820000000  0.4413830000000  0.4796990000000 1.0
C      1  0.4963300000000  0.5291800000000  0.5238030000000 1.0
C      1  0.5227970000000  0.5440680000000  0.5241060000000 1.0
C      1  0.5314410000000  0.5354350000000  0.5549580000000 1.0
END
