TITL C-131266-6858-10 -0.122397935726997 125000 -521.561353463537 0 0 76 (C1) n - 1
REM
REM in /rds/project/t2_vol4/rds-t2-cs072/BORA/CARBON/from-Arr/AIRSS/Generating-Clusters/GAP-ML-2020/Only-C1/SD-CG/HFTN-CG
REM
REM
REM
REM
REM
REM ./C.cell (11c1c37f851c82e70ff6c80c92926a4b)
REM AIRSS Version 0.9.1 bugfix July 2018 build 013d7b7c2542+ Fri, 06 Jul 2018 19:26:36 +0100
REM compiler GCC version 9.3.0
REM options -cpp -mtune=generic -march=x86-64 -g -O0
REM seed -1784087698 1834837579 1550753604 -1605474911 -1402053032 -1304011639 936360112 -1345728251 2083522184 -835612719 1226702258 -656092028 1180987101 -355598049 -1141747468 2055155110 -881564800 -1677012883 -336664159 1139510845 361987309 -2127577884 130753287 -1506809422 1945112855 -1019574215 2096457136 207448158 2017776453 -2127593288 -919252855 1294778299 -1881124682
REM
CELL 1.54180   50.00000   50.00000   50.00000   90.00000   90.00000   90.00000
LATT -1
SFAC C  
C      1  0.4634760000000  0.4785950000000  0.5579290000000 1.0
C      1  0.4939240000000  0.5321400000000  0.5120940000000 1.0
C      1  0.4464300000000  0.5450030000000  0.5388920000000 1.0
C      1  0.4300840000000  0.5288570000000  0.5202950000000 1.0
C      1  0.5294830000000  0.5489390000000  0.5434870000000 1.0
C      1  0.5190540000000  0.4886500000000  0.4290410000000 1.0
C      1  0.5313770000000  0.4368910000000  0.4780570000000 1.0
C      1  0.5125450000000  0.5603290000000  0.4763230000000 1.0
C      1  0.5384250000000  0.5512970000000  0.4679140000000 1.0
C      1  0.4879380000000  0.5628150000000  0.5244260000000 1.0
C      1  0.4846280000000  0.4282550000000  0.4964340000000 1.0
C      1  0.4518880000000  0.5608110000000  0.4950800000000 1.0
C      1  0.5129750000000  0.4250220000000  0.4962720000000 1.0
C      1  0.5539770000000  0.4474650000000  0.4951730000000 1.0
C      1  0.5203020000000  0.4478490000000  0.4532360000000 1.0
C      1  0.4903530000000  0.5683570000000  0.4569500000000 1.0
C      1  0.5359100000000  0.4692800000000  0.4416240000000 1.0
C      1  0.4665350000000  0.4429760000000  0.4803920000000 1.0
C      1  0.5548250000000  0.5411170000000  0.5524520000000 1.0
C      1  0.4463580000000  0.5068540000000  0.4439130000000 1.0
C      1  0.5697060000000  0.4896190000000  0.4734750000000 1.0
C      1  0.4730490000000  0.5736360000000  0.4807740000000 1.0
C      1  0.4798450000000  0.5076420000000  0.5185770000000 1.0
C      1  0.4433570000000  0.4582020000000  0.4417070000000 1.0
C      1  0.4732070000000  0.5103160000000  0.4731660000000 1.0
C      1  0.5637560000000  0.5433720000000  0.4807170000000 1.0
C      1  0.4967810000000  0.5300990000000  0.4827110000000 1.0
C      1  0.5565270000000  0.5133760000000  0.5617230000000 1.0
C      1  0.4899650000000  0.5547400000000  0.4337260000000 1.0
C      1  0.5693540000000  0.4723680000000  0.4971000000000 1.0
C      1  0.5365140000000  0.5241220000000  0.4549470000000 1.0
C      1  0.5637870000000  0.5170550000000  0.4648440000000 1.0
C      1  0.5585780000000  0.4764640000000  0.4526810000000 1.0
C      1  0.4397440000000  0.4644180000000  0.5550600000000 1.0
C      1  0.4967580000000  0.5745470000000  0.4984860000000 1.0
C      1  0.5351350000000  0.4956250000000  0.5233920000000 1.0
C      1  0.5477270000000  0.4397460000000  0.5226010000000 1.0
C      1  0.4590280000000  0.5643230000000  0.5238060000000 1.0
C      1  0.5025290000000  0.5548330000000  0.5506250000000 1.0
C      1  0.5198060000000  0.4755040000000  0.5097900000000 1.0
C      1  0.4236920000000  0.4753430000000  0.5342870000000 1.0
C      1  0.4281510000000  0.4863930000000  0.4825080000000 1.0
C      1  0.5218740000000  0.4286900000000  0.5230220000000 1.0
C      1  0.5322720000000  0.4978220000000  0.5584920000000 1.0
C      1  0.5086500000000  0.4583400000000  0.5588720000000 1.0
C      1  0.5223800000000  0.5342060000000  0.5201920000000 1.0
C      1  0.5351240000000  0.4678080000000  0.5594840000000 1.0
C      1  0.5042660000000  0.5052810000000  0.5664270000000 1.0
C      1  0.4949060000000  0.5278160000000  0.4316570000000 1.0
C      1  0.4925030000000  0.4808700000000  0.4325420000000 1.0
C      1  0.5194360000000  0.5117410000000  0.4802070000000 1.0
C      1  0.4410240000000  0.5132020000000  0.4737070000000 1.0
C      1  0.5757610000000  0.5060760000000  0.5405340000000 1.0
C      1  0.4762940000000  0.5056040000000  0.4416750000000 1.0
C      1  0.5738040000000  0.5460730000000  0.5061520000000 1.0
C      1  0.4627210000000  0.5290020000000  0.5562260000000 1.0
C      1  0.4358820000000  0.5364350000000  0.4925930000000 1.0
C      1  0.5076120000000  0.4858270000000  0.4876430000000 1.0
C      1  0.4671140000000  0.4473510000000  0.4529780000000 1.0
C      1  0.4621490000000  0.4635420000000  0.5026170000000 1.0
C      1  0.5005600000000  0.4399910000000  0.5381570000000 1.0
C      1  0.5365030000000  0.5172820000000  0.5043310000000 1.0
C      1  0.4794190000000  0.4899570000000  0.4955010000000 1.0
C      1  0.4343100000000  0.4736780000000  0.5077100000000 1.0
C      1  0.4328990000000  0.4835920000000  0.4357110000000 1.0
C      1  0.4596900000000  0.5035420000000  0.5427290000000 1.0
C      1  0.4902170000000  0.5317600000000  0.5631280000000 1.0
C      1  0.4240140000000  0.4700410000000  0.4595990000000 1.0
C      1  0.5215490000000  0.5168390000000  0.4313910000000 1.0
C      1  0.4325900000000  0.5027120000000  0.5312490000000 1.0
C      1  0.4908460000000  0.4793860000000  0.5662930000000 1.0
C      1  0.4774660000000  0.4420580000000  0.5208350000000 1.0
C      1  0.5739090000000  0.5344550000000  0.5306920000000 1.0
C      1  0.5550350000000  0.4593330000000  0.5411590000000 1.0
C      1  0.5666110000000  0.4820400000000  0.5258210000000 1.0
C      1  0.4931250000000  0.4544030000000  0.4439870000000 1.0
END
