TITL C-134192-70-6 190.318791402804 125000 -852.849165320134 0 0 124 (C1) n - 1
REM
REM in /rds/project/t2_vol4/rds-t2-cs072/BORA/CARBON/from-Arr/AIRSS/Generating-Clusters/GAP-ML-2020/Only-C1/SD-CG/HFTN-CG
REM
REM
REM
REM
REM
REM ./C.cell (11c1c37f851c82e70ff6c80c92926a4b)
REM AIRSS Version 0.9.1 bugfix July 2018 build 013d7b7c2542+ Fri, 06 Jul 2018 19:26:36 +0100
REM compiler GCC version 9.3.0
REM options -cpp -mtune=generic -march=x86-64 -g -O0
REM seed 1206001845 2092670804 96622330 -1847285964 169586671 1069473932 -433007062 -984185057 -1494134620 -1122376476 -1941085463 -932207503 413838236 2107565549 -93770955 -1452507376 -1093247789 606302046 -1033653627 -1534313448 -1582647871 -1807926692 233663724 1509960855 -2067750309 1046579748 -302762570 -888760383 1616907472 -1919071462 665751903 1203762229 310918618
REM
CELL 1.54180   50.00000   50.00000   50.00000   90.00000   90.00000   90.00000
LATT -1
SFAC C  
C      1  0.4030250000000  0.5040250000000  0.4596840000000 1.0
C      1  0.4507000000000  0.5931900000000  0.5224430000000 1.0
C      1  0.5072670000000  0.4548790000000  0.5797330000000 1.0
C      1  0.4422190000000  0.4745920000000  0.4439050000000 1.0
C      1  0.5252120000000  0.4123190000000  0.5559720000000 1.0
C      1  0.4299260000000  0.5029370000000  0.4478230000000 1.0
C      1  0.5183520000000  0.4063340000000  0.4847150000000 1.0
C      1  0.4576180000000  0.5067900000000  0.4974300000000 1.0
C      1  0.4378210000000  0.4481130000000  0.5349990000000 1.0
C      1  0.4842570000000  0.5008950000000  0.4218460000000 1.0
C      1  0.4561010000000  0.5013110000000  0.4100620000000 1.0
C      1  0.5333040000000  0.4857460000000  0.5117530000000 1.0
C      1  0.5242840000000  0.4700870000000  0.4052000000000 1.0
C      1  0.5618590000000  0.5507790000000  0.4796540000000 1.0
C      1  0.5046970000000  0.5962190000000  0.5187990000000 1.0
C      1  0.4512180000000  0.4319210000000  0.4734550000000 1.0
C      1  0.5275250000000  0.4616920000000  0.5582330000000 1.0
C      1  0.5477980000000  0.4449430000000  0.4926870000000 1.0
C      1  0.4631190000000  0.4783020000000  0.5079160000000 1.0
C      1  0.4544740000000  0.4245410000000  0.4998700000000 1.0
C      1  0.5487380000000  0.4201530000000  0.5430670000000 1.0
C      1  0.4804820000000  0.4656890000000  0.4884520000000 1.0
C      1  0.4349440000000  0.5702320000000  0.5199710000000 1.0
C      1  0.5451580000000  0.4158340000000  0.4911270000000 1.0
C      1  0.5169870000000  0.5795260000000  0.4709740000000 1.0
C      1  0.4502660000000  0.4725770000000  0.4158950000000 1.0
C      1  0.4929570000000  0.5056470000000  0.5302020000000 1.0
C      1  0.4390070000000  0.5102140000000  0.5718180000000 1.0
C      1  0.4847970000000  0.4305910000000  0.5419500000000 1.0
C      1  0.5595310000000  0.5430270000000  0.5084300000000 1.0
C      1  0.4829580000000  0.4793850000000  0.5308190000000 1.0
C      1  0.4295870000000  0.4885600000000  0.5566780000000 1.0
C      1  0.4927190000000  0.4824570000000  0.4689030000000 1.0
C      1  0.4669810000000  0.5465090000000  0.5753130000000 1.0
C      1  0.5142000000000  0.5480370000000  0.4301070000000 1.0
C      1  0.5400510000000  0.5455670000000  0.4387100000000 1.0
C      1  0.5492660000000  0.5057040000000  0.4239790000000 1.0
C      1  0.4635540000000  0.5380060000000  0.4608430000000 1.0
C      1  0.4604130000000  0.4560600000000  0.5782120000000 1.0
C      1  0.4253020000000  0.4942130000000  0.5299920000000 1.0
C      1  0.4442440000000  0.5367450000000  0.5617050000000 1.0
C      1  0.4825800000000  0.5485980000000  0.5016850000000 1.0
C      1  0.4358200000000  0.5199300000000  0.5163440000000 1.0
C      1  0.5689720000000  0.4557250000000  0.4557570000000 1.0
C      1  0.5262790000000  0.5001930000000  0.4439670000000 1.0
C      1  0.4774000000000  0.5885530000000  0.5256430000000 1.0
C      1  0.5460450000000  0.4904810000000  0.4861210000000 1.0
C      1  0.4511230000000  0.5443300000000  0.4336400000000 1.0
C      1  0.4577040000000  0.5696580000000  0.4253260000000 1.0
C      1  0.4986470000000  0.4767780000000  0.5960240000000 1.0
C      1  0.5539890000000  0.4479750000000  0.5464430000000 1.0
C      1  0.5747090000000  0.5331760000000  0.5456960000000 1.0
C      1  0.5035630000000  0.5206390000000  0.4353080000000 1.0
C      1  0.5327050000000  0.5898000000000  0.5290040000000 1.0
C      1  0.5043480000000  0.5740860000000  0.4432830000000 1.0
C      1  0.5218650000000  0.5032120000000  0.5339580000000 1.0
C      1  0.5501340000000  0.5052130000000  0.5775730000000 1.0
C      1  0.4764310000000  0.5266320000000  0.5930560000000 1.0
C      1  0.5040210000000  0.5249580000000  0.5904100000000 1.0
C      1  0.5715480000000  0.4626990000000  0.5276910000000 1.0
C      1  0.4762100000000  0.5586380000000  0.5308630000000 1.0
C      1  0.5118730000000  0.4432500000000  0.4425910000000 1.0
C      1  0.4829620000000  0.4410660000000  0.5702110000000 1.0
C      1  0.5883780000000  0.4628780000000  0.4770940000000 1.0
C      1  0.4962540000000  0.4763590000000  0.4085480000000 1.0
C      1  0.4402220000000  0.5194220000000  0.4244740000000 1.0
C      1  0.4577150000000  0.4293130000000  0.5263580000000 1.0
C      1  0.5441160000000  0.4652500000000  0.4705800000000 1.0
C      1  0.5712370000000  0.5177010000000  0.5218750000000 1.0
C      1  0.5940840000000  0.5125410000000  0.4695090000000 1.0
C      1  0.5026750000000  0.4270800000000  0.4692340000000 1.0
C      1  0.5635930000000  0.4896370000000  0.5163630000000 1.0
C      1  0.4321390000000  0.4694740000000  0.5145080000000 1.0
C      1  0.5624590000000  0.5295290000000  0.4337810000000 1.0
C      1  0.5782340000000  0.5328720000000  0.4591110000000 1.0
C      1  0.5400450000000  0.5542070000000  0.5673080000000 1.0
C      1  0.5102680000000  0.5521050000000  0.4835030000000 1.0
C      1  0.5436990000000  0.5941590000000  0.5014720000000 1.0
C      1  0.4387290000000  0.4607860000000  0.5601350000000 1.0
C      1  0.5181310000000  0.4716460000000  0.4542740000000 1.0
C      1  0.3991270000000  0.5164910000000  0.4849410000000 1.0
C      1  0.4747600000000  0.4274860000000  0.4568440000000 1.0
C      1  0.4589110000000  0.5547640000000  0.4841990000000 1.0
C      1  0.5154550000000  0.6001520000000  0.4923010000000 1.0
C      1  0.4002200000000  0.4872910000000  0.4819140000000 1.0
C      1  0.4874190000000  0.5551080000000  0.5586150000000 1.0
C      1  0.4193450000000  0.4669300000000  0.4876000000000 1.0
C      1  0.5004870000000  0.4470510000000  0.4919960000000 1.0
C      1  0.5370800000000  0.5390120000000  0.4683060000000 1.0
C      1  0.5045140000000  0.4563240000000  0.5342250000000 1.0
C      1  0.6011510000000  0.4879110000000  0.4744250000000 1.0
C      1  0.4796980000000  0.5807260000000  0.4338310000000 1.0
C      1  0.5129370000000  0.5424150000000  0.5664480000000 1.0
C      1  0.4315350000000  0.5582460000000  0.4945320000000 1.0
C      1  0.4463020000000  0.5452930000000  0.5337770000000 1.0
C      1  0.5147430000000  0.4999960000000  0.6011760000000 1.0
C      1  0.5494860000000  0.5785630000000  0.4790950000000 1.0
C      1  0.5220510000000  0.4571500000000  0.5097980000000 1.0
C      1  0.5006260000000  0.5094960000000  0.4796550000000 1.0
C      1  0.5343880000000  0.4478140000000  0.4226520000000 1.0
C      1  0.5277520000000  0.5463520000000  0.5115870000000 1.0
C      1  0.5602000000000  0.4470260000000  0.4322300000000 1.0
C      1  0.5424700000000  0.4990470000000  0.6032690000000 1.0
C      1  0.5455640000000  0.4064860000000  0.5181010000000 1.0
C      1  0.4703490000000  0.4784330000000  0.5936350000000 1.0
C      1  0.4540610000000  0.5104360000000  0.4663180000000 1.0
C      1  0.4930020000000  0.5320570000000  0.4616500000000 1.0
C      1  0.5309270000000  0.5106310000000  0.4718640000000 1.0
C      1  0.4590060000000  0.5041060000000  0.5915400000000 1.0
C      1  0.5040880000000  0.4081720000000  0.5384260000000 1.0
C      1  0.4167300000000  0.5333050000000  0.4985410000000 1.0
C      1  0.5586110000000  0.5312490000000  0.5683760000000 1.0
C      1  0.5688400000000  0.5587830000000  0.5325990000000 1.0
C      1  0.5419060000000  0.4919250000000  0.4019930000000 1.0
C      1  0.5207830000000  0.5315280000000  0.5357710000000 1.0
C      1  0.5750620000000  0.4528880000000  0.5013000000000 1.0
C      1  0.5173760000000  0.4002760000000  0.5137030000000 1.0
C      1  0.4711490000000  0.4901580000000  0.4507060000000 1.0
C      1  0.4837160000000  0.4394760000000  0.4328600000000 1.0
C      1  0.5331030000000  0.4905320000000  0.5586880000000 1.0
C      1  0.5480970000000  0.5727710000000  0.5464190000000 1.0
C      1  0.4341020000000  0.4552110000000  0.4654360000000 1.0
C      1  0.4842560000000  0.5185630000000  0.5035760000000 1.0
C      1  0.4747900000000  0.4574760000000  0.4130380000000 1.0
END
