TITL C-130723-6915-11 0.0921319091886117 125000 -373.748377922299 0 0 54 (C1) n - 1
REM
REM in /rds/project/t2_vol4/rds-t2-cs072/BORA/CARBON/from-Arr/AIRSS/Generating-Clusters/GAP-ML-2020/Only-C1/SD-CG/HFTN-CG
REM
REM
REM
REM
REM
REM ./C.cell (11c1c37f851c82e70ff6c80c92926a4b)
REM AIRSS Version 0.9.1 bugfix July 2018 build 013d7b7c2542+ Fri, 06 Jul 2018 19:26:36 +0100
REM compiler GCC version 9.3.0
REM options -cpp -mtune=generic -march=x86-64 -g -O0
REM seed -98234623 559735655 -272024788 1015598442 2101468328 533515540 -1234867436 1636293281 -627676552 1892825000 180836589 -1365958372 10853010 1028566574 1583176137 271681442 1496478965 1923516403 -86107215 1636884795 1457785281 -27610110 719156881 1816358404 1214463182 215421894 239085684 -258286859 909336460 -1714742219 -764623061 -848339488 1954569288
REM
CELL 1.54180   50.00000   50.00000   50.00000   90.00000   90.00000   90.00000
LATT -1
SFAC C  
C      1  0.5094660000000  0.4830800000000  0.5555440000000 1.0
C      1  0.4636640000000  0.4864110000000  0.5150640000000 1.0
C      1  0.4832510000000  0.5147710000000  0.4469840000000 1.0
C      1  0.4494500000000  0.5303040000000  0.4895650000000 1.0
C      1  0.4313850000000  0.4728180000000  0.5384120000000 1.0
C      1  0.4948620000000  0.5209020000000  0.5212440000000 1.0
C      1  0.4366820000000  0.5306180000000  0.5154880000000 1.0
C      1  0.4909290000000  0.5494690000000  0.5097060000000 1.0
C      1  0.5152240000000  0.5465470000000  0.4569390000000 1.0
C      1  0.5372720000000  0.5500610000000  0.5236860000000 1.0
C      1  0.4557670000000  0.5338600000000  0.5363760000000 1.0
C      1  0.5599080000000  0.4928080000000  0.4609340000000 1.0
C      1  0.4722940000000  0.5084960000000  0.5344940000000 1.0
C      1  0.5283760000000  0.5256460000000  0.4413650000000 1.0
C      1  0.4757390000000  0.5555770000000  0.5359980000000 1.0
C      1  0.4602120000000  0.4393160000000  0.5247740000000 1.0
C      1  0.4155500000000  0.5138430000000  0.5193370000000 1.0
C      1  0.5472100000000  0.4525520000000  0.4996310000000 1.0
C      1  0.5087850000000  0.5052540000000  0.4373850000000 1.0
C      1  0.4632200000000  0.4975080000000  0.4562140000000 1.0
C      1  0.4895400000000  0.4277830000000  0.4864770000000 1.0
C      1  0.5226250000000  0.5069040000000  0.4861730000000 1.0
C      1  0.5307550000000  0.4662610000000  0.5426680000000 1.0
C      1  0.5234550000000  0.5095380000000  0.5580460000000 1.0
C      1  0.5536570000000  0.5198360000000  0.4523930000000 1.0
C      1  0.5326380000000  0.5546100000000  0.4782670000000 1.0
C      1  0.5669990000000  0.5232460000000  0.4973600000000 1.0
C      1  0.5632130000000  0.4757590000000  0.5076590000000 1.0
C      1  0.4736420000000  0.5446490000000  0.4852690000000 1.0
C      1  0.4818080000000  0.4841170000000  0.5522340000000 1.0
C      1  0.4931770000000  0.5515670000000  0.5577150000000 1.0
C      1  0.5067480000000  0.4419900000000  0.4708960000000 1.0
C      1  0.4943140000000  0.4608320000000  0.4526630000000 1.0
C      1  0.4678110000000  0.4693670000000  0.4589810000000 1.0
C      1  0.5484320000000  0.5093530000000  0.5428410000000 1.0
C      1  0.4873690000000  0.4801460000000  0.5001530000000 1.0
C      1  0.5201100000000  0.5580920000000  0.5042360000000 1.0
C      1  0.5532110000000  0.4831510000000  0.5341620000000 1.0
C      1  0.5148840000000  0.4782720000000  0.4429440000000 1.0
C      1  0.4876010000000  0.5399630000000  0.4606200000000 1.0
C      1  0.4589270000000  0.4644950000000  0.5374970000000 1.0
C      1  0.4403050000000  0.4823900000000  0.4939180000000 1.0
C      1  0.5696400000000  0.4953180000000  0.4887400000000 1.0
C      1  0.5554490000000  0.5296930000000  0.5234230000000 1.0
C      1  0.4455780000000  0.5057110000000  0.4762390000000 1.0
C      1  0.5402150000000  0.4721540000000  0.4557420000000 1.0
C      1  0.4205740000000  0.4872660000000  0.5163710000000 1.0
C      1  0.4659830000000  0.4381480000000  0.4974090000000 1.0
C      1  0.5350680000000  0.4505620000000  0.4737050000000 1.0
C      1  0.5570700000000  0.5383070000000  0.4749340000000 1.0
C      1  0.4523800000000  0.4589100000000  0.4809140000000 1.0
C      1  0.5048900000000  0.5004220000000  0.5033230000000 1.0
C      1  0.5101240000000  0.5336380000000  0.5642280000000 1.0
C      1  0.5325610000000  0.4477070000000  0.5226620000000 1.0
END
