TITL C-130727-6808-7 14.1612287385416 125000 -200.825984291089 0 0 31 (C1) n - 1
REM
REM in /rds/project/t2_vol4/rds-t2-cs072/BORA/CARBON/from-Arr/AIRSS/Generating-Clusters/GAP-ML-2020/Only-C1/SD-CG/HFTN-CG
REM
REM
REM
REM
REM
REM ./C.cell (11c1c37f851c82e70ff6c80c92926a4b)
REM AIRSS Version 0.9.1 bugfix July 2018 build 013d7b7c2542+ Fri, 06 Jul 2018 19:26:36 +0100
REM compiler GCC version 9.3.0
REM options -cpp -mtune=generic -march=x86-64 -g -O0
REM seed 1370465501 960520372 813825087 -351440307 -516100026 -967277721 -1272864011 -954427560 -277620567 1400502537 226110086 428140711 853040842 1824048550 -1421897641 -116746433 1321311917 1840456458 164732727 -1185615600 1250544002 1154150889 -708894611 -1270965304 1886922900 -1162155444 399988853 -54111991 -294303546 -687053562 1074483729 -453740061 2143144450
REM
CELL 1.54180   50.00000   50.00000   50.00000   90.00000   90.00000   90.00000
LATT -1
SFAC C  
C      1  0.5562420000000  0.5242270000000  0.5072440000000 1.0
C      1  0.4473380000000  0.4558880000000  0.5046780000000 1.0
C      1  0.4879860000000  0.4514510000000  0.5299680000000 1.0
C      1  0.5229960000000  0.4700830000000  0.4774590000000 1.0
C      1  0.4822000000000  0.4682790000000  0.4711060000000 1.0
C      1  0.5133400000000  0.5616990000000  0.4574080000000 1.0
C      1  0.5682160000000  0.4771340000000  0.4962760000000 1.0
C      1  0.4638950000000  0.5312290000000  0.5232070000000 1.0
C      1  0.5134020000000  0.5108450000000  0.4470520000000 1.0
C      1  0.4914050000000  0.5355630000000  0.5254780000000 1.0
C      1  0.5064410000000  0.5409870000000  0.4994100000000 1.0
C      1  0.5684560000000  0.5025720000000  0.4999430000000 1.0
C      1  0.5115600000000  0.4937550000000  0.5471270000000 1.0
C      1  0.4564410000000  0.5067530000000  0.5335420000000 1.0
C      1  0.4982980000000  0.5623660000000  0.4811200000000 1.0
C      1  0.5113600000000  0.4684770000000  0.5374570000000 1.0
C      1  0.4540100000000  0.4836840000000  0.5425420000000 1.0
C      1  0.5023690000000  0.4508970000000  0.4817020000000 1.0
C      1  0.4703510000000  0.5567720000000  0.4795300000000 1.0
C      1  0.4926060000000  0.5159290000000  0.4800630000000 1.0
C      1  0.4566090000000  0.5416260000000  0.4974990000000 1.0
C      1  0.4673350000000  0.5288550000000  0.4740150000000 1.0
C      1  0.5309400000000  0.5309900000000  0.5137990000000 1.0
C      1  0.5140740000000  0.5362580000000  0.4521200000000 1.0
C      1  0.5121220000000  0.5173680000000  0.5334920000000 1.0
C      1  0.4586510000000  0.4675820000000  0.4849920000000 1.0
C      1  0.5041630000000  0.4395830000000  0.5082800000000 1.0
C      1  0.5434400000000  0.4645760000000  0.4971010000000 1.0
C      1  0.5036100000000  0.4919750000000  0.4678750000000 1.0
C      1  0.5289660000000  0.4531240000000  0.5192020000000 1.0
C      1  0.4611760000000  0.4594730000000  0.5293140000000 1.0
END
