TITL C-134186-45-1 -0.0695078334496484 125000 -170.135934195468 0 0 26 (C1) n - 1
REM
REM in /rds/project/t2_vol4/rds-t2-cs072/BORA/CARBON/from-Arr/AIRSS/Generating-Clusters/GAP-ML-2020/Only-C1/SD-CG/HFTN-CG
REM
REM
REM
REM
REM
REM ./C.cell (11c1c37f851c82e70ff6c80c92926a4b)
REM AIRSS Version 0.9.1 bugfix July 2018 build 013d7b7c2542+ Fri, 06 Jul 2018 19:26:36 +0100
REM compiler GCC version 9.3.0
REM options -cpp -mtune=generic -march=x86-64 -g -O0
REM seed 421538517 317260277 -1592882907 926525992 -39488601 -340687332 1340583507 -1675471296 -701255835 -2113607697 157715503 668704565 1874257418 562099601 -1459475179 660422352 1914292683 -849325690 288154738 19368512 1690849203 1474580788 13107199 -1368779462 654671156 899867270 830999660 160902895 -1795527919 577369740 486624861 -2025065087 594587213
REM
CELL 1.54180   50.00000   50.00000   50.00000   90.00000   90.00000   90.00000
LATT -1
SFAC C  
C      1  0.5597590000000  0.4924700000000  0.5525970000000 1.0
C      1  0.5124770000000  0.4490460000000  0.4846200000000 1.0
C      1  0.4501880000000  0.5309630000000  0.4831460000000 1.0
C      1  0.4507030000000  0.5063370000000  0.5160610000000 1.0
C      1  0.5021730000000  0.4527890000000  0.5071520000000 1.0
C      1  0.4526030000000  0.4669120000000  0.4941160000000 1.0
C      1  0.5067210000000  0.4872390000000  0.5407770000000 1.0
C      1  0.4310030000000  0.5118480000000  0.4940200000000 1.0
C      1  0.5159890000000  0.5329970000000  0.5224240000000 1.0
C      1  0.5349230000000  0.5235140000000  0.4578020000000 1.0
C      1  0.4900920000000  0.4718050000000  0.5238220000000 1.0
C      1  0.4428840000000  0.4683850000000  0.4702370000000 1.0
C      1  0.4358200000000  0.4955250000000  0.4695450000000 1.0
C      1  0.5242220000000  0.4768180000000  0.4477230000000 1.0
C      1  0.4640680000000  0.4807100000000  0.5149300000000 1.0
C      1  0.4661960000000  0.5300850000000  0.5079110000000 1.0
C      1  0.4912300000000  0.5363100000000  0.5122110000000 1.0
C      1  0.5638830000000  0.5263600000000  0.5202970000000 1.0
C      1  0.4522190000000  0.5167990000000  0.4580340000000 1.0
C      1  0.5135450000000  0.5136280000000  0.5437120000000 1.0
C      1  0.5216990000000  0.4537120000000  0.4598710000000 1.0
C      1  0.5406870000000  0.5346020000000  0.4794740000000 1.0
C      1  0.5413950000000  0.5355650000000  0.5072800000000 1.0
C      1  0.5293480000000  0.5020040000000  0.4429720000000 1.0
C      1  0.5326110000000  0.4936770000000  0.5520080000000 1.0
C      1  0.5735600000000  0.5099010000000  0.5372600000000 1.0
END
