TITL C-130747-6820-3 52.3211212965616 125000 -457.078293774669 0 0 65 (C1) n - 1
REM
REM in /rds/project/t2_vol4/rds-t2-cs072/BORA/CARBON/from-Arr/AIRSS/Generating-Clusters/GAP-ML-2020/Only-C1/SD-CG/HFTN-CG
REM
REM
REM
REM
REM
REM ./C.cell (11c1c37f851c82e70ff6c80c92926a4b)
REM AIRSS Version 0.9.1 bugfix July 2018 build 013d7b7c2542+ Fri, 06 Jul 2018 19:26:36 +0100
REM compiler GCC version 9.3.0
REM options -cpp -mtune=generic -march=x86-64 -g -O0
REM seed -1545422341 -128257940 -1342632837 -1052312363 1767567278 -1821499871 1804378751 -1491018975 -102880346 -508556238 -317808939 2108486906 -876969009 -1624535777 2127269451 1874605228 576112580 -1984116934 -1893486873 -1153942615 164213141 892521728 1156282649 -1301965072 1141194357 285802332 1698526079 -379486185 945801127 1944054 -1783250288 -103220744 -782044595
REM
CELL 1.54180   50.00000   50.00000   50.00000   90.00000   90.00000   90.00000
LATT -1
SFAC C  
C      1  0.4476900000000  0.4930770000000  0.5303150000000 1.0
C      1  0.4746830000000  0.5435380000000  0.5457020000000 1.0
C      1  0.4375950000000  0.5108590000000  0.4621680000000 1.0
C      1  0.4447710000000  0.5377970000000  0.5027620000000 1.0
C      1  0.4350030000000  0.5142280000000  0.5145060000000 1.0
C      1  0.5272000000000  0.4917080000000  0.5550080000000 1.0
C      1  0.5531280000000  0.5373540000000  0.5293160000000 1.0
C      1  0.5516300000000  0.4671270000000  0.5160470000000 1.0
C      1  0.4701100000000  0.4476230000000  0.5492880000000 1.0
C      1  0.4539670000000  0.4398650000000  0.4803600000000 1.0
C      1  0.5145640000000  0.5721370000000  0.4634100000000 1.0
C      1  0.5709030000000  0.5053300000000  0.4981140000000 1.0
C      1  0.5648840000000  0.4889480000000  0.4444850000000 1.0
C      1  0.4706660000000  0.5036030000000  0.5753260000000 1.0
C      1  0.5077550000000  0.5763200000000  0.4913270000000 1.0
C      1  0.4411650000000  0.4647450000000  0.4867750000000 1.0
C      1  0.4990910000000  0.4486230000000  0.5472080000000 1.0
C      1  0.5351550000000  0.5524090000000  0.4602390000000 1.0
C      1  0.4554650000000  0.4442330000000  0.5255600000000 1.0
C      1  0.5081070000000  0.5136060000000  0.4390040000000 1.0
C      1  0.5310090000000  0.4373050000000  0.4837250000000 1.0
C      1  0.4473400000000  0.4897000000000  0.5618830000000 1.0
C      1  0.5272890000000  0.5717020000000  0.5114700000000 1.0
C      1  0.4998720000000  0.4874350000000  0.4471680000000 1.0
C      1  0.4871370000000  0.5629300000000  0.5317370000000 1.0
C      1  0.4789370000000  0.4964650000000  0.5318700000000 1.0
C      1  0.4860760000000  0.5590500000000  0.4416330000000 1.0
C      1  0.5299330000000  0.5405570000000  0.5462060000000 1.0
C      1  0.4545720000000  0.5234200000000  0.4450280000000 1.0
C      1  0.5645760000000  0.4784190000000  0.4929470000000 1.0
C      1  0.5509070000000  0.5565210000000  0.5074310000000 1.0
C      1  0.4496040000000  0.4851520000000  0.4676840000000 1.0
C      1  0.5363570000000  0.4548100000000  0.4624300000000 1.0
C      1  0.5056380000000  0.4259480000000  0.4795610000000 1.0
C      1  0.5105760000000  0.4361990000000  0.5247590000000 1.0
C      1  0.4828730000000  0.5666800000000  0.5025970000000 1.0
C      1  0.4783740000000  0.4903390000000  0.4689370000000 1.0
C      1  0.4929420000000  0.4244720000000  0.5045910000000 1.0
C      1  0.4971260000000  0.4925160000000  0.5098740000000 1.0
C      1  0.4975950000000  0.5820110000000  0.4407120000000 1.0
C      1  0.5490670000000  0.4881260000000  0.5362800000000 1.0
C      1  0.5552800000000  0.5483560000000  0.4809450000000 1.0
C      1  0.4896050000000  0.4722600000000  0.4912040000000 1.0
C      1  0.4685320000000  0.5457340000000  0.4905020000000 1.0
C      1  0.4857850000000  0.5192270000000  0.5547130000000 1.0
C      1  0.5116970000000  0.4611630000000  0.4487220000000 1.0
C      1  0.5348160000000  0.4443880000000  0.5112780000000 1.0
C      1  0.5566620000000  0.5133520000000  0.4519000000000 1.0
C      1  0.4421020000000  0.4671320000000  0.5153690000000 1.0
C      1  0.5324280000000  0.5277160000000  0.4450620000000 1.0
C      1  0.5619480000000  0.5113020000000  0.5247850000000 1.0
C      1  0.4937580000000  0.4389090000000  0.4571030000000 1.0
C      1  0.4652760000000  0.4286630000000  0.5043070000000 1.0
C      1  0.4611760000000  0.4660650000000  0.5684360000000 1.0
C      1  0.5151300000000  0.5631540000000  0.5358470000000 1.0
C      1  0.4287640000000  0.5196620000000  0.4879790000000 1.0
C      1  0.5060340000000  0.5146180000000  0.4960030000000 1.0
C      1  0.5676520000000  0.5235130000000  0.4768400000000 1.0
C      1  0.4849180000000  0.4792350000000  0.5787810000000 1.0
C      1  0.4829560000000  0.5308690000000  0.4452880000000 1.0
C      1  0.5078530000000  0.4715700000000  0.5627820000000 1.0
C      1  0.5584350000000  0.4718090000000  0.4655220000000 1.0
C      1  0.4842130000000  0.5229400000000  0.4769660000000 1.0
C      1  0.4669790000000  0.4369740000000  0.4567390000000 1.0
C      1  0.5166680000000  0.5184970000000  0.5574800000000 1.0
END
