TITL C-131282-6705-7 -0.453542681207073 125000 -955.868346311086 0 0 137 (C1) n - 1
REM
REM in /rds/project/t2_vol4/rds-t2-cs072/BORA/CARBON/from-Arr/AIRSS/Generating-Clusters/GAP-ML-2020/Only-C1/SD-CG/HFTN-CG
REM
REM
REM
REM
REM
REM ./C.cell (11c1c37f851c82e70ff6c80c92926a4b)
REM AIRSS Version 0.9.1 bugfix July 2018 build 013d7b7c2542+ Fri, 06 Jul 2018 19:26:36 +0100
REM compiler GCC version 9.3.0
REM options -cpp -mtune=generic -march=x86-64 -g -O0
REM seed -1431666432 1084813004 815248209 -1541405330 -1546351819 454869752 -215605025 1725824550 1575016431 1697143005 1018129721 -165637382 -548853252 2005849305 -1981556253 757181211 -517012733 941691063 878118626 -61655498 1336767799 -801685656 1907395942 -1696284644 -374145583 1512333319 -1794047554 -671151121 1290591843 862054865 -1501216683 1648406687 1626900031
REM
CELL 1.54180   50.00000   50.00000   50.00000   90.00000   90.00000   90.00000
LATT -1
SFAC C  
C      1  0.5822140000000  0.5472900000000  0.4472380000000 1.0
C      1  0.4094870000000  0.5023840000000  0.5392790000000 1.0
C      1  0.5443180000000  0.5275600000000  0.4958210000000 1.0
C      1  0.5406670000000  0.5836650000000  0.4899570000000 1.0
C      1  0.4742230000000  0.4673200000000  0.4699010000000 1.0
C      1  0.4732140000000  0.5711150000000  0.4339040000000 1.0
C      1  0.5553040000000  0.5207100000000  0.5570220000000 1.0
C      1  0.4097190000000  0.5234350000000  0.4832860000000 1.0
C      1  0.4272230000000  0.4598370000000  0.5495360000000 1.0
C      1  0.4925340000000  0.5792310000000  0.4761740000000 1.0
C      1  0.5726220000000  0.5411330000000  0.4975090000000 1.0
C      1  0.5252700000000  0.4457430000000  0.4821470000000 1.0
C      1  0.4404290000000  0.4524320000000  0.4262350000000 1.0
C      1  0.4353240000000  0.5321970000000  0.4920840000000 1.0
C      1  0.4514600000000  0.4232280000000  0.5093040000000 1.0
C      1  0.4353770000000  0.5039200000000  0.5783410000000 1.0
C      1  0.4316460000000  0.5581370000000  0.5041840000000 1.0
C      1  0.4981040000000  0.5384490000000  0.5057520000000 1.0
C      1  0.5711920000000  0.5403720000000  0.5426230000000 1.0
C      1  0.5089460000000  0.5095240000000  0.4526560000000 1.0
C      1  0.5471400000000  0.4554500000000  0.4629850000000 1.0
C      1  0.5600380000000  0.5112840000000  0.4568890000000 1.0
C      1  0.5997990000000  0.4616940000000  0.4684540000000 1.0
C      1  0.4940860000000  0.4265610000000  0.5442990000000 1.0
C      1  0.4644310000000  0.5484760000000  0.4174520000000 1.0
C      1  0.5586940000000  0.5602340000000  0.4552010000000 1.0
C      1  0.4216060000000  0.4862600000000  0.5594440000000 1.0
C      1  0.4979000000000  0.5812390000000  0.4452370000000 1.0
C      1  0.5255680000000  0.5015930000000  0.4241540000000 1.0
C      1  0.4296600000000  0.5593310000000  0.4483200000000 1.0
C      1  0.5004890000000  0.5501910000000  0.5770250000000 1.0
C      1  0.5009630000000  0.5278120000000  0.5953790000000 1.0
C      1  0.5672780000000  0.4192080000000  0.5331070000000 1.0
C      1  0.4677240000000  0.4673220000000  0.5974500000000 1.0
C      1  0.4634180000000  0.4250230000000  0.5359200000000 1.0
C      1  0.4527400000000  0.4849020000000  0.4841320000000 1.0
C      1  0.5613070000000  0.5406190000000  0.4231990000000 1.0
C      1  0.5015140000000  0.4674610000000  0.4841400000000 1.0
C      1  0.4615150000000  0.4970470000000  0.4043650000000 1.0
C      1  0.5525060000000  0.4682780000000  0.5288790000000 1.0
C      1  0.4749000000000  0.4802770000000  0.4426210000000 1.0
C      1  0.4267440000000  0.4925760000000  0.4415680000000 1.0
C      1  0.6111810000000  0.4850270000000  0.4710650000000 1.0
C      1  0.5524840000000  0.5140550000000  0.4281590000000 1.0
C      1  0.4379930000000  0.5716170000000  0.5456180000000 1.0
C      1  0.5741140000000  0.4446350000000  0.4723670000000 1.0
C      1  0.4374030000000  0.5427680000000  0.4257300000000 1.0
C      1  0.6069750000000  0.5113130000000  0.4806350000000 1.0
C      1  0.4691250000000  0.4457500000000  0.5790630000000 1.0
C      1  0.5762890000000  0.4249120000000  0.4932700000000 1.0
C      1  0.5022410000000  0.5086560000000  0.4037610000000 1.0
C      1  0.5605810000000  0.5687840000000  0.5058880000000 1.0
C      1  0.5799910000000  0.4675770000000  0.5159670000000 1.0
C      1  0.5182290000000  0.4713290000000  0.5977790000000 1.0
C      1  0.5325020000000  0.4466380000000  0.5130040000000 1.0
C      1  0.4378390000000  0.4407620000000  0.4507510000000 1.0
C      1  0.4640820000000  0.4371130000000  0.4630710000000 1.0
C      1  0.4575520000000  0.5858810000000  0.5292090000000 1.0
C      1  0.4633640000000  0.5852820000000  0.4782690000000 1.0
C      1  0.4937980000000  0.5474780000000  0.4767000000000 1.0
C      1  0.5291180000000  0.5269190000000  0.5449770000000 1.0
C      1  0.4470340000000  0.4812690000000  0.5125250000000 1.0
C      1  0.4522720000000  0.4449560000000  0.5548190000000 1.0
C      1  0.6025660000000  0.5113300000000  0.5111730000000 1.0
C      1  0.4811350000000  0.5378150000000  0.5304820000000 1.0
C      1  0.5554670000000  0.4678710000000  0.5583580000000 1.0
C      1  0.5089840000000  0.4964080000000  0.4801130000000 1.0
C      1  0.5449500000000  0.4221600000000  0.5497400000000 1.0
C      1  0.5841590000000  0.4371000000000  0.5194960000000 1.0
C      1  0.5238550000000  0.5525440000000  0.5614580000000 1.0
C      1  0.4942760000000  0.4338370000000  0.5741640000000 1.0
C      1  0.5299990000000  0.4056790000000  0.5070930000000 1.0
C      1  0.4874630000000  0.5109530000000  0.4990710000000 1.0
C      1  0.4210910000000  0.5550540000000  0.5303470000000 1.0
C      1  0.5094990000000  0.5858600000000  0.5275180000000 1.0
C      1  0.5257700000000  0.5369510000000  0.5156700000000 1.0
C      1  0.5362910000000  0.4985080000000  0.4938620000000 1.0
C      1  0.4773470000000  0.5214520000000  0.4151470000000 1.0
C      1  0.4794590000000  0.5573670000000  0.5583490000000 1.0
C      1  0.5152420000000  0.5367700000000  0.4600230000000 1.0
C      1  0.4933230000000  0.4546950000000  0.5352890000000 1.0
C      1  0.5540860000000  0.4856760000000  0.4732580000000 1.0
C      1  0.5141860000000  0.4290280000000  0.4356760000000 1.0
C      1  0.4865390000000  0.4856380000000  0.3984130000000 1.0
C      1  0.5166310000000  0.4153090000000  0.4834810000000 1.0
C      1  0.5186170000000  0.4468790000000  0.5833460000000 1.0
C      1  0.4500960000000  0.5551360000000  0.5648320000000 1.0
C      1  0.5429670000000  0.5612030000000  0.4266040000000 1.0
C      1  0.4233270000000  0.4807240000000  0.4695770000000 1.0
C      1  0.4058560000000  0.4960680000000  0.4880580000000 1.0
C      1  0.5137750000000  0.5872290000000  0.4984000000000 1.0
C      1  0.5255330000000  0.5804150000000  0.4387990000000 1.0
C      1  0.5583600000000  0.4077120000000  0.5071260000000 1.0
C      1  0.5976820000000  0.4879110000000  0.5224130000000 1.0
C      1  0.4333590000000  0.5308630000000  0.5673450000000 1.0
C      1  0.4930420000000  0.4670760000000  0.4206970000000 1.0
C      1  0.4845740000000  0.5085700000000  0.5321290000000 1.0
C      1  0.5874090000000  0.5329950000000  0.5204930000000 1.0
C      1  0.4908740000000  0.4086750000000  0.4736510000000 1.0
C      1  0.4226270000000  0.5196000000000  0.4366950000000 1.0
C      1  0.5424130000000  0.4442680000000  0.5678950000000 1.0
C      1  0.4286270000000  0.4413130000000  0.5004900000000 1.0
C      1  0.4809530000000  0.5099590000000  0.4436390000000 1.0
C      1  0.5421000000000  0.5357760000000  0.4676080000000 1.0
C      1  0.5335060000000  0.4500940000000  0.4373100000000 1.0
C      1  0.4564340000000  0.4945360000000  0.5942360000000 1.0
C      1  0.4928330000000  0.4792710000000  0.6057430000000 1.0
C      1  0.5851850000000  0.5275590000000  0.4694220000000 1.0
C      1  0.5554930000000  0.4938520000000  0.5709840000000 1.0
C      1  0.5217640000000  0.4183990000000  0.5324840000000 1.0
C      1  0.4162010000000  0.5298630000000  0.5447870000000 1.0
C      1  0.5311820000000  0.5739430000000  0.5437050000000 1.0
C      1  0.5265970000000  0.5181730000000  0.5972510000000 1.0
C      1  0.4490700000000  0.5814930000000  0.5022430000000 1.0
C      1  0.4602970000000  0.5140590000000  0.4854080000000 1.0
C      1  0.5571370000000  0.5657450000000  0.5335720000000 1.0
C      1  0.4083180000000  0.4873320000000  0.5146720000000 1.0
C      1  0.5443490000000  0.5839090000000  0.4617540000000 1.0
C      1  0.4227280000000  0.4505590000000  0.4731740000000 1.0
C      1  0.4915720000000  0.4373350000000  0.4231260000000 1.0
C      1  0.4236850000000  0.4624330000000  0.5200300000000 1.0
C      1  0.5369610000000  0.4936150000000  0.5928030000000 1.0
C      1  0.5218650000000  0.4720680000000  0.4241400000000 1.0
C      1  0.5085280000000  0.4646840000000  0.5138220000000 1.0
C      1  0.4637950000000  0.4897360000000  0.5339310000000 1.0
C      1  0.5780470000000  0.4725290000000  0.4863940000000 1.0
C      1  0.4141660000000  0.5364500000000  0.4589200000000 1.0
C      1  0.4521610000000  0.5763660000000  0.4535200000000 1.0
C      1  0.4708620000000  0.5293030000000  0.4638390000000 1.0
C      1  0.4859740000000  0.4229430000000  0.4475080000000 1.0
C      1  0.4826470000000  0.5060930000000  0.6016970000000 1.0
C      1  0.4653480000000  0.4170270000000  0.4851930000000 1.0
C      1  0.4836850000000  0.5813130000000  0.5395260000000 1.0
C      1  0.5128580000000  0.5025460000000  0.5410780000000 1.0
C      1  0.4725290000000  0.4673540000000  0.5476860000000 1.0
C      1  0.4472030000000  0.4797970000000  0.4256690000000 1.0
C      1  0.5290460000000  0.4860000000000  0.5205890000000 1.0
END
