TITL C-134179-9914-3 -0.0259498758891616 125000 -105.518876288976 0 0 17 (C1) n - 1
REM
REM in /rds/project/t2_vol4/rds-t2-cs072/BORA/CARBON/from-Arr/AIRSS/Generating-Clusters/GAP-ML-2020/Only-C1/SD-CG/HFTN-CG
REM
REM
REM
REM
REM
REM ./C.cell (11c1c37f851c82e70ff6c80c92926a4b)
REM AIRSS Version 0.9.1 bugfix July 2018 build 013d7b7c2542+ Fri, 06 Jul 2018 19:26:36 +0100
REM compiler GCC version 9.3.0
REM options -cpp -mtune=generic -march=x86-64 -g -O0
REM seed 1170864040 1901885446 -1725289357 -260507428 -865501457 1853168620 1044904943 -1631633039 1129900833 -979652039 1892315912 -713295082 -659309231 -1983330981 1578553339 -389623892 -1070690496 -1648580689 780186445 1946004387 462607646 -447618519 -1555063185 1265644693 57566851 -511123421 666421154 -367272051 -771586967 -545490005 973118516 1722450712 1708488434
REM
CELL 1.54180   50.00000   50.00000   50.00000   90.00000   90.00000   90.00000
LATT -1
SFAC C  
C      1  0.4860360000000  0.5019670000000  0.5473120000000 1.0
C      1  0.4472940000000  0.5330870000000  0.4888920000000 1.0
C      1  0.5255130000000  0.5253580000000  0.5206800000000 1.0
C      1  0.4549070000000  0.5182790000000  0.5083590000000 1.0
C      1  0.5202600000000  0.4911250000000  0.4329260000000 1.0
C      1  0.4566960000000  0.4780450000000  0.5419990000000 1.0
C      1  0.5100330000000  0.5142630000000  0.5439090000000 1.0
C      1  0.4751590000000  0.4793190000000  0.5611050000000 1.0
C      1  0.5378600000000  0.4772950000000  0.4747700000000 1.0
C      1  0.4825190000000  0.4664400000000  0.4565890000000 1.0
C      1  0.4643250000000  0.5019370000000  0.5277550000000 1.0
C      1  0.5347590000000  0.4986550000000  0.4569900000000 1.0
C      1  0.5242710000000  0.5211470000000  0.4703740000000 1.0
C      1  0.5332390000000  0.5283360000000  0.5463660000000 1.0
C      1  0.5233150000000  0.5269970000000  0.4947430000000 1.0
C      1  0.5252220000000  0.4588080000000  0.4869420000000 1.0
C      1  0.4985900000000  0.4789410000000  0.4402860000000 1.0
END
