TITL C-136408-9212-7 44.5111657383239 125000 -554.348335188779 0 0 79 (C1) n - 1
REM
REM in /rds/project/t2_vol4/rds-t2-cs072/BORA/CARBON/from-Arr/AIRSS/Generating-Clusters/GAP-ML-2020/Only-C1/SD-CG/HFTN-CG
REM
REM
REM
REM
REM
REM ./C.cell (11c1c37f851c82e70ff6c80c92926a4b)
REM AIRSS Version 0.9.1 bugfix July 2018 build 013d7b7c2542+ Fri, 06 Jul 2018 19:26:36 +0100
REM compiler GCC version 9.3.0
REM options -cpp -mtune=generic -march=x86-64 -g -O0
REM seed 1565275944 19884590 1091705200 408090683 926692402 1136180278 1137811676 1286305795 2055725854 933561094 -234623557 2052009375 -385329343 -1394806619 950085346 -1100267036 1992676766 477930720 -1478177106 1390617149 -1144068252 -1344871679 245123992 1856997369 1199120047 837024723 1066285983 444398533 -332914187 1842075189 -739484566 -84597940 1600414016
REM
CELL 1.54180   50.00000   50.00000   50.00000   90.00000   90.00000   90.00000
LATT -1
SFAC C  
C      1  0.5045640000000  0.5125770000000  0.5199720000000 1.0
C      1  0.4844070000000  0.5258080000000  0.4177410000000 1.0
C      1  0.4514810000000  0.5585930000000  0.5251680000000 1.0
C      1  0.5350230000000  0.4420680000000  0.4723390000000 1.0
C      1  0.4733910000000  0.5128900000000  0.4866090000000 1.0
C      1  0.4395740000000  0.4770090000000  0.4733910000000 1.0
C      1  0.5074310000000  0.5572960000000  0.4655570000000 1.0
C      1  0.5049900000000  0.5697360000000  0.5386050000000 1.0
C      1  0.4789260000000  0.5561850000000  0.4585810000000 1.0
C      1  0.5206430000000  0.4377590000000  0.5418450000000 1.0
C      1  0.5182070000000  0.5130020000000  0.4747270000000 1.0
C      1  0.5650010000000  0.5401460000000  0.5159210000000 1.0
C      1  0.4970630000000  0.4846810000000  0.5222080000000 1.0
C      1  0.4372180000000  0.4516280000000  0.4864960000000 1.0
C      1  0.5425430000000  0.5479470000000  0.4975560000000 1.0
C      1  0.5687830000000  0.5140660000000  0.4760360000000 1.0
C      1  0.5081660000000  0.4309480000000  0.4731100000000 1.0
C      1  0.5526360000000  0.5376830000000  0.4710260000000 1.0
C      1  0.4971120000000  0.4892030000000  0.5761620000000 1.0
C      1  0.4702840000000  0.4375100000000  0.5316110000000 1.0
C      1  0.4549840000000  0.5080360000000  0.5334370000000 1.0
C      1  0.5449320000000  0.4349780000000  0.4980680000000 1.0
C      1  0.4691570000000  0.5713580000000  0.5054290000000 1.0
C      1  0.4751680000000  0.4260420000000  0.5058250000000 1.0
C      1  0.4283210000000  0.5239320000000  0.4662060000000 1.0
C      1  0.4509590000000  0.4586900000000  0.5296410000000 1.0
C      1  0.5778030000000  0.4952770000000  0.5177320000000 1.0
C      1  0.4878830000000  0.5572500000000  0.5581510000000 1.0
C      1  0.4857880000000  0.4714750000000  0.4177420000000 1.0
C      1  0.5063030000000  0.4705680000000  0.5008950000000 1.0
C      1  0.4951340000000  0.4976020000000  0.4148300000000 1.0
C      1  0.4973720000000  0.5742320000000  0.5109730000000 1.0
C      1  0.4894000000000  0.4651960000000  0.5663940000000 1.0
C      1  0.4805150000000  0.5138080000000  0.5756940000000 1.0
C      1  0.4846280000000  0.4496090000000  0.4348510000000 1.0
C      1  0.4608970000000  0.4360810000000  0.4826080000000 1.0
C      1  0.4208550000000  0.4979050000000  0.4776230000000 1.0
C      1  0.5244350000000  0.5182260000000  0.5015140000000 1.0
C      1  0.5253960000000  0.4982200000000  0.5738590000000 1.0
C      1  0.5276930000000  0.5359000000000  0.4560590000000 1.0
C      1  0.4604350000000  0.5624240000000  0.4796680000000 1.0
C      1  0.5166230000000  0.5653940000000  0.4912590000000 1.0
C      1  0.4662860000000  0.4828060000000  0.5234870000000 1.0
C      1  0.5239720000000  0.4257910000000  0.5162040000000 1.0
C      1  0.4639250000000  0.4856110000000  0.4910440000000 1.0
C      1  0.5781930000000  0.5188250000000  0.5020070000000 1.0
C      1  0.5246050000000  0.5265990000000  0.5736140000000 1.0
C      1  0.4330150000000  0.5415460000000  0.5113640000000 1.0
C      1  0.5456040000000  0.4839650000000  0.5585730000000 1.0
C      1  0.4292500000000  0.4630450000000  0.5119330000000 1.0
C      1  0.5467930000000  0.4659680000000  0.4580210000000 1.0
C      1  0.4363480000000  0.5457220000000  0.4837770000000 1.0
C      1  0.5104390000000  0.4568240000000  0.4268490000000 1.0
C      1  0.4592230000000  0.5216830000000  0.5583110000000 1.0
C      1  0.5023530000000  0.4212360000000  0.4988930000000 1.0
C      1  0.4793490000000  0.5232600000000  0.5121700000000 1.0
C      1  0.4981310000000  0.5360820000000  0.5746030000000 1.0
C      1  0.5650450000000  0.4836680000000  0.4733960000000 1.0
C      1  0.5227620000000  0.4987250000000  0.4229780000000 1.0
C      1  0.4299280000000  0.5144400000000  0.5206700000000 1.0
C      1  0.5645210000000  0.5010120000000  0.5435530000000 1.0
C      1  0.5732590000000  0.4738120000000  0.4989590000000 1.0
C      1  0.5318920000000  0.4735220000000  0.4344670000000 1.0
C      1  0.4890740000000  0.4741720000000  0.4785410000000 1.0
C      1  0.5416430000000  0.5425510000000  0.5578650000000 1.0
C      1  0.4619210000000  0.5499860000000  0.5501680000000 1.0
C      1  0.5434070000000  0.4558310000000  0.5494230000000 1.0
C      1  0.4418560000000  0.5274340000000  0.4428460000000 1.0
C      1  0.5609580000000  0.5295930000000  0.5425520000000 1.0
C      1  0.4666370000000  0.5378700000000  0.4374280000000 1.0
C      1  0.5267110000000  0.5275870000000  0.4280260000000 1.0
C      1  0.4941780000000  0.5015810000000  0.4694300000000 1.0
C      1  0.4199950000000  0.4923170000000  0.5061890000000 1.0
C      1  0.4830430000000  0.4447790000000  0.4636280000000 1.0
C      1  0.5303170000000  0.5635840000000  0.5447040000000 1.0
C      1  0.5658770000000  0.4488080000000  0.5100690000000 1.0
C      1  0.5671390000000  0.4468220000000  0.5381660000000 1.0
C      1  0.5074910000000  0.5408560000000  0.4127600000000 1.0
C      1  0.4927350000000  0.4431510000000  0.5502110000000 1.0
END
