TITL C-136407-9186-6 -5.71377810261224 125000 -356.54690051772 0 0 53 (C1) n - 1
REM
REM in /rds/project/t2_vol4/rds-t2-cs072/BORA/CARBON/from-Arr/AIRSS/Generating-Clusters/GAP-ML-2020/Only-C1/SD-CG/HFTN-CG
REM
REM
REM
REM
REM
REM ./C.cell (11c1c37f851c82e70ff6c80c92926a4b)
REM AIRSS Version 0.9.1 bugfix July 2018 build 013d7b7c2542+ Fri, 06 Jul 2018 19:26:36 +0100
REM compiler GCC version 9.3.0
REM options -cpp -mtune=generic -march=x86-64 -g -O0
REM seed 348074844 -1735480874 305037250 1177454087 145376635 1975460911 -134461792 -1980967961 1974396354 -1608961317 1631149199 -642059793 324420945 -1510946066 1656941050 -1535456131 352068062 1214574344 1825518892 546373710 2003852708 -922881237 1735676850 -83113746 374934545 -1026808017 716973203 914148784 1232583082 -1994767762 1784105583 -943008209 -158735788
REM
CELL 1.54180   50.00000   50.00000   50.00000   90.00000   90.00000   90.00000
LATT -1
SFAC C  
C      1  0.4779270000000  0.5566810000000  0.4893700000000 1.0
C      1  0.4371460000000  0.5262440000000  0.5299010000000 1.0
C      1  0.4802110000000  0.4493430000000  0.5187780000000 1.0
C      1  0.4622080000000  0.4552690000000  0.4549310000000 1.0
C      1  0.5338300000000  0.4452560000000  0.4980830000000 1.0
C      1  0.5077030000000  0.5417600000000  0.5291270000000 1.0
C      1  0.4377170000000  0.5341540000000  0.5017180000000 1.0
C      1  0.5028910000000  0.4616750000000  0.5339290000000 1.0
C      1  0.4767310000000  0.5445010000000  0.4634990000000 1.0
C      1  0.5213610000000  0.5468430000000  0.4759480000000 1.0
C      1  0.5432820000000  0.5076260000000  0.5495570000000 1.0
C      1  0.4865360000000  0.4362100000000  0.4941410000000 1.0
C      1  0.4792540000000  0.4991720000000  0.5559690000000 1.0
C      1  0.4983480000000  0.5634690000000  0.5481570000000 1.0
C      1  0.5691770000000  0.5068340000000  0.5100350000000 1.0
C      1  0.5330130000000  0.5271040000000  0.5284830000000 1.0
C      1  0.4817250000000  0.5044110000000  0.5117740000000 1.0
C      1  0.4734850000000  0.5615190000000  0.5545630000000 1.0
C      1  0.4405400000000  0.4990710000000  0.5314610000000 1.0
C      1  0.5249380000000  0.4934760000000  0.5636510000000 1.0
C      1  0.5530280000000  0.4670460000000  0.5268190000000 1.0
C      1  0.4620120000000  0.5204420000000  0.4616350000000 1.0
C      1  0.5015080000000  0.5166560000000  0.4923080000000 1.0
C      1  0.5025110000000  0.4970450000000  0.4700700000000 1.0
C      1  0.5060890000000  0.5179380000000  0.4387380000000 1.0
C      1  0.4579160000000  0.4618210000000  0.5042570000000 1.0
C      1  0.5038470000000  0.5416980000000  0.4536300000000 1.0
C      1  0.4805900000000  0.5019290000000  0.4480620000000 1.0
C      1  0.5540180000000  0.5309500000000  0.5077780000000 1.0
C      1  0.5631960000000  0.4907960000000  0.4873800000000 1.0
C      1  0.4835610000000  0.5221990000000  0.5347150000000 1.0
C      1  0.5110870000000  0.4447000000000  0.4806940000000 1.0
C      1  0.4762490000000  0.4738370000000  0.4403650000000 1.0
C      1  0.5158580000000  0.4468730000000  0.4512560000000 1.0
C      1  0.5245000000000  0.4716790000000  0.4399590000000 1.0
C      1  0.5454870000000  0.5331600000000  0.4802090000000 1.0
C      1  0.5018320000000  0.4815190000000  0.5574820000000 1.0
C      1  0.5033020000000  0.5470710000000  0.4991880000000 1.0
C      1  0.5271840000000  0.4990900000000  0.4498270000000 1.0
C      1  0.5616060000000  0.4923740000000  0.5337020000000 1.0
C      1  0.5023940000000  0.4825010000000  0.5136180000000 1.0
C      1  0.5290090000000  0.4510440000000  0.5260340000000 1.0
C      1  0.5024650000000  0.4734460000000  0.4860470000000 1.0
C      1  0.4571380000000  0.5540490000000  0.5068050000000 1.0
C      1  0.4458500000000  0.5131430000000  0.4847900000000 1.0
C      1  0.4626780000000  0.4468110000000  0.4801660000000 1.0
C      1  0.4544120000000  0.4893500000000  0.5529890000000 1.0
C      1  0.5004940000000  0.4607930000000  0.4331850000000 1.0
C      1  0.5558960000000  0.4640300000000  0.4975370000000 1.0
C      1  0.5494890000000  0.5079870000000  0.4673840000000 1.0
C      1  0.4535490000000  0.4908680000000  0.5055000000000 1.0
C      1  0.5223730000000  0.5040810000000  0.5092600000000 1.0
C      1  0.4608510000000  0.5424530000000  0.5355360000000 1.0
END
