TITL C-136398-9182-3 -230.992620138827 125000 -847.427269823301 0 0 120 (C1) n - 1
REM
REM in /rds/project/t2_vol4/rds-t2-cs072/BORA/CARBON/from-Arr/AIRSS/Generating-Clusters/GAP-ML-2020/Only-C1/SD-CG/HFTN-CG
REM
REM
REM
REM
REM
REM ./C.cell (11c1c37f851c82e70ff6c80c92926a4b)
REM AIRSS Version 0.9.1 bugfix July 2018 build 013d7b7c2542+ Fri, 06 Jul 2018 19:26:36 +0100
REM compiler GCC version 9.3.0
REM options -cpp -mtune=generic -march=x86-64 -g -O0
REM seed 51318216 106129204 1025738895 1754374942 1555204720 969682483 -1296959339 -102698926 -992920926 784189850 1567222335 -1923221656 572126812 -1537996404 1747659048 -1664729463 -835745211 -1546889893 -1369002601 -1660709745 1633801449 142110278 -916502490 997835105 -1777579954 -2101554800 900897466 -1617500071 777194817 111443843 -2066490861 220932293 1602779632
REM
CELL 1.54180   50.00000   50.00000   50.00000   90.00000   90.00000   90.00000
LATT -1
SFAC C  
C      1  0.4910720000000  0.4934180000000  0.5849430000000 1.0
C      1  0.4098910000000  0.5340020000000  0.5162600000000 1.0
C      1  0.5430980000000  0.4500190000000  0.5724350000000 1.0
C      1  0.4770130000000  0.5783920000000  0.4700280000000 1.0
C      1  0.5486450000000  0.5515800000000  0.5212860000000 1.0
C      1  0.4764050000000  0.4908600000000  0.5369390000000 1.0
C      1  0.5508190000000  0.5714170000000  0.4599410000000 1.0
C      1  0.4470200000000  0.5099860000000  0.5756570000000 1.0
C      1  0.5847110000000  0.5150720000000  0.5298860000000 1.0
C      1  0.5655880000000  0.4593100000000  0.4210540000000 1.0
C      1  0.5895650000000  0.5102360000000  0.4573310000000 1.0
C      1  0.5122370000000  0.5753490000000  0.5489880000000 1.0
C      1  0.5343630000000  0.5912890000000  0.5049710000000 1.0
C      1  0.5570230000000  0.5311930000000  0.4291410000000 1.0
C      1  0.5038250000000  0.5130040000000  0.4624670000000 1.0
C      1  0.4585940000000  0.5111790000000  0.4116900000000 1.0
C      1  0.5422290000000  0.4760950000000  0.5101010000000 1.0
C      1  0.5685420000000  0.4597390000000  0.5187350000000 1.0
C      1  0.4529940000000  0.4292650000000  0.4530180000000 1.0
C      1  0.5219420000000  0.5363290000000  0.4748380000000 1.0
C      1  0.4681180000000  0.5650700000000  0.5642650000000 1.0
C      1  0.5172910000000  0.4786720000000  0.5262580000000 1.0
C      1  0.5679800000000  0.5519210000000  0.4471320000000 1.0
C      1  0.4288020000000  0.5534850000000  0.4784960000000 1.0
C      1  0.4328620000000  0.5289090000000  0.5595340000000 1.0
C      1  0.4936350000000  0.4236750000000  0.5616470000000 1.0
C      1  0.5107930000000  0.6021320000000  0.4973900000000 1.0
C      1  0.4871420000000  0.5133350000000  0.4094560000000 1.0
C      1  0.4636670000000  0.4828920000000  0.4097620000000 1.0
C      1  0.5389800000000  0.5176670000000  0.5553860000000 1.0
C      1  0.5919870000000  0.5160550000000  0.5023910000000 1.0
C      1  0.4903640000000  0.4087930000000  0.5161460000000 1.0
C      1  0.4766310000000  0.4238680000000  0.4937610000000 1.0
C      1  0.5185440000000  0.4854470000000  0.5872990000000 1.0
C      1  0.5124530000000  0.4747620000000  0.4277150000000 1.0
C      1  0.5551160000000  0.5242270000000  0.5321360000000 1.0
C      1  0.5897740000000  0.4936210000000  0.4828480000000 1.0
C      1  0.5444460000000  0.4299360000000  0.5530790000000 1.0
C      1  0.4171630000000  0.4644600000000  0.4604950000000 1.0
C      1  0.5233590000000  0.5620960000000  0.4581020000000 1.0
C      1  0.5113700000000  0.5274770000000  0.5511720000000 1.0
C      1  0.5297820000000  0.5238280000000  0.4246560000000 1.0
C      1  0.5022730000000  0.5310280000000  0.5205320000000 1.0
C      1  0.4052770000000  0.5167630000000  0.4941480000000 1.0
C      1  0.4843540000000  0.5811920000000  0.5451570000000 1.0
C      1  0.4557700000000  0.5579710000000  0.4662880000000 1.0
C      1  0.5754930000000  0.5076020000000  0.4318390000000 1.0
C      1  0.5792470000000  0.4664500000000  0.4898910000000 1.0
C      1  0.5181920000000  0.4085670000000  0.5228630000000 1.0
C      1  0.4134220000000  0.4896440000000  0.5035740000000 1.0
C      1  0.4973540000000  0.5711390000000  0.4503460000000 1.0
C      1  0.4589880000000  0.5494830000000  0.4374740000000 1.0
C      1  0.5131790000000  0.5053780000000  0.5108200000000 1.0
C      1  0.4147210000000  0.5303110000000  0.4700170000000 1.0
C      1  0.4917390000000  0.4468220000000  0.5797000000000 1.0
C      1  0.4262820000000  0.5551300000000  0.5070070000000 1.0
C      1  0.5414740000000  0.4930420000000  0.4640130000000 1.0
C      1  0.4999190000000  0.4957230000000  0.4857530000000 1.0
C      1  0.5688760000000  0.5603580000000  0.5021330000000 1.0
C      1  0.5053530000000  0.4272650000000  0.4511170000000 1.0
C      1  0.4233280000000  0.5163050000000  0.4467360000000 1.0
C      1  0.4563080000000  0.4662340000000  0.4914690000000 1.0
C      1  0.5575000000000  0.4330990000000  0.5272190000000 1.0
C      1  0.5877090000000  0.5383930000000  0.4628890000000 1.0
C      1  0.5580920000000  0.4729470000000  0.5661590000000 1.0
C      1  0.4541400000000  0.4891810000000  0.4706550000000 1.0
C      1  0.4133050000000  0.4907750000000  0.5346030000000 1.0
C      1  0.4835250000000  0.4562970000000  0.4990620000000 1.0
C      1  0.4718810000000  0.5326230000000  0.5124620000000 1.0
C      1  0.4115190000000  0.4641410000000  0.4886220000000 1.0
C      1  0.5940500000000  0.4948160000000  0.5453430000000 1.0
C      1  0.4848140000000  0.5901800000000  0.4957370000000 1.0
C      1  0.5226920000000  0.4987140000000  0.4420160000000 1.0
C      1  0.5416970000000  0.4956690000000  0.5731090000000 1.0
C      1  0.4831500000000  0.5476890000000  0.5794530000000 1.0
C      1  0.5554980000000  0.5799380000000  0.4870190000000 1.0
C      1  0.4757390000000  0.5095880000000  0.4691120000000 1.0
C      1  0.4739520000000  0.5195080000000  0.5809480000000 1.0
C      1  0.5431520000000  0.5071450000000  0.5075010000000 1.0
C      1  0.4313480000000  0.4420630000000  0.4511340000000 1.0
C      1  0.4451280000000  0.4929210000000  0.4991450000000 1.0
C      1  0.4294920000000  0.4893310000000  0.4530930000000 1.0
C      1  0.5497330000000  0.4493710000000  0.4421050000000 1.0
C      1  0.4784820000000  0.4240420000000  0.4627880000000 1.0
C      1  0.4145780000000  0.5188390000000  0.5402370000000 1.0
C      1  0.4491520000000  0.4242060000000  0.5323760000000 1.0
C      1  0.4471150000000  0.4807730000000  0.5718500000000 1.0
C      1  0.5035870000000  0.5345150000000  0.4162000000000 1.0
C      1  0.5081520000000  0.5523290000000  0.5661580000000 1.0
C      1  0.4734530000000  0.4702700000000  0.5817460000000 1.0
C      1  0.4862040000000  0.5545230000000  0.4299300000000 1.0
C      1  0.4915280000000  0.4837370000000  0.4113740000000 1.0
C      1  0.5422720000000  0.4173810000000  0.5092020000000 1.0
C      1  0.4900110000000  0.5077500000000  0.5586000000000 1.0
C      1  0.4331520000000  0.4490790000000  0.5026750000000 1.0
C      1  0.4320410000000  0.4479980000000  0.5333880000000 1.0
C      1  0.5210280000000  0.4482440000000  0.4368810000000 1.0
C      1  0.4753400000000  0.4149620000000  0.5406070000000 1.0
C      1  0.5722430000000  0.4839750000000  0.4174870000000 1.0
C      1  0.5341450000000  0.4690600000000  0.4820060000000 1.0
C      1  0.5873550000000  0.5416970000000  0.4910880000000 1.0
C      1  0.5181550000000  0.4572200000000  0.5852390000000 1.0
C      1  0.4708500000000  0.5817750000000  0.5201340000000 1.0
C      1  0.5458680000000  0.5172660000000  0.4794260000000 1.0
C      1  0.5454520000000  0.4228820000000  0.4814040000000 1.0
C      1  0.5245840000000  0.4152130000000  0.4659680000000 1.0
C      1  0.5336500000000  0.5759900000000  0.5300170000000 1.0
C      1  0.4426530000000  0.5280860000000  0.4284480000000 1.0
C      1  0.4486810000000  0.4232060000000  0.5039830000000 1.0
C      1  0.4462380000000  0.5533400000000  0.5513980000000 1.0
C      1  0.4684710000000  0.5338310000000  0.4830560000000 1.0
C      1  0.4919550000000  0.4683160000000  0.5255710000000 1.0
C      1  0.5775440000000  0.4726870000000  0.5451830000000 1.0
C      1  0.5195880000000  0.4165800000000  0.5502080000000 1.0
C      1  0.5195220000000  0.5466710000000  0.5037600000000 1.0
C      1  0.4509810000000  0.5589410000000  0.5225890000000 1.0
C      1  0.5040400000000  0.4679040000000  0.4812470000000 1.0
C      1  0.5563940000000  0.4490350000000  0.4725140000000 1.0
C      1  0.4623000000000  0.5060070000000  0.5179610000000 1.0
C      1  0.4277320000000  0.4708060000000  0.5502090000000 1.0
END
