TITL C-134886-4565-4 0.137139948798433 125000 -870.095919461657 0 0 123 (C1) n - 1
REM
REM in /rds/project/t2_vol4/rds-t2-cs072/BORA/CARBON/from-Arr/AIRSS/Generating-Clusters/GAP-ML-2020/Only-C1/SD-CG/HFTN-CG
REM
REM
REM
REM
REM
REM ./C.cell (11c1c37f851c82e70ff6c80c92926a4b)
REM AIRSS Version 0.9.1 bugfix July 2018 build 013d7b7c2542+ Fri, 06 Jul 2018 19:26:36 +0100
REM compiler GCC version 9.3.0
REM options -cpp -mtune=generic -march=x86-64 -g -O0
REM seed 794118267 1547052295 2087960172 305279795 1303830277 1778226920 1435785985 -1066684442 -432493058 438732019 1188140790 -859362638 -1098703826 1636425866 -268007585 2130462776 -1319004544 1613049204 2029253490 -359363180 -1374426933 2042112521 -1999560222 -1429363733 -599730442 -434436318 1129154593 437081200 -1855455739 -540096591 -165616657 199881577 1624438261
REM
CELL 1.54180   50.00000   50.00000   50.00000   90.00000   90.00000   90.00000
LATT -1
SFAC C  
C      1  0.5747550000000  0.5434310000000  0.5156040000000 1.0
C      1  0.5006020000000  0.5056230000000  0.5588930000000 1.0
C      1  0.5584150000000  0.5663880000000  0.5104520000000 1.0
C      1  0.5520980000000  0.5734670000000  0.4838280000000 1.0
C      1  0.5537700000000  0.5134900000000  0.4256660000000 1.0
C      1  0.5918970000000  0.5016120000000  0.5032410000000 1.0
C      1  0.5612120000000  0.4784600000000  0.5703630000000 1.0
C      1  0.5159630000000  0.5220800000000  0.5795490000000 1.0
C      1  0.4621250000000  0.4128470000000  0.4660880000000 1.0
C      1  0.4846800000000  0.5518680000000  0.4188630000000 1.0
C      1  0.4491850000000  0.4894080000000  0.4075730000000 1.0
C      1  0.4685710000000  0.4877580000000  0.5125870000000 1.0
C      1  0.4355540000000  0.5235740000000  0.5705070000000 1.0
C      1  0.5312070000000  0.4182940000000  0.5213530000000 1.0
C      1  0.4726290000000  0.5024580000000  0.5970240000000 1.0
C      1  0.4978520000000  0.4678350000000  0.4580180000000 1.0
C      1  0.5112570000000  0.5878760000000  0.5231070000000 1.0
C      1  0.5859360000000  0.5282700000000  0.4939690000000 1.0
C      1  0.5128270000000  0.4860680000000  0.4119610000000 1.0
C      1  0.5064910000000  0.4120750000000  0.5340710000000 1.0
C      1  0.4348610000000  0.4530420000000  0.5433150000000 1.0
C      1  0.5164390000000  0.5660070000000  0.5748750000000 1.0
C      1  0.5294730000000  0.4467210000000  0.4281500000000 1.0
C      1  0.4536330000000  0.5574900000000  0.4654300000000 1.0
C      1  0.5665640000000  0.4447060000000  0.4683580000000 1.0
C      1  0.4601000000000  0.4160620000000  0.5164770000000 1.0
C      1  0.4121480000000  0.5279450000000  0.4997150000000 1.0
C      1  0.5512920000000  0.4640650000000  0.4263490000000 1.0
C      1  0.4524130000000  0.5294250000000  0.5048520000000 1.0
C      1  0.4419470000000  0.5496950000000  0.5592510000000 1.0
C      1  0.5287980000000  0.4409110000000  0.5613660000000 1.0
C      1  0.4962380000000  0.5457200000000  0.5290520000000 1.0
C      1  0.5155750000000  0.5610990000000  0.4813120000000 1.0
C      1  0.4726940000000  0.5794490000000  0.4587000000000 1.0
C      1  0.4439260000000  0.5373280000000  0.4445410000000 1.0
C      1  0.4451800000000  0.4729510000000  0.5603290000000 1.0
C      1  0.5132170000000  0.5569170000000  0.4535140000000 1.0
C      1  0.4452610000000  0.4313660000000  0.4499780000000 1.0
C      1  0.5079510000000  0.5152760000000  0.4912690000000 1.0
C      1  0.4288770000000  0.4692460000000  0.4777940000000 1.0
C      1  0.4268750000000  0.4861170000000  0.4505590000000 1.0
C      1  0.4377230000000  0.5640130000000  0.5356500000000 1.0
C      1  0.5295170000000  0.4702510000000  0.5222240000000 1.0
C      1  0.5312200000000  0.5033510000000  0.5936470000000 1.0
C      1  0.5393310000000  0.4807270000000  0.4942400000000 1.0
C      1  0.4112750000000  0.4929280000000  0.5355340000000 1.0
C      1  0.4778910000000  0.4878130000000  0.4643200000000 1.0
C      1  0.5183630000000  0.4620230000000  0.4790530000000 1.0
C      1  0.5318800000000  0.5428390000000  0.5667420000000 1.0
C      1  0.4367410000000  0.4728150000000  0.4262650000000 1.0
C      1  0.4756200000000  0.4382200000000  0.5591480000000 1.0
C      1  0.5673320000000  0.5231230000000  0.5369460000000 1.0
C      1  0.5836470000000  0.4988250000000  0.5310980000000 1.0
C      1  0.4593240000000  0.5230620000000  0.5872310000000 1.0
C      1  0.5043360000000  0.4639180000000  0.5063340000000 1.0
C      1  0.5602470000000  0.5562320000000  0.4621760000000 1.0
C      1  0.4981680000000  0.5431850000000  0.4985920000000 1.0
C      1  0.4700080000000  0.5450630000000  0.5678940000000 1.0
C      1  0.5073210000000  0.5320090000000  0.4156440000000 1.0
C      1  0.5371960000000  0.5180590000000  0.5259680000000 1.0
C      1  0.4590680000000  0.5114050000000  0.5291340000000 1.0
C      1  0.4789890000000  0.5937060000000  0.4835010000000 1.0
C      1  0.4700160000000  0.4637460000000  0.5710870000000 1.0
C      1  0.5185120000000  0.4785120000000  0.5913070000000 1.0
C      1  0.5432750000000  0.4414990000000  0.5356540000000 1.0
C      1  0.5373120000000  0.4618990000000  0.5781290000000 1.0
C      1  0.4608560000000  0.5360010000000  0.4209420000000 1.0
C      1  0.5016240000000  0.4039850000000  0.4902200000000 1.0
C      1  0.4313700000000  0.5142050000000  0.4561300000000 1.0
C      1  0.4895270000000  0.4842280000000  0.5809040000000 1.0
C      1  0.5279880000000  0.4251940000000  0.4457810000000 1.0
C      1  0.5726060000000  0.4495090000000  0.5347210000000 1.0
C      1  0.4599020000000  0.5813340000000  0.5283070000000 1.0
C      1  0.4880800000000  0.5755600000000  0.5379220000000 1.0
C      1  0.5400010000000  0.5548920000000  0.4419640000000 1.0
C      1  0.5704780000000  0.4626180000000  0.4467160000000 1.0
C      1  0.5739550000000  0.5122180000000  0.4474730000000 1.0
C      1  0.5058830000000  0.5961060000000  0.4963820000000 1.0
C      1  0.4331740000000  0.4400930000000  0.4753410000000 1.0
C      1  0.5377830000000  0.4344800000000  0.4728190000000 1.0
C      1  0.5349050000000  0.5702880000000  0.5263570000000 1.0
C      1  0.4098390000000  0.4746080000000  0.4996420000000 1.0
C      1  0.4544300000000  0.4318110000000  0.5401820000000 1.0
C      1  0.4889150000000  0.4039760000000  0.4645440000000 1.0
C      1  0.4428630000000  0.4455290000000  0.4273980000000 1.0
C      1  0.5587220000000  0.5278850000000  0.5652430000000 1.0
C      1  0.5770260000000  0.4754610000000  0.5469410000000 1.0
C      1  0.4295870000000  0.5510290000000  0.5093330000000 1.0
C      1  0.4489370000000  0.4202960000000  0.4903280000000 1.0
C      1  0.5180580000000  0.4962850000000  0.5347200000000 1.0
C      1  0.4143910000000  0.4653700000000  0.5270640000000 1.0
C      1  0.4352850000000  0.5142640000000  0.4853270000000 1.0
C      1  0.5358410000000  0.5093730000000  0.4958630000000 1.0
C      1  0.5275380000000  0.5875010000000  0.4808630000000 1.0
C      1  0.4908100000000  0.5683430000000  0.5668030000000 1.0
C      1  0.4979800000000  0.4947880000000  0.5106240000000 1.0
C      1  0.5928510000000  0.4814700000000  0.4826740000000 1.0
C      1  0.5833360000000  0.4868050000000  0.4561620000000 1.0
C      1  0.5281150000000  0.4143990000000  0.4934910000000 1.0
C      1  0.5855530000000  0.4536170000000  0.4881600000000 1.0
C      1  0.4868100000000  0.4060880000000  0.5146640000000 1.0
C      1  0.4911470000000  0.5709470000000  0.4391330000000 1.0
C      1  0.5773560000000  0.5336750000000  0.4665760000000 1.0
C      1  0.5252640000000  0.5445010000000  0.5365910000000 1.0
C      1  0.4388910000000  0.5691740000000  0.4884790000000 1.0
C      1  0.5873410000000  0.4439500000000  0.5131490000000 1.0
C      1  0.5371740000000  0.5360310000000  0.4210640000000 1.0
C      1  0.5026700000000  0.4285020000000  0.5566470000000 1.0
C      1  0.5569980000000  0.5045980000000  0.5812160000000 1.0
C      1  0.4047030000000  0.5027530000000  0.5088290000000 1.0
C      1  0.4571040000000  0.5874830000000  0.5006400000000 1.0
C      1  0.5031430000000  0.5297580000000  0.4469550000000 1.0
C      1  0.4358960000000  0.5007910000000  0.5509210000000 1.0
C      1  0.4889070000000  0.5149640000000  0.4675800000000 1.0
C      1  0.5064610000000  0.4099170000000  0.4443280000000 1.0
C      1  0.4550820000000  0.4863490000000  0.4857800000000 1.0
C      1  0.5414100000000  0.4894980000000  0.4172800000000 1.0
C      1  0.4779070000000  0.4604020000000  0.5154130000000 1.0
C      1  0.4722690000000  0.5368060000000  0.4843130000000 1.0
C      1  0.4962380000000  0.5079200000000  0.4049020000000 1.0
C      1  0.4668710000000  0.5099990000000  0.4084790000000 1.0
C      1  0.4811840000000  0.5253770000000  0.5455750000000 1.0
C      1  0.5061670000000  0.4633640000000  0.4287230000000 1.0
END
