TITL C-131262-6778-8 -0.000139167134491491 125000 -22.9478494895922 0 0 4 (D(inf)h) n - 1
REM
REM in /rds/project/t2_vol4/rds-t2-cs072/BORA/CARBON/from-Arr/AIRSS/Generating-Clusters/GAP-ML-2020/Only-C1/SD-CG/HFTN-CG
REM
REM
REM
REM
REM
REM ./C.cell (11c1c37f851c82e70ff6c80c92926a4b)
REM AIRSS Version 0.9.1 bugfix July 2018 build 013d7b7c2542+ Fri, 06 Jul 2018 19:26:36 +0100
REM compiler GCC version 9.3.0
REM options -cpp -mtune=generic -march=x86-64 -g -O0
REM seed -1616535676 170216425 26908386 -1159507109 98327863 -499037360 853193237 -1009421728 -1778235504 -999373527 1751469022 2017707547 1388643462 -828634356 -522924346 470081654 1208982082 -1802382950 966197291 -1273702285 1766564268 -780705838 -175229860 -1458582562 818096460 2030859237 1679188829 325996411 1854221149 -1298999454 1500581525 -619797762 517811198
REM
CELL 1.54180   50.00000   50.00000   50.00000   90.00000   90.00000   90.00000
LATT -1
SFAC C  
C      1  0.5353350000000  0.5045850000000  0.4844830000000 1.0
C      1  0.4877570000000  0.4984110000000  0.5053770000000 1.0
C      1  0.4646650000000  0.4954150000000  0.5155170000000 1.0
C      1  0.5122430000000  0.5015890000000  0.4946240000000 1.0
END
