TITL C-134908-4676-9 55.0816984085179 125000 -711.206683316873 0 0 101 (C1) n - 1
REM
REM in /rds/project/t2_vol4/rds-t2-cs072/BORA/CARBON/from-Arr/AIRSS/Generating-Clusters/GAP-ML-2020/Only-C1/SD-CG/HFTN-CG
REM
REM
REM
REM
REM
REM ./C.cell (11c1c37f851c82e70ff6c80c92926a4b)
REM AIRSS Version 0.9.1 bugfix July 2018 build 013d7b7c2542+ Fri, 06 Jul 2018 19:26:36 +0100
REM compiler GCC version 9.3.0
REM options -cpp -mtune=generic -march=x86-64 -g -O0
REM seed 828306921 512777788 526657789 629710426 1785390474 1921520642 1727557468 -1261311431 -988912123 -522686757 478028854 1087520547 -1155438046 -1434994816 274027839 -1873810700 -1386239240 1565769945 745293446 1282078206 267334818 -1050621535 -1244815079 -1467937816 1920594919 -421299418 -2115189718 -1501751876 -2384393 126611816 -1905561592 -1169412751 -1574637432
REM
CELL 1.54180   50.00000   50.00000   50.00000   90.00000   90.00000   90.00000
LATT -1
SFAC C  
C      1  0.5297870000000  0.4365110000000  0.5264380000000 1.0
C      1  0.5511790000000  0.4759780000000  0.5630530000000 1.0
C      1  0.5360040000000  0.5343670000000  0.4273180000000 1.0
C      1  0.5792650000000  0.4988770000000  0.4811880000000 1.0
C      1  0.5302010000000  0.5354930000000  0.5242840000000 1.0
C      1  0.4158640000000  0.4794600000000  0.4846270000000 1.0
C      1  0.5114750000000  0.5722170000000  0.4397840000000 1.0
C      1  0.5390260000000  0.4936100000000  0.5429770000000 1.0
C      1  0.4559320000000  0.4366270000000  0.5269180000000 1.0
C      1  0.4485840000000  0.5461390000000  0.5169120000000 1.0
C      1  0.5056580000000  0.4758540000000  0.4958950000000 1.0
C      1  0.4206600000000  0.4653790000000  0.5088790000000 1.0
C      1  0.5228640000000  0.4192140000000  0.5035830000000 1.0
C      1  0.4424040000000  0.4421570000000  0.4754960000000 1.0
C      1  0.4848600000000  0.5143360000000  0.5629670000000 1.0
C      1  0.5061270000000  0.5819870000000  0.4844110000000 1.0
C      1  0.5644090000000  0.4926240000000  0.4579700000000 1.0
C      1  0.4931790000000  0.4161290000000  0.5478690000000 1.0
C      1  0.4893840000000  0.5598160000000  0.5586050000000 1.0
C      1  0.5238100000000  0.4988140000000  0.4963650000000 1.0
C      1  0.5133140000000  0.4332940000000  0.5519020000000 1.0
C      1  0.5218350000000  0.5000220000000  0.5918600000000 1.0
C      1  0.4422510000000  0.5284530000000  0.4372930000000 1.0
C      1  0.4271410000000  0.5234010000000  0.5512730000000 1.0
C      1  0.5069560000000  0.4601130000000  0.5649960000000 1.0
C      1  0.4649320000000  0.4335040000000  0.4605070000000 1.0
C      1  0.4697900000000  0.4908530000000  0.5748100000000 1.0
C      1  0.5107090000000  0.4622210000000  0.5193740000000 1.0
C      1  0.4945470000000  0.5026880000000  0.5365130000000 1.0
C      1  0.5755940000000  0.4814490000000  0.5046140000000 1.0
C      1  0.5546010000000  0.4464670000000  0.4767140000000 1.0
C      1  0.4380400000000  0.5195480000000  0.5041320000000 1.0
C      1  0.5734500000000  0.5261110000000  0.4887510000000 1.0
C      1  0.4216040000000  0.5071960000000  0.4793840000000 1.0
C      1  0.5519510000000  0.4669590000000  0.4560650000000 1.0
C      1  0.5216680000000  0.5104310000000  0.4668270000000 1.0
C      1  0.4620160000000  0.4769900000000  0.4348470000000 1.0
C      1  0.4774690000000  0.4639390000000  0.5680660000000 1.0
C      1  0.5122600000000  0.4799570000000  0.5414480000000 1.0
C      1  0.5146830000000  0.5604110000000  0.4668560000000 1.0
C      1  0.4267360000000  0.4632990000000  0.4641970000000 1.0
C      1  0.5624080000000  0.5387920000000  0.4665280000000 1.0
C      1  0.5858470000000  0.4832770000000  0.5326380000000 1.0
C      1  0.4811450000000  0.4903300000000  0.4583830000000 1.0
C      1  0.5364920000000  0.5637200000000  0.5568800000000 1.0
C      1  0.4210800000000  0.4800450000000  0.5323860000000 1.0
C      1  0.4892050000000  0.5316770000000  0.4985590000000 1.0
C      1  0.5591040000000  0.5267100000000  0.5151840000000 1.0
C      1  0.4347580000000  0.4807800000000  0.4434300000000 1.0
C      1  0.4244900000000  0.5078500000000  0.5279610000000 1.0
C      1  0.5755080000000  0.5316430000000  0.5401060000000 1.0
C      1  0.5499650000000  0.4976440000000  0.5151000000000 1.0
C      1  0.4687880000000  0.5675280000000  0.4578640000000 1.0
C      1  0.5021630000000  0.5323610000000  0.4705400000000 1.0
C      1  0.4736030000000  0.4972200000000  0.4158280000000 1.0
C      1  0.5574720000000  0.4460440000000  0.5263820000000 1.0
C      1  0.4415830000000  0.4913650000000  0.5739380000000 1.0
C      1  0.5476400000000  0.5631110000000  0.4644690000000 1.0
C      1  0.4630170000000  0.5231050000000  0.4175560000000 1.0
C      1  0.4916090000000  0.4416610000000  0.4200990000000 1.0
C      1  0.4755720000000  0.5207830000000  0.4643690000000 1.0
C      1  0.4795170000000  0.4842690000000  0.4875230000000 1.0
C      1  0.5341100000000  0.4266250000000  0.4784990000000 1.0
C      1  0.4464470000000  0.5431300000000  0.5447500000000 1.0
C      1  0.4283310000000  0.5079520000000  0.4509190000000 1.0
C      1  0.4880360000000  0.4205220000000  0.4722320000000 1.0
C      1  0.4936370000000  0.5677400000000  0.5317540000000 1.0
C      1  0.5282750000000  0.5835430000000  0.5038820000000 1.0
C      1  0.5693790000000  0.4627690000000  0.5466820000000 1.0
C      1  0.4676200000000  0.5108630000000  0.4936900000000 1.0
C      1  0.5372650000000  0.5619350000000  0.4342570000000 1.0
C      1  0.5131280000000  0.5224280000000  0.5749210000000 1.0
C      1  0.4251450000000  0.5125920000000  0.5761900000000 1.0
C      1  0.5668940000000  0.4539880000000  0.5008060000000 1.0
C      1  0.5885570000000  0.5083850000000  0.5425070000000 1.0
C      1  0.5018220000000  0.5000650000000  0.4192180000000 1.0
C      1  0.4386090000000  0.4438020000000  0.5047600000000 1.0
C      1  0.5089310000000  0.5183560000000  0.5144860000000 1.0
C      1  0.4788440000000  0.4194340000000  0.5238660000000 1.0
C      1  0.5272130000000  0.4667270000000  0.4423670000000 1.0
C      1  0.5108250000000  0.5262280000000  0.4158420000000 1.0
C      1  0.4699910000000  0.4486230000000  0.4355190000000 1.0
C      1  0.5560140000000  0.5423950000000  0.5582240000000 1.0
C      1  0.5138930000000  0.4422010000000  0.4366000000000 1.0
C      1  0.4784600000000  0.5762020000000  0.4839320000000 1.0
C      1  0.4342800000000  0.4705880000000  0.5553680000000 1.0
C      1  0.4552690000000  0.5430530000000  0.4579710000000 1.0
C      1  0.5285220000000  0.4753510000000  0.5826160000000 1.0
C      1  0.4854170000000  0.5653690000000  0.4336880000000 1.0
C      1  0.5137020000000  0.5532030000000  0.5721990000000 1.0
C      1  0.5346140000000  0.5215350000000  0.5525740000000 1.0
C      1  0.4857110000000  0.5415440000000  0.4180800000000 1.0
C      1  0.4945600000000  0.4155940000000  0.4999940000000 1.0
C      1  0.5092990000000  0.4899120000000  0.4464590000000 1.0
C      1  0.5133580000000  0.4255800000000  0.4593790000000 1.0
C      1  0.4697690000000  0.5402170000000  0.5606800000000 1.0
C      1  0.5481690000000  0.5182340000000  0.4510720000000 1.0
C      1  0.5478960000000  0.5834280000000  0.4843480000000 1.0
C      1  0.4560580000000  0.4527020000000  0.5517490000000 1.0
C      1  0.4754150000000  0.5581140000000  0.5078450000000 1.0
C      1  0.5233490000000  0.5662570000000  0.5283810000000 1.0
END
