TITL C-130733-6810-8 -0.0539513411723773 125000 -367.814963294256 0 0 53 (C1) n - 1
REM
REM in /rds/project/t2_vol4/rds-t2-cs072/BORA/CARBON/from-Arr/AIRSS/Generating-Clusters/GAP-ML-2020/Only-C1/SD-CG/HFTN-CG
REM
REM
REM
REM
REM
REM ./C.cell (11c1c37f851c82e70ff6c80c92926a4b)
REM AIRSS Version 0.9.1 bugfix July 2018 build 013d7b7c2542+ Fri, 06 Jul 2018 19:26:36 +0100
REM compiler GCC version 9.3.0
REM options -cpp -mtune=generic -march=x86-64 -g -O0
REM seed -292358028 1215875382 -1776308013 -1719656464 -189670350 -1608623082 -1882687146 411621922 -1593424801 35799507 -1272865860 -1090885857 -1137949135 795008944 668929623 -1145222795 1585240466 -1898345174 -260847989 -919382392 675005819 556331766 2143524935 -72161864 1109528087 -731336674 471011575 -1272823915 -195408439 1960792875 502844115 -229268516 1125509198
REM
CELL 1.54180   50.00000   50.00000   50.00000   90.00000   90.00000   90.00000
LATT -1
SFAC C  
C      1  0.5057120000000  0.4685550000000  0.5575520000000 1.0
C      1  0.4912720000000  0.4886800000000  0.4761120000000 1.0
C      1  0.5592860000000  0.4764770000000  0.4828660000000 1.0
C      1  0.4642380000000  0.4927520000000  0.5561540000000 1.0
C      1  0.4770420000000  0.5573100000000  0.4927990000000 1.0
C      1  0.5043920000000  0.5649780000000  0.4949890000000 1.0
C      1  0.4704120000000  0.5400700000000  0.5425180000000 1.0
C      1  0.4391550000000  0.4935870000000  0.4312880000000 1.0
C      1  0.5593840000000  0.5022160000000  0.5277110000000 1.0
C      1  0.4485030000000  0.4806640000000  0.4772150000000 1.0
C      1  0.5175240000000  0.5552790000000  0.5451870000000 1.0
C      1  0.5334600000000  0.5164020000000  0.5647800000000 1.0
C      1  0.4970230000000  0.4917330000000  0.4472770000000 1.0
C      1  0.5199410000000  0.5638400000000  0.5186990000000 1.0
C      1  0.4521540000000  0.4775190000000  0.4486220000000 1.0
C      1  0.5050900000000  0.5020660000000  0.4956550000000 1.0
C      1  0.4631560000000  0.5459820000000  0.5148190000000 1.0
C      1  0.5421920000000  0.4585810000000  0.5250290000000 1.0
C      1  0.5198870000000  0.5427150000000  0.4533520000000 1.0
C      1  0.5585420000000  0.4785310000000  0.5111450000000 1.0
C      1  0.4896790000000  0.4424650000000  0.4468120000000 1.0
C      1  0.5338150000000  0.5228320000000  0.4394460000000 1.0
C      1  0.5050640000000  0.5169180000000  0.5691670000000 1.0
C      1  0.4946110000000  0.5414360000000  0.5569630000000 1.0
C      1  0.4545720000000  0.5139330000000  0.4398820000000 1.0
C      1  0.4634110000000  0.4676260000000  0.5413080000000 1.0
C      1  0.4499130000000  0.5268950000000  0.4651220000000 1.0
C      1  0.5457580000000  0.4551000000000  0.4698640000000 1.0
C      1  0.4714010000000  0.4687100000000  0.4907000000000 1.0
C      1  0.5405440000000  0.5389070000000  0.5487130000000 1.0
C      1  0.4880050000000  0.4524490000000  0.5419430000000 1.0
C      1  0.4721210000000  0.4786430000000  0.5177040000000 1.0
C      1  0.5004680000000  0.4343280000000  0.4709410000000 1.0
C      1  0.4915730000000  0.5398340000000  0.4485570000000 1.0
C      1  0.4948470000000  0.5011770000000  0.5197020000000 1.0
C      1  0.5270970000000  0.4969890000000  0.4435240000000 1.0
C      1  0.4830590000000  0.5158770000000  0.4361110000000 1.0
C      1  0.4466350000000  0.5213000000000  0.5130900000000 1.0
C      1  0.4910830000000  0.4926410000000  0.5663120000000 1.0
C      1  0.4830240000000  0.4416270000000  0.4937450000000 1.0
C      1  0.4979540000000  0.4388170000000  0.5187130000000 1.0
C      1  0.4710020000000  0.5457960000000  0.4677600000000 1.0
C      1  0.5262400000000  0.5526270000000  0.4790960000000 1.0
C      1  0.5463600000000  0.4945150000000  0.5528050000000 1.0
C      1  0.5458650000000  0.4810260000000  0.4583690000000 1.0
C      1  0.5253240000000  0.4406630000000  0.5107670000000 1.0
C      1  0.5537520000000  0.5312470000000  0.5237180000000 1.0
C      1  0.4427660000000  0.5094330000000  0.4872180000000 1.0
C      1  0.4794570000000  0.4662980000000  0.4406180000000 1.0
C      1  0.5420060000000  0.5485030000000  0.5033750000000 1.0
C      1  0.4543500000000  0.5158720000000  0.5422450000000 1.0
C      1  0.5269570000000  0.4379240000000  0.4821030000000 1.0
C      1  0.5329210000000  0.4696540000000  0.5498350000000 1.0
END
