TITL C-131276-6775-7 8.3974954760167 125000 -752.843696461619 0 0 109 (C1) n - 1
REM
REM in /rds/project/t2_vol4/rds-t2-cs072/BORA/CARBON/from-Arr/AIRSS/Generating-Clusters/GAP-ML-2020/Only-C1/SD-CG/HFTN-CG
REM
REM
REM
REM
REM
REM ./C.cell (11c1c37f851c82e70ff6c80c92926a4b)
REM AIRSS Version 0.9.1 bugfix July 2018 build 013d7b7c2542+ Fri, 06 Jul 2018 19:26:36 +0100
REM compiler GCC version 9.3.0
REM options -cpp -mtune=generic -march=x86-64 -g -O0
REM seed -222963878 1232095051 2005650872 1780930034 1653656759 -644467044 -135618919 503577468 1849210208 192677068 -384466014 1057486033 -236979622 -259466041 -385212076 483043155 1509377097 711178305 1396504639 -2124520000 478598369 -953048302 828025522 -535762302 472849454 1755459898 587398625 -2005466285 -1108497600 295259156 564707727 1344831921 -136937739
REM
CELL 1.54180   50.00000   50.00000   50.00000   90.00000   90.00000   90.00000
LATT -1
SFAC C  
C      1  0.4787330000000  0.5050680000000  0.5904880000000 1.0
C      1  0.4457710000000  0.4531960000000  0.4450050000000 1.0
C      1  0.4730820000000  0.4830380000000  0.4872350000000 1.0
C      1  0.5256660000000  0.4310170000000  0.4539510000000 1.0
C      1  0.4802100000000  0.4679420000000  0.5316560000000 1.0
C      1  0.5849410000000  0.5227600000000  0.5100020000000 1.0
C      1  0.4267360000000  0.4755390000000  0.4477780000000 1.0
C      1  0.4243560000000  0.5420780000000  0.4609950000000 1.0
C      1  0.5622140000000  0.5128650000000  0.5537040000000 1.0
C      1  0.5000430000000  0.4174230000000  0.5283540000000 1.0
C      1  0.5759800000000  0.4598270000000  0.4938620000000 1.0
C      1  0.4899620000000  0.4324410000000  0.4322140000000 1.0
C      1  0.4454050000000  0.4849200000000  0.5668480000000 1.0
C      1  0.5003890000000  0.5501100000000  0.5865980000000 1.0
C      1  0.5077500000000  0.4100460000000  0.5019170000000 1.0
C      1  0.4644140000000  0.4636740000000  0.5746390000000 1.0
C      1  0.4944490000000  0.5831330000000  0.4780610000000 1.0
C      1  0.5431310000000  0.5021280000000  0.5074160000000 1.0
C      1  0.4888740000000  0.4102030000000  0.4795620000000 1.0
C      1  0.5510740000000  0.4804940000000  0.4407000000000 1.0
C      1  0.5775760000000  0.5504300000000  0.5138400000000 1.0
C      1  0.5171190000000  0.4553220000000  0.5563510000000 1.0
C      1  0.5258280000000  0.5630520000000  0.5856640000000 1.0
C      1  0.5140580000000  0.5879210000000  0.5143100000000 1.0
C      1  0.4323070000000  0.5353040000000  0.5296060000000 1.0
C      1  0.4602460000000  0.4883930000000  0.5306020000000 1.0
C      1  0.5100060000000  0.5404800000000  0.4189450000000 1.0
C      1  0.4837850000000  0.5405030000000  0.4104100000000 1.0
C      1  0.4922450000000  0.5013340000000  0.4449960000000 1.0
C      1  0.4804700000000  0.4590800000000  0.5031540000000 1.0
C      1  0.5353810000000  0.5296610000000  0.4960380000000 1.0
C      1  0.4184560000000  0.5212280000000  0.5076620000000 1.0
C      1  0.5326060000000  0.5205340000000  0.4226860000000 1.0
C      1  0.5666110000000  0.4422860000000  0.4759640000000 1.0
C      1  0.5549330000000  0.5563210000000  0.4950160000000 1.0
C      1  0.5289580000000  0.5250020000000  0.4688590000000 1.0
C      1  0.5351080000000  0.4871820000000  0.5850030000000 1.0
C      1  0.4696290000000  0.5502150000000  0.4541820000000 1.0
C      1  0.5674960000000  0.4750350000000  0.5393660000000 1.0
C      1  0.4636520000000  0.5706870000000  0.5212260000000 1.0
C      1  0.4868890000000  0.5213560000000  0.5043120000000 1.0
C      1  0.5350780000000  0.4918410000000  0.4197550000000 1.0
C      1  0.4710090000000  0.5186650000000  0.4544160000000 1.0
C      1  0.5743240000000  0.5191860000000  0.4565570000000 1.0
C      1  0.4906750000000  0.5690250000000  0.4541780000000 1.0
C      1  0.5219950000000  0.4319100000000  0.5407970000000 1.0
C      1  0.5149600000000  0.4700450000000  0.4179900000000 1.0
C      1  0.5401500000000  0.5386690000000  0.5852950000000 1.0
C      1  0.4133350000000  0.4935740000000  0.4999120000000 1.0
C      1  0.4716300000000  0.4469110000000  0.5521980000000 1.0
C      1  0.4860310000000  0.4764450000000  0.5882610000000 1.0
C      1  0.5208830000000  0.4557300000000  0.4706660000000 1.0
C      1  0.5071780000000  0.4805500000000  0.5373030000000 1.0
C      1  0.5217510000000  0.5751040000000  0.5590730000000 1.0
C      1  0.4997260000000  0.5080010000000  0.5455100000000 1.0
C      1  0.4579300000000  0.4330380000000  0.5097250000000 1.0
C      1  0.4619990000000  0.4196340000000  0.4841090000000 1.0
C      1  0.5275020000000  0.5140230000000  0.5945580000000 1.0
C      1  0.5136790000000  0.5617390000000  0.4381450000000 1.0
C      1  0.4730510000000  0.4242910000000  0.5348500000000 1.0
C      1  0.5217760000000  0.5880990000000  0.4860300000000 1.0
C      1  0.4887140000000  0.4778780000000  0.4274330000000 1.0
C      1  0.5197610000000  0.4832220000000  0.5101790000000 1.0
C      1  0.4741780000000  0.5133840000000  0.5312880000000 1.0
C      1  0.4153190000000  0.5155660000000  0.4551400000000 1.0
C      1  0.5431660000000  0.5327000000000  0.5580710000000 1.0
C      1  0.4206890000000  0.4722850000000  0.5183780000000 1.0
C      1  0.4714820000000  0.4542880000000  0.4317700000000 1.0
C      1  0.4393880000000  0.5571160000000  0.5117600000000 1.0
C      1  0.5645610000000  0.4530320000000  0.5217410000000 1.0
C      1  0.5001240000000  0.4965750000000  0.4920760000000 1.0
C      1  0.4973810000000  0.5559970000000  0.5570860000000 1.0
C      1  0.5467850000000  0.4242910000000  0.4735570000000 1.0
C      1  0.4702720000000  0.5577980000000  0.5463590000000 1.0
C      1  0.4557440000000  0.5317890000000  0.5488710000000 1.0
C      1  0.5344180000000  0.5802430000000  0.5342930000000 1.0
C      1  0.4342160000000  0.4827320000000  0.5408270000000 1.0
C      1  0.5840290000000  0.4837800000000  0.4785950000000 1.0
C      1  0.4249520000000  0.5441250000000  0.4897140000000 1.0
C      1  0.4856890000000  0.5831430000000  0.5064090000000 1.0
C      1  0.5151270000000  0.5325080000000  0.5425420000000 1.0
C      1  0.5361620000000  0.4164770000000  0.4993970000000 1.0
C      1  0.4559190000000  0.5106990000000  0.5735930000000 1.0
C      1  0.4665070000000  0.5107360000000  0.4826620000000 1.0
C      1  0.4998910000000  0.4165120000000  0.4545190000000 1.0
C      1  0.4281650000000  0.5011360000000  0.4332630000000 1.0
C      1  0.4141300000000  0.4910680000000  0.4711320000000 1.0
C      1  0.4305590000000  0.4466140000000  0.5079910000000 1.0
C      1  0.5138950000000  0.4676860000000  0.5822890000000 1.0
C      1  0.5135380000000  0.5011300000000  0.4662100000000 1.0
C      1  0.5390840000000  0.5603880000000  0.4502600000000 1.0
C      1  0.4432800000000  0.4331200000000  0.4659400000000 1.0
C      1  0.5866800000000  0.5125460000000  0.4833780000000 1.0
C      1  0.4521980000000  0.5137120000000  0.4282740000000 1.0
C      1  0.4995820000000  0.5232180000000  0.5969700000000 1.0
C      1  0.4230090000000  0.4412150000000  0.4825580000000 1.0
C      1  0.5448170000000  0.4309310000000  0.5228920000000 1.0
C      1  0.5748240000000  0.4903680000000  0.4517730000000 1.0
C      1  0.5432160000000  0.5736470000000  0.4747600000000 1.0
C      1  0.4569810000000  0.5394540000000  0.4176060000000 1.0
C      1  0.5328480000000  0.4792970000000  0.4630830000000 1.0
C      1  0.5120990000000  0.5354680000000  0.5122320000000 1.0
C      1  0.4444150000000  0.5532310000000  0.4424010000000 1.0
C      1  0.5574530000000  0.4871840000000  0.5647500000000 1.0
C      1  0.5679110000000  0.5032010000000  0.5265150000000 1.0
C      1  0.5590660000000  0.5698030000000  0.5209610000000 1.0
C      1  0.5172030000000  0.4430020000000  0.4264690000000 1.0
C      1  0.5107910000000  0.4577210000000  0.4969440000000 1.0
C      1  0.5485800000000  0.5322810000000  0.4465880000000 1.0
END
