TITL C-130740-6863-8 -0.129519799473932 125000 -357.02038874958 0 0 53 (C1) n - 1
REM
REM in /rds/project/t2_vol4/rds-t2-cs072/BORA/CARBON/from-Arr/AIRSS/Generating-Clusters/GAP-ML-2020/Only-C1/SD-CG/HFTN-CG
REM
REM
REM
REM
REM
REM ./C.cell (11c1c37f851c82e70ff6c80c92926a4b)
REM AIRSS Version 0.9.1 bugfix July 2018 build 013d7b7c2542+ Fri, 06 Jul 2018 19:26:36 +0100
REM compiler GCC version 9.3.0
REM options -cpp -mtune=generic -march=x86-64 -g -O0
REM seed -998101740 -2065235179 829562885 370345684 -1545811349 -763226457 -1815803260 106999937 554390283 559355179 -803145530 -124501844 -1186957103 -1578400267 -152602935 -917627691 -294972238 -1184109395 -1523823464 72460439 1949526539 128115544 1876138378 -614616123 2021317386 -2057892686 -2124812728 1099621309 1021224219 -1837957033 -904212723 -1344795901 -1924481129
REM
CELL 1.54180   50.00000   50.00000   50.00000   90.00000   90.00000   90.00000
LATT -1
SFAC C  
C      1  0.5460420000000  0.4684100000000  0.4948100000000 1.0
C      1  0.5328430000000  0.4483090000000  0.5096800000000 1.0
C      1  0.4659420000000  0.4439210000000  0.4978080000000 1.0
C      1  0.4783050000000  0.5683500000000  0.5099550000000 1.0
C      1  0.5336480000000  0.5434000000000  0.4655940000000 1.0
C      1  0.5446010000000  0.5276550000000  0.4877430000000 1.0
C      1  0.5224490000000  0.4370470000000  0.4644280000000 1.0
C      1  0.4446560000000  0.4786920000000  0.5181910000000 1.0
C      1  0.4636760000000  0.4573050000000  0.4513440000000 1.0
C      1  0.4540390000000  0.4521890000000  0.5224310000000 1.0
C      1  0.5301150000000  0.4593670000000  0.5362870000000 1.0
C      1  0.4593970000000  0.5592170000000  0.4657480000000 1.0
C      1  0.4988390000000  0.5815040000000  0.4607640000000 1.0
C      1  0.5398700000000  0.5063760000000  0.5506190000000 1.0
C      1  0.4900380000000  0.4673640000000  0.4485330000000 1.0
C      1  0.5177090000000  0.4543950000000  0.4446780000000 1.0
C      1  0.4520520000000  0.4846600000000  0.4912570000000 1.0
C      1  0.4962580000000  0.5234670000000  0.5310090000000 1.0
C      1  0.4391020000000  0.5417640000000  0.5083380000000 1.0
C      1  0.4750790000000  0.5108730000000  0.4575560000000 1.0
C      1  0.5698930000000  0.5399690000000  0.5296220000000 1.0
C      1  0.5171310000000  0.5665470000000  0.4766470000000 1.0
C      1  0.4393550000000  0.4990770000000  0.5370670000000 1.0
C      1  0.4933930000000  0.4486400000000  0.4946220000000 1.0
C      1  0.4859130000000  0.4415620000000  0.5531710000000 1.0
C      1  0.4923620000000  0.4964410000000  0.4396080000000 1.0
C      1  0.4642030000000  0.5350190000000  0.4548500000000 1.0
C      1  0.5108150000000  0.5087890000000  0.5517010000000 1.0
C      1  0.4344740000000  0.5240820000000  0.5250380000000 1.0
C      1  0.4943360000000  0.5508890000000  0.5249230000000 1.0
C      1  0.5065350000000  0.4603150000000  0.5529370000000 1.0
C      1  0.4977770000000  0.4862260000000  0.5630330000000 1.0
C      1  0.4784790000000  0.4969610000000  0.4862700000000 1.0
C      1  0.5260990000000  0.4836390000000  0.4784270000000 1.0
C      1  0.5299110000000  0.5290580000000  0.4418230000000 1.0
C      1  0.4713270000000  0.4887320000000  0.5716200000000 1.0
C      1  0.5576520000000  0.5275050000000  0.5482560000000 1.0
C      1  0.5487180000000  0.4812180000000  0.5387850000000 1.0
C      1  0.4613530000000  0.4415560000000  0.5470210000000 1.0
C      1  0.5200010000000  0.5040550000000  0.4358740000000 1.0
C      1  0.5167780000000  0.4326910000000  0.4905750000000 1.0
C      1  0.4529910000000  0.4595760000000  0.4759770000000 1.0
C      1  0.5631260000000  0.4823480000000  0.5137580000000 1.0
C      1  0.5051960000000  0.5659360000000  0.5030580000000 1.0
C      1  0.5807900000000  0.5008580000000  0.5062660000000 1.0
C      1  0.4483410000000  0.4941950000000  0.5637600000000 1.0
C      1  0.4971550000000  0.4733890000000  0.4788190000000 1.0
C      1  0.4559530000000  0.5590880000000  0.4944530000000 1.0
C      1  0.4740070000000  0.5821250000000  0.4548410000000 1.0
C      1  0.5239050000000  0.5090170000000  0.4924730000000 1.0
C      1  0.4980970000000  0.5097450000000  0.5053320000000 1.0
C      1  0.5677040000000  0.5258700000000  0.5038810000000 1.0
C      1  0.5315710000000  0.4806160000000  0.4487400000000 1.0
END
