TITL C-136393-9236-2 -133.912860874096 125000 -704.317023704095 0 0 102 (C1) n - 1
REM
REM in /rds/project/t2_vol4/rds-t2-cs072/BORA/CARBON/from-Arr/AIRSS/Generating-Clusters/GAP-ML-2020/Only-C1/SD-CG/HFTN-CG
REM
REM
REM
REM
REM
REM ./C.cell (11c1c37f851c82e70ff6c80c92926a4b)
REM AIRSS Version 0.9.1 bugfix July 2018 build 013d7b7c2542+ Fri, 06 Jul 2018 19:26:36 +0100
REM compiler GCC version 9.3.0
REM options -cpp -mtune=generic -march=x86-64 -g -O0
REM seed 2092229851 228390506 336635729 198845181 -550118908 -1998012132 -1551572116 -782804968 1050317738 461092045 -1701952582 1503232178 -2119315257 -1779108872 1710749199 957028955 2063548950 1551665634 1079140406 1528308248 -1138708949 233156564 -1587593224 1958534438 1249396309 -2005244359 529263905 -1697601237 -493389807 1628254868 -749521595 -1719501498 -618924081
REM
CELL 1.54180   50.00000   50.00000   50.00000   90.00000   90.00000   90.00000
LATT -1
SFAC C  
C      1  0.4490660000000  0.4467660000000  0.5353830000000 1.0
C      1  0.5789210000000  0.4664830000000  0.4667700000000 1.0
C      1  0.4302870000000  0.4686900000000  0.5437080000000 1.0
C      1  0.4530640000000  0.5205560000000  0.5322260000000 1.0
C      1  0.5577280000000  0.5580100000000  0.4888820000000 1.0
C      1  0.4804390000000  0.5096830000000  0.5285370000000 1.0
C      1  0.4829280000000  0.4705960000000  0.5657570000000 1.0
C      1  0.4515340000000  0.4442800000000  0.4570610000000 1.0
C      1  0.4518070000000  0.5457510000000  0.5176500000000 1.0
C      1  0.5594130000000  0.4760890000000  0.5578790000000 1.0
C      1  0.5453450000000  0.4285530000000  0.5318710000000 1.0
C      1  0.4217520000000  0.5515630000000  0.5146690000000 1.0
C      1  0.4558220000000  0.4829790000000  0.4395350000000 1.0
C      1  0.4808520000000  0.5082980000000  0.4992650000000 1.0
C      1  0.4151180000000  0.5453900000000  0.4869430000000 1.0
C      1  0.5683660000000  0.4431250000000  0.5231190000000 1.0
C      1  0.5100260000000  0.4233990000000  0.4605620000000 1.0
C      1  0.5292940000000  0.4933000000000  0.4159970000000 1.0
C      1  0.4086600000000  0.4918480000000  0.4983690000000 1.0
C      1  0.4602850000000  0.4320640000000  0.4830630000000 1.0
C      1  0.4832650000000  0.4827990000000  0.5372410000000 1.0
C      1  0.4443980000000  0.4709040000000  0.4965210000000 1.0
C      1  0.4999540000000  0.4393110000000  0.5341960000000 1.0
C      1  0.5512100000000  0.4915860000000  0.4337190000000 1.0
C      1  0.5048350000000  0.4240040000000  0.5086830000000 1.0
C      1  0.5156910000000  0.4385450000000  0.4360980000000 1.0
C      1  0.5558400000000  0.5210560000000  0.5419970000000 1.0
C      1  0.5062520000000  0.5267660000000  0.5351210000000 1.0
C      1  0.5385370000000  0.4227990000000  0.4642080000000 1.0
C      1  0.5215720000000  0.5236810000000  0.5819000000000 1.0
C      1  0.5740090000000  0.4325110000000  0.4968400000000 1.0
C      1  0.4335910000000  0.4670750000000  0.4542890000000 1.0
C      1  0.4350370000000  0.5518010000000  0.4681580000000 1.0
C      1  0.4740330000000  0.4586570000000  0.4440860000000 1.0
C      1  0.5249680000000  0.4841250000000  0.5181720000000 1.0
C      1  0.4711420000000  0.5601730000000  0.5356650000000 1.0
C      1  0.5135210000000  0.5389370000000  0.4873580000000 1.0
C      1  0.4661860000000  0.5317270000000  0.4364230000000 1.0
C      1  0.5050430000000  0.4772020000000  0.4115020000000 1.0
C      1  0.4977850000000  0.5016280000000  0.4580790000000 1.0
C      1  0.5109590000000  0.5468010000000  0.5149570000000 1.0
C      1  0.4765790000000  0.5460640000000  0.5624250000000 1.0
C      1  0.5897720000000  0.4434800000000  0.4781440000000 1.0
C      1  0.4219570000000  0.4759980000000  0.4788250000000 1.0
C      1  0.4695600000000  0.5920130000000  0.4762820000000 1.0
C      1  0.5805420000000  0.4910570000000  0.5127600000000 1.0
C      1  0.5725570000000  0.5150680000000  0.4723240000000 1.0
C      1  0.5812360000000  0.4900720000000  0.4832340000000 1.0
C      1  0.5437690000000  0.4422900000000  0.4428320000000 1.0
C      1  0.5494270000000  0.5256590000000  0.5819700000000 1.0
C      1  0.4689300000000  0.4831800000000  0.4860970000000 1.0
C      1  0.4493810000000  0.5762620000000  0.4706750000000 1.0
C      1  0.4119540000000  0.4862550000000  0.5277610000000 1.0
C      1  0.4034330000000  0.5315780000000  0.5234690000000 1.0
C      1  0.4667790000000  0.5351450000000  0.4893350000000 1.0
C      1  0.4098840000000  0.5117020000000  0.5416100000000 1.0
C      1  0.4017270000000  0.5209530000000  0.4961240000000 1.0
C      1  0.4890240000000  0.5513590000000  0.4755150000000 1.0
C      1  0.5631160000000  0.5031690000000  0.5657750000000 1.0
C      1  0.4484550000000  0.4440220000000  0.5065210000000 1.0
C      1  0.4961410000000  0.4545660000000  0.4248450000000 1.0
C      1  0.4637410000000  0.4915260000000  0.5752130000000 1.0
C      1  0.5055760000000  0.5427300000000  0.5641220000000 1.0
C      1  0.5380560000000  0.5947850000000  0.5224680000000 1.0
C      1  0.4911260000000  0.4313290000000  0.4826520000000 1.0
C      1  0.5600130000000  0.4660900000000  0.4448500000000 1.0
C      1  0.5731470000000  0.4698610000000  0.5320760000000 1.0
C      1  0.5031240000000  0.4684000000000  0.5245940000000 1.0
C      1  0.5112940000000  0.4737310000000  0.5741890000000 1.0
C      1  0.4528500000000  0.5278180000000  0.4622630000000 1.0
C      1  0.5565040000000  0.5165770000000  0.4481170000000 1.0
C      1  0.5508060000000  0.4167810000000  0.4881340000000 1.0
C      1  0.5174220000000  0.4998500000000  0.5689590000000 1.0
C      1  0.4648820000000  0.5064590000000  0.4214210000000 1.0
C      1  0.5378520000000  0.5385740000000  0.4464040000000 1.0
C      1  0.5344590000000  0.4600330000000  0.5652400000000 1.0
C      1  0.4660260000000  0.4999670000000  0.4608730000000 1.0
C      1  0.4386750000000  0.4861400000000  0.5637850000000 1.0
C      1  0.4934450000000  0.5791320000000  0.4885070000000 1.0
C      1  0.5137450000000  0.5378390000000  0.4316250000000 1.0
C      1  0.5348990000000  0.5534260000000  0.4709980000000 1.0
C      1  0.5322200000000  0.4169500000000  0.5095890000000 1.0
C      1  0.5499940000000  0.5448480000000  0.5610890000000 1.0
C      1  0.5740330000000  0.5184410000000  0.5187320000000 1.0
C      1  0.5127620000000  0.5169110000000  0.4131640000000 1.0
C      1  0.4739280000000  0.4447590000000  0.5497020000000 1.0
C      1  0.4876640000000  0.4621770000000  0.4730000000000 1.0
C      1  0.5714040000000  0.5340500000000  0.4943130000000 1.0
C      1  0.4888040000000  0.5009390000000  0.4092200000000 1.0
C      1  0.5264750000000  0.4379450000000  0.5497310000000 1.0
C      1  0.5275070000000  0.5070020000000  0.5384870000000 1.0
C      1  0.4350800000000  0.5150030000000  0.5563100000000 1.0
C      1  0.5253620000000  0.4882740000000  0.4906410000000 1.0
C      1  0.5120070000000  0.4769640000000  0.4678060000000 1.0
C      1  0.5190780000000  0.5802380000000  0.5362150000000 1.0
C      1  0.5222930000000  0.5802100000000  0.4796170000000 1.0
C      1  0.5260580000000  0.5624570000000  0.5579010000000 1.0
C      1  0.5430740000000  0.5820950000000  0.4991690000000 1.0
C      1  0.4945850000000  0.5707330000000  0.5201810000000 1.0
C      1  0.4893650000000  0.5459840000000  0.4445840000000 1.0
C      1  0.4605270000000  0.5225010000000  0.5700690000000 1.0
C      1  0.5073790000000  0.5110740000000  0.4850060000000 1.0
END
