TITL C-136415-277-10 3.74566200059368 125000 -349.305543947965 0 0 52 (C1) n - 1
REM
REM in /rds/project/t2_vol4/rds-t2-cs072/BORA/CARBON/from-Arr/AIRSS/Generating-Clusters/GAP-ML-2020/Only-C1/SD-CG/HFTN-CG
REM
REM
REM
REM
REM
REM ./C.cell (11c1c37f851c82e70ff6c80c92926a4b)
REM AIRSS Version 0.9.1 bugfix July 2018 build 013d7b7c2542+ Fri, 06 Jul 2018 19:26:36 +0100
REM compiler GCC version 9.3.0
REM options -cpp -mtune=generic -march=x86-64 -g -O0
REM seed 171603262 -1986078997 485975366 -737618944 -92510027 2065941751 -1648448090 1286483386 1574734944 1590253600 1357953699 -1269635187 1887137760 1250354079 -1287817369 -1733944536 348956884 -1003838224 -707727204 -1734746369 -102127380 -839476392 -424607212 818668574 2006829694 -467499178 1611741254 298058852 380573780 710732671 -1965817876 -1818979387 -135589585
REM
CELL 1.54180   50.00000   50.00000   50.00000   90.00000   90.00000   90.00000
LATT -1
SFAC C  
C      1  0.5513460000000  0.4873230000000  0.4672160000000 1.0
C      1  0.4733440000000  0.4725070000000  0.4490450000000 1.0
C      1  0.4801340000000  0.4511070000000  0.4894370000000 1.0
C      1  0.5324200000000  0.5514420000000  0.4848970000000 1.0
C      1  0.5371080000000  0.5358130000000  0.5103010000000 1.0
C      1  0.4866060000000  0.5644930000000  0.4982100000000 1.0
C      1  0.4438110000000  0.5250970000000  0.5437290000000 1.0
C      1  0.5136850000000  0.5013480000000  0.4384240000000 1.0
C      1  0.5101400000000  0.5007540000000  0.5764380000000 1.0
C      1  0.4389180000000  0.4823150000000  0.5151500000000 1.0
C      1  0.4981570000000  0.5474930000000  0.4531490000000 1.0
C      1  0.4703960000000  0.5392700000000  0.4523210000000 1.0
C      1  0.5499170000000  0.4671230000000  0.5261580000000 1.0
C      1  0.4881650000000  0.4533280000000  0.4619610000000 1.0
C      1  0.4631310000000  0.4527020000000  0.5436840000000 1.0
C      1  0.4613910000000  0.5236510000000  0.4962720000000 1.0
C      1  0.5552180000000  0.5134930000000  0.4989620000000 1.0
C      1  0.4932730000000  0.5194300000000  0.4911270000000 1.0
C      1  0.5432550000000  0.4415000000000  0.5223780000000 1.0
C      1  0.5409250000000  0.5355650000000  0.4622340000000 1.0
C      1  0.5084150000000  0.5261020000000  0.5171030000000 1.0
C      1  0.5170620000000  0.4552290000000  0.4592720000000 1.0
C      1  0.4456530000000  0.4978550000000  0.5398340000000 1.0
C      1  0.4769520000000  0.4795080000000  0.4997370000000 1.0
C      1  0.4573260000000  0.5467390000000  0.4773860000000 1.0
C      1  0.4880160000000  0.4806670000000  0.5278220000000 1.0
C      1  0.5131810000000  0.4966180000000  0.5266260000000 1.0
C      1  0.5362980000000  0.4883260000000  0.5426450000000 1.0
C      1  0.4869360000000  0.4913350000000  0.5731970000000 1.0
C      1  0.5301500000000  0.4799300000000  0.4499580000000 1.0
C      1  0.4962140000000  0.4373470000000  0.5084050000000 1.0
C      1  0.4540560000000  0.4908800000000  0.4619450000000 1.0
C      1  0.4860870000000  0.4950290000000  0.4354600000000 1.0
C      1  0.4878150000000  0.5476140000000  0.5221700000000 1.0
C      1  0.5460500000000  0.5424800000000  0.5378690000000 1.0
C      1  0.5574220000000  0.5147940000000  0.4705450000000 1.0
C      1  0.4521220000000  0.4947840000000  0.4909380000000 1.0
C      1  0.4896680000000  0.4502370000000  0.5326010000000 1.0
C      1  0.4681840000000  0.4829700000000  0.5523000000000 1.0
C      1  0.5240630000000  0.4324810000000  0.5025270000000 1.0
C      1  0.5068450000000  0.5611610000000  0.4781050000000 1.0
C      1  0.4623130000000  0.5329290000000  0.5249040000000 1.0
C      1  0.5497560000000  0.4845080000000  0.4979580000000 1.0
C      1  0.5188040000000  0.5292330000000  0.4450220000000 1.0
C      1  0.4633780000000  0.5717420000000  0.4866730000000 1.0
C      1  0.4659560000000  0.5127340000000  0.4468100000000 1.0
C      1  0.5298870000000  0.4382490000000  0.4759770000000 1.0
C      1  0.5361900000000  0.5053340000000  0.5654840000000 1.0
C      1  0.4990100000000  0.4932270000000  0.4844760000000 1.0
C      1  0.5208590000000  0.4857730000000  0.5008010000000 1.0
C      1  0.4456360000000  0.4568180000000  0.5237280000000 1.0
C      1  0.5483570000000  0.5316130000000  0.5606300000000 1.0
END
