TITL C-130744-6710-3 -0.135079345018881 125000 -676.237317533969 0 0 99 (C1) n - 1
REM
REM in /rds/project/t2_vol4/rds-t2-cs072/BORA/CARBON/from-Arr/AIRSS/Generating-Clusters/GAP-ML-2020/Only-C1/SD-CG/HFTN-CG
REM
REM
REM
REM
REM
REM ./C.cell (11c1c37f851c82e70ff6c80c92926a4b)
REM AIRSS Version 0.9.1 bugfix July 2018 build 013d7b7c2542+ Fri, 06 Jul 2018 19:26:36 +0100
REM compiler GCC version 9.3.0
REM options -cpp -mtune=generic -march=x86-64 -g -O0
REM seed -1569726382 1522115494 1754676776 -19332508 -2032778616 -1670782771 644680756 -183716765 1458275588 125189947 -1988868932 743431356 -1922135698 -1616967477 2111504506 2117956991 -6193788 2110051390 -1109420086 -253512061 1666592550 -1613721303 -1874787383 -1270052212 -510849755 -18981762 114133100 -983984654 907993034 2026975314 522987085 -1810786986 -1306361167
REM
CELL 1.54180   50.00000   50.00000   50.00000   90.00000   90.00000   90.00000
LATT -1
SFAC C  
C      1  0.5298770000000  0.4899700000000  0.5119100000000 1.0
C      1  0.5006360000000  0.4277460000000  0.4435370000000 1.0
C      1  0.4872290000000  0.5576070000000  0.5262080000000 1.0
C      1  0.4123530000000  0.5128040000000  0.4591730000000 1.0
C      1  0.4993540000000  0.4433760000000  0.5120740000000 1.0
C      1  0.5374680000000  0.4797470000000  0.4838770000000 1.0
C      1  0.5659860000000  0.4492870000000  0.4952560000000 1.0
C      1  0.5156880000000  0.4877610000000  0.4254700000000 1.0
C      1  0.4310700000000  0.5283770000000  0.4449620000000 1.0
C      1  0.4706710000000  0.5477040000000  0.5005830000000 1.0
C      1  0.4750890000000  0.4756560000000  0.4839610000000 1.0
C      1  0.5623400000000  0.5359830000000  0.4651390000000 1.0
C      1  0.4820360000000  0.5054140000000  0.5779530000000 1.0
C      1  0.4869730000000  0.4631350000000  0.5739330000000 1.0
C      1  0.5293410000000  0.4407420000000  0.5704160000000 1.0
C      1  0.5061050000000  0.4871940000000  0.5722430000000 1.0
C      1  0.5236570000000  0.4253420000000  0.5486310000000 1.0
C      1  0.5125390000000  0.5074600000000  0.4957610000000 1.0
C      1  0.5624550000000  0.4991090000000  0.4379820000000 1.0
C      1  0.5470750000000  0.4614870000000  0.5660950000000 1.0
C      1  0.5156970000000  0.5389000000000  0.5229430000000 1.0
C      1  0.4109720000000  0.4904690000000  0.5005380000000 1.0
C      1  0.5501510000000  0.5405520000000  0.5617220000000 1.0
C      1  0.5172520000000  0.4339690000000  0.4896200000000 1.0
C      1  0.4980660000000  0.4300240000000  0.5387470000000 1.0
C      1  0.5405650000000  0.4563150000000  0.4486730000000 1.0
C      1  0.5270000000000  0.5833440000000  0.5392820000000 1.0
C      1  0.5297140000000  0.5827380000000  0.5663830000000 1.0
C      1  0.5483080000000  0.5723350000000  0.5225790000000 1.0
C      1  0.5160850000000  0.4680200000000  0.5254240000000 1.0
C      1  0.4200850000000  0.4886960000000  0.5274750000000 1.0
C      1  0.4652450000000  0.5043320000000  0.4810440000000 1.0
C      1  0.4598240000000  0.5123100000000  0.5373330000000 1.0
C      1  0.5634820000000  0.4659340000000  0.4715800000000 1.0
C      1  0.5783310000000  0.5152120000000  0.4776240000000 1.0
C      1  0.5169130000000  0.5355430000000  0.4928740000000 1.0
C      1  0.4780940000000  0.4881780000000  0.5309890000000 1.0
C      1  0.5764760000000  0.4612340000000  0.5202790000000 1.0
C      1  0.5240090000000  0.5118690000000  0.5346090000000 1.0
C      1  0.5780740000000  0.5295640000000  0.5276240000000 1.0
C      1  0.4733190000000  0.4161360000000  0.4737770000000 1.0
C      1  0.5006000000000  0.4178210000000  0.4697280000000 1.0
C      1  0.5374550000000  0.5597510000000  0.5766010000000 1.0
C      1  0.4437020000000  0.5535900000000  0.4851970000000 1.0
C      1  0.5388440000000  0.5741850000000  0.4955020000000 1.0
C      1  0.4298070000000  0.5133910000000  0.5376600000000 1.0
C      1  0.4942800000000  0.5744730000000  0.4766550000000 1.0
C      1  0.4097150000000  0.5171540000000  0.4875130000000 1.0
C      1  0.4949840000000  0.5676230000000  0.4500470000000 1.0
C      1  0.4211530000000  0.5406710000000  0.4987560000000 1.0
C      1  0.5853490000000  0.5123980000000  0.5052790000000 1.0
C      1  0.4341880000000  0.4689550000000  0.4431970000000 1.0
C      1  0.4131560000000  0.4846940000000  0.4547310000000 1.0
C      1  0.5199530000000  0.4589040000000  0.4724430000000 1.0
C      1  0.5620400000000  0.5509040000000  0.5362850000000 1.0
C      1  0.4351600000000  0.4511270000000  0.4686240000000 1.0
C      1  0.5044680000000  0.4886050000000  0.5431180000000 1.0
C      1  0.5447290000000  0.4307130000000  0.5023080000000 1.0
C      1  0.5027910000000  0.4975250000000  0.4517820000000 1.0
C      1  0.5222960000000  0.4406010000000  0.4305440000000 1.0
C      1  0.4553010000000  0.4346810000000  0.4825340000000 1.0
C      1  0.5053600000000  0.4621310000000  0.4195500000000 1.0
C      1  0.4717310000000  0.5254990000000  0.5608150000000 1.0
C      1  0.5427550000000  0.4811930000000  0.4314810000000 1.0
C      1  0.5621050000000  0.4497220000000  0.5421700000000 1.0
C      1  0.5551690000000  0.5263550000000  0.4391810000000 1.0
C      1  0.4642980000000  0.5200990000000  0.5072550000000 1.0
C      1  0.5215630000000  0.5558320000000  0.4481120000000 1.0
C      1  0.5835680000000  0.4887120000000  0.5230240000000 1.0
C      1  0.4682800000000  0.5510940000000  0.5489220000000 1.0
C      1  0.4629110000000  0.4603230000000  0.5319170000000 1.0
C      1  0.4423750000000  0.5544340000000  0.5403700000000 1.0
C      1  0.4451850000000  0.5514920000000  0.4570250000000 1.0
C      1  0.4148430000000  0.4699320000000  0.4795100000000 1.0
C      1  0.4517160000000  0.4848700000000  0.4290430000000 1.0
C      1  0.5367710000000  0.4878930000000  0.5731600000000 1.0
C      1  0.4493620000000  0.5129900000000  0.4288190000000 1.0
C      1  0.4648760000000  0.4818290000000  0.5775610000000 1.0
C      1  0.5029100000000  0.5824510000000  0.5230180000000 1.0
C      1  0.4693600000000  0.5566150000000  0.4405580000000 1.0
C      1  0.4707400000000  0.4510540000000  0.5036200000000 1.0
C      1  0.5298500000000  0.5355400000000  0.4330140000000 1.0
C      1  0.4720270000000  0.5293290000000  0.4343630000000 1.0
C      1  0.4832190000000  0.5192790000000  0.4603850000000 1.0
C      1  0.5474240000000  0.5107430000000  0.5576180000000 1.0
C      1  0.4848370000000  0.4978660000000  0.5029290000000 1.0
C      1  0.5741930000000  0.5064920000000  0.5443010000000 1.0
C      1  0.4354060000000  0.4689360000000  0.5424560000000 1.0
C      1  0.5388560000000  0.5520910000000  0.4753300000000 1.0
C      1  0.5456020000000  0.4288470000000  0.5307280000000 1.0
C      1  0.4860270000000  0.4535760000000  0.4391580000000 1.0
C      1  0.4914470000000  0.5443620000000  0.4806020000000 1.0
C      1  0.4403500000000  0.4753670000000  0.5691340000000 1.0
C      1  0.5758820000000  0.4910340000000  0.4616500000000 1.0
C      1  0.5116190000000  0.5838800000000  0.4961090000000 1.0
C      1  0.5245530000000  0.5026870000000  0.4700930000000 1.0
C      1  0.4796320000000  0.4456080000000  0.5525300000000 1.0
C      1  0.4242430000000  0.5400680000000  0.5274390000000 1.0
C      1  0.4933770000000  0.4704320000000  0.4622630000000 1.0
END
