TITL C-134185-9837-6 -0.0624665861843657 125000 -630.163656824556 0 0 91 (C1) n - 1
REM
REM in /rds/project/t2_vol4/rds-t2-cs072/BORA/CARBON/from-Arr/AIRSS/Generating-Clusters/GAP-ML-2020/Only-C1/SD-CG/HFTN-CG
REM
REM
REM
REM
REM
REM ./C.cell (11c1c37f851c82e70ff6c80c92926a4b)
REM AIRSS Version 0.9.1 bugfix July 2018 build 013d7b7c2542+ Fri, 06 Jul 2018 19:26:36 +0100
REM compiler GCC version 9.3.0
REM options -cpp -mtune=generic -march=x86-64 -g -O0
REM seed -1300536024 -1311882335 -868442242 603158589 1080836156 -1609941187 1109277511 169888873 1506029066 -2065770497 942948947 -79841868 2122404741 24676636 587268218 -373405475 940873513 -758271453 1992980707 -1095180002 -687022491 1057624826 -761120999 1334195620 698067407 1351578121 -88046333 1774178226 -1754425107 1333149394 -270689003 -1037813844 -333746660
REM
CELL 1.54180   50.00000   50.00000   50.00000   90.00000   90.00000   90.00000
LATT -1
SFAC C  
C      1  0.4615610000000  0.5417240000000  0.4756210000000 1.0
C      1  0.5269970000000  0.5471310000000  0.5203990000000 1.0
C      1  0.4914500000000  0.4594460000000  0.5041550000000 1.0
C      1  0.4982000000000  0.5062350000000  0.5221930000000 1.0
C      1  0.4819340000000  0.4867260000000  0.5735160000000 1.0
C      1  0.5073770000000  0.4220100000000  0.4718860000000 1.0
C      1  0.4890880000000  0.5853010000000  0.5178370000000 1.0
C      1  0.5472070000000  0.5282010000000  0.5281510000000 1.0
C      1  0.4984850000000  0.5014380000000  0.4191860000000 1.0
C      1  0.5392430000000  0.5040520000000  0.4619100000000 1.0
C      1  0.5668700000000  0.5389590000000  0.4642180000000 1.0
C      1  0.4724290000000  0.5642740000000  0.5262640000000 1.0
C      1  0.5647380000000  0.4633000000000  0.4936890000000 1.0
C      1  0.5019120000000  0.5170490000000  0.4805880000000 1.0
C      1  0.4273710000000  0.4704250000000  0.4790530000000 1.0
C      1  0.5662550000000  0.4547610000000  0.5211720000000 1.0
C      1  0.5310150000000  0.4278170000000  0.4878100000000 1.0
C      1  0.5426500000000  0.4493810000000  0.4485890000000 1.0
C      1  0.5042200000000  0.5480920000000  0.5629540000000 1.0
C      1  0.4772370000000  0.5488370000000  0.5523190000000 1.0
C      1  0.4901590000000  0.4027540000000  0.4798950000000 1.0
C      1  0.4111010000000  0.4954790000000  0.5174660000000 1.0
C      1  0.4797930000000  0.5587000000000  0.4572050000000 1.0
C      1  0.4654600000000  0.4471700000000  0.4577700000000 1.0
C      1  0.5430770000000  0.4426640000000  0.5333510000000 1.0
C      1  0.5515900000000  0.5597300000000  0.4788260000000 1.0
C      1  0.4699970000000  0.5011310000000  0.4181070000000 1.0
C      1  0.5652500000000  0.5117150000000  0.4729930000000 1.0
C      1  0.5278680000000  0.5905990000000  0.5066140000000 1.0
C      1  0.5911790000000  0.4964400000000  0.5188680000000 1.0
C      1  0.5871060000000  0.5123040000000  0.5430920000000 1.0
C      1  0.5304930000000  0.4780220000000  0.5710700000000 1.0
C      1  0.5077200000000  0.5276520000000  0.4289100000000 1.0
C      1  0.4399400000000  0.4809280000000  0.5552570000000 1.0
C      1  0.5539240000000  0.4935110000000  0.5701570000000 1.0
C      1  0.4391360000000  0.5202890000000  0.4382160000000 1.0
C      1  0.4969950000000  0.4467580000000  0.4574120000000 1.0
C      1  0.5295300000000  0.5579560000000  0.4596870000000 1.0
C      1  0.5053650000000  0.4653640000000  0.4810320000000 1.0
C      1  0.4590730000000  0.5272810000000  0.5524420000000 1.0
C      1  0.4536700000000  0.4559610000000  0.5503720000000 1.0
C      1  0.4473150000000  0.4912490000000  0.4332580000000 1.0
C      1  0.4683350000000  0.4126400000000  0.4930940000000 1.0
C      1  0.5020800000000  0.5723520000000  0.4675780000000 1.0
C      1  0.5084920000000  0.4967050000000  0.5757570000000 1.0
C      1  0.4790430000000  0.4597360000000  0.5629970000000 1.0
C      1  0.5469450000000  0.5212130000000  0.5682040000000 1.0
C      1  0.4754480000000  0.5138830000000  0.4709510000000 1.0
C      1  0.4546190000000  0.4338570000000  0.4799970000000 1.0
C      1  0.4618770000000  0.5290550000000  0.4232470000000 1.0
C      1  0.5502360000000  0.4460020000000  0.4753590000000 1.0
C      1  0.4059180000000  0.5386590000000  0.5006480000000 1.0
C      1  0.4707270000000  0.4219150000000  0.5205500000000 1.0
C      1  0.4996670000000  0.5314460000000  0.5074400000000 1.0
C      1  0.5843660000000  0.4719610000000  0.5346720000000 1.0
C      1  0.4124470000000  0.4918320000000  0.4885450000000 1.0
C      1  0.4218300000000  0.5232140000000  0.5181350000000 1.0
C      1  0.5664760000000  0.5314910000000  0.5487310000000 1.0
C      1  0.5182780000000  0.4557920000000  0.4372690000000 1.0
C      1  0.4973840000000  0.4344310000000  0.5254100000000 1.0
C      1  0.5433100000000  0.5672700000000  0.5042310000000 1.0
C      1  0.4584000000000  0.5015430000000  0.5664430000000 1.0
C      1  0.4490070000000  0.4720220000000  0.4564430000000 1.0
C      1  0.5216140000000  0.4912970000000  0.5133060000000 1.0
C      1  0.5132440000000  0.5888860000000  0.5330140000000 1.0
C      1  0.4676660000000  0.4759590000000  0.5014480000000 1.0
C      1  0.4427540000000  0.4529210000000  0.4989210000000 1.0
C      1  0.4646230000000  0.4888900000000  0.4757340000000 1.0
C      1  0.5389660000000  0.5270830000000  0.4228670000000 1.0
C      1  0.5708030000000  0.4944810000000  0.4966050000000 1.0
C      1  0.5032260000000  0.5877160000000  0.4914840000000 1.0
C      1  0.4497290000000  0.4398600000000  0.5270170000000 1.0
C      1  0.5256490000000  0.4292520000000  0.5157680000000 1.0
C      1  0.5414410000000  0.4989870000000  0.4317840000000 1.0
C      1  0.4521030000000  0.5228740000000  0.5230530000000 1.0
C      1  0.5199850000000  0.5641620000000  0.5450840000000 1.0
C      1  0.4834130000000  0.5445110000000  0.4322740000000 1.0
C      1  0.5182800000000  0.5243460000000  0.5727690000000 1.0
C      1  0.4349140000000  0.5329540000000  0.4629160000000 1.0
C      1  0.4709550000000  0.4969300000000  0.5199340000000 1.0
C      1  0.5190050000000  0.5280060000000  0.4593310000000 1.0
C      1  0.5180770000000  0.4910410000000  0.4828160000000 1.0
C      1  0.5009820000000  0.4458440000000  0.5520650000000 1.0
C      1  0.4148770000000  0.5219510000000  0.4797260000000 1.0
C      1  0.5520730000000  0.5451850000000  0.4395180000000 1.0
C      1  0.5276400000000  0.4536410000000  0.5560260000000 1.0
C      1  0.5471350000000  0.5012310000000  0.5190770000000 1.0
C      1  0.4185720000000  0.4823930000000  0.5391850000000 1.0
C      1  0.4673310000000  0.5433480000000  0.5068060000000 1.0
C      1  0.5191070000000  0.4819600000000  0.4246360000000 1.0
C      1  0.5789710000000  0.4884530000000  0.5576300000000 1.0
END
