TITL C-136408-9212-1 727.130320531948 125000 -923.204108710729 0 0 130 (C1) n - 1
REM
REM in /rds/project/t2_vol4/rds-t2-cs072/BORA/CARBON/from-Arr/AIRSS/Generating-Clusters/GAP-ML-2020/Only-C1/SD-CG/HFTN-CG
REM
REM
REM
REM
REM
REM ./C.cell (11c1c37f851c82e70ff6c80c92926a4b)
REM AIRSS Version 0.9.1 bugfix July 2018 build 013d7b7c2542+ Fri, 06 Jul 2018 19:26:36 +0100
REM compiler GCC version 9.3.0
REM options -cpp -mtune=generic -march=x86-64 -g -O0
REM seed -935983586 2078565815 1228077121 1533528096 -1301506890 -384083381 -1435130917 -993024703 -626411285 1202339937 578567468 -1786657350 -501975595 -785709186 -1978113605 -1552457055 -586376229 1915817306 -1631160835 2025543105 2003862639 1947652497 1143581088 1806667286 -1321162915 1190370909 -9598676 925884277 -73416353 -434286767 -1363894093 1801767371 -1968332489
REM
CELL 1.54180   50.00000   50.00000   50.00000   90.00000   90.00000   90.00000
LATT -1
SFAC C  
C      1  0.4786480000000  0.5305430000000  0.4413930000000 1.0
C      1  0.5235030000000  0.4252840000000  0.5649660000000 1.0
C      1  0.4735560000000  0.5729300000000  0.4587680000000 1.0
C      1  0.4539530000000  0.5392340000000  0.4836530000000 1.0
C      1  0.5598180000000  0.5552930000000  0.4507710000000 1.0
C      1  0.4934610000000  0.5038370000000  0.4529480000000 1.0
C      1  0.5144810000000  0.5130630000000  0.4704550000000 1.0
C      1  0.4769730000000  0.4785310000000  0.5559810000000 1.0
C      1  0.4658230000000  0.4602030000000  0.5099040000000 1.0
C      1  0.4780190000000  0.5454370000000  0.4677660000000 1.0
C      1  0.5071680000000  0.4174230000000  0.4614560000000 1.0
C      1  0.5003900000000  0.5509410000000  0.5587260000000 1.0
C      1  0.4524850000000  0.5236340000000  0.4281400000000 1.0
C      1  0.5764470000000  0.4833870000000  0.4512140000000 1.0
C      1  0.4994640000000  0.4169070000000  0.5509820000000 1.0
C      1  0.5151270000000  0.4911640000000  0.5961770000000 1.0
C      1  0.4420920000000  0.4723730000000  0.5775280000000 1.0
C      1  0.4112120000000  0.5096770000000  0.4484100000000 1.0
C      1  0.5464350000000  0.4070710000000  0.5257130000000 1.0
C      1  0.5295060000000  0.5487230000000  0.4952120000000 1.0
C      1  0.5560250000000  0.4708030000000  0.4369200000000 1.0
C      1  0.5012680000000  0.5826980000000  0.4552450000000 1.0
C      1  0.4987520000000  0.4879510000000  0.4291040000000 1.0
C      1  0.5395980000000  0.4556780000000  0.4562230000000 1.0
C      1  0.5834470000000  0.4333190000000  0.5230190000000 1.0
C      1  0.4861150000000  0.5674710000000  0.5786000000000 1.0
C      1  0.5031070000000  0.5368110000000  0.4843260000000 1.0
C      1  0.4058620000000  0.5503360000000  0.5359300000000 1.0
C      1  0.4931540000000  0.4991910000000  0.5455360000000 1.0
C      1  0.4614520000000  0.5574940000000  0.5800110000000 1.0
C      1  0.5022500000000  0.5845780000000  0.5250220000000 1.0
C      1  0.4291650000000  0.5306180000000  0.4417510000000 1.0
C      1  0.5708990000000  0.4401260000000  0.5481630000000 1.0
C      1  0.4400500000000  0.5202650000000  0.5629650000000 1.0
C      1  0.4365660000000  0.4595690000000  0.5516430000000 1.0
C      1  0.4687750000000  0.4921930000000  0.4985710000000 1.0
C      1  0.5754620000000  0.5112300000000  0.4435140000000 1.0
C      1  0.5408150000000  0.5333330000000  0.4142290000000 1.0
C      1  0.6027940000000  0.4473710000000  0.5108920000000 1.0
C      1  0.4873970000000  0.4573010000000  0.4679260000000 1.0
C      1  0.5928620000000  0.4941080000000  0.5139090000000 1.0
C      1  0.4438160000000  0.5646920000000  0.5588460000000 1.0
C      1  0.4911990000000  0.5228480000000  0.5685980000000 1.0
C      1  0.5481870000000  0.4215780000000  0.5507320000000 1.0
C      1  0.5482440000000  0.4856030000000  0.4150410000000 1.0
C      1  0.5239580000000  0.4637380000000  0.5282340000000 1.0
C      1  0.5232170000000  0.4019180000000  0.5099950000000 1.0
C      1  0.5140740000000  0.5275970000000  0.4066210000000 1.0
C      1  0.4785410000000  0.4348280000000  0.5578940000000 1.0
C      1  0.4635030000000  0.5284260000000  0.5787710000000 1.0
C      1  0.5687380000000  0.5595550000000  0.5281890000000 1.0
C      1  0.4394680000000  0.4764960000000  0.4256770000000 1.0
C      1  0.5558530000000  0.4196250000000  0.4822790000000 1.0
C      1  0.5579510000000  0.5120130000000  0.4205370000000 1.0
C      1  0.4508020000000  0.5850920000000  0.4892380000000 1.0
C      1  0.4634850000000  0.4133510000000  0.4880540000000 1.0
C      1  0.5325900000000  0.4986690000000  0.4871030000000 1.0
C      1  0.4678790000000  0.6053100000000  0.4970220000000 1.0
C      1  0.4270630000000  0.4941540000000  0.5662580000000 1.0
C      1  0.5131110000000  0.5658410000000  0.4355690000000 1.0
C      1  0.5741000000000  0.4675300000000  0.5574150000000 1.0
C      1  0.5665720000000  0.4154500000000  0.5082620000000 1.0
C      1  0.5187900000000  0.4569060000000  0.5029840000000 1.0
C      1  0.5257320000000  0.5328110000000  0.5208450000000 1.0
C      1  0.4173380000000  0.4687480000000  0.4699440000000 1.0
C      1  0.5407160000000  0.5564280000000  0.4319120000000 1.0
C      1  0.5139120000000  0.5162730000000  0.5870060000000 1.0
C      1  0.4815860000000  0.4864410000000  0.4722800000000 1.0
C      1  0.5787520000000  0.5143460000000  0.5531580000000 1.0
C      1  0.4313650000000  0.5488120000000  0.4645090000000 1.0
C      1  0.5953340000000  0.4706950000000  0.4970810000000 1.0
C      1  0.4130960000000  0.4929280000000  0.5175240000000 1.0
C      1  0.4471860000000  0.4376350000000  0.4953040000000 1.0
C      1  0.5053000000000  0.5001560000000  0.4013680000000 1.0
C      1  0.5064140000000  0.4581750000000  0.4214740000000 1.0
C      1  0.5568020000000  0.4806640000000  0.5765890000000 1.0
C      1  0.4302330000000  0.5175760000000  0.5159030000000 1.0
C      1  0.5138370000000  0.5911620000000  0.4806020000000 1.0
C      1  0.5337210000000  0.4707620000000  0.4829910000000 1.0
C      1  0.5762960000000  0.5354370000000  0.4599030000000 1.0
C      1  0.4174050000000  0.5449890000000  0.5097310000000 1.0
C      1  0.4979130000000  0.5445250000000  0.4233750000000 1.0
C      1  0.5594280000000  0.5093270000000  0.5733940000000 1.0
C      1  0.4197710000000  0.4826950000000  0.4451070000000 1.0
C      1  0.5894080000000  0.5228950000000  0.5091460000000 1.0
C      1  0.4614650000000  0.4420660000000  0.4534780000000 1.0
C      1  0.5662320000000  0.5628080000000  0.5002780000000 1.0
C      1  0.5458790000000  0.5684080000000  0.5424500000000 1.0
C      1  0.4761230000000  0.4164390000000  0.4625880000000 1.0
C      1  0.5373930000000  0.5270980000000  0.5751290000000 1.0
C      1  0.5239490000000  0.4777040000000  0.4043470000000 1.0
C      1  0.5861260000000  0.4894010000000  0.5416810000000 1.0
C      1  0.4532080000000  0.4987340000000  0.4141730000000 1.0
C      1  0.5192540000000  0.4895870000000  0.5340460000000 1.0
C      1  0.5819150000000  0.5351170000000  0.5339730000000 1.0
C      1  0.5271410000000  0.4101970000000  0.4815220000000 1.0
C      1  0.4018440000000  0.5130730000000  0.4750670000000 1.0
C      1  0.4794520000000  0.4599830000000  0.4105220000000 1.0
C      1  0.4058700000000  0.4879620000000  0.4898410000000 1.0
C      1  0.4579520000000  0.5554300000000  0.5327670000000 1.0
C      1  0.5158950000000  0.4468130000000  0.5830390000000 1.0
C      1  0.5318190000000  0.4707110000000  0.5889960000000 1.0
C      1  0.4089240000000  0.5394710000000  0.4826390000000 1.0
C      1  0.5826300000000  0.4647690000000  0.4718870000000 1.0
C      1  0.5299120000000  0.5461520000000  0.5532900000000 1.0
C      1  0.4453410000000  0.5598410000000  0.5057890000000 1.0
C      1  0.5124000000000  0.4443630000000  0.4486800000000 1.0
C      1  0.4706080000000  0.4731600000000  0.5833970000000 1.0
C      1  0.4781520000000  0.4886750000000  0.4043630000000 1.0
C      1  0.5301900000000  0.5837020000000  0.5245620000000 1.0
C      1  0.4878340000000  0.5587650000000  0.5318550000000 1.0
C      1  0.4362720000000  0.4473920000000  0.4720640000000 1.0
C      1  0.4638520000000  0.4561930000000  0.5403620000000 1.0
C      1  0.5639720000000  0.4419250000000  0.4678970000000 1.0
C      1  0.5366630000000  0.5771220000000  0.4964980000000 1.0
C      1  0.4776620000000  0.5106230000000  0.5226390000000 1.0
C      1  0.4178950000000  0.4793070000000  0.5420500000000 1.0
C      1  0.4525640000000  0.5247470000000  0.5347480000000 1.0
C      1  0.4454540000000  0.5762230000000  0.4626940000000 1.0
C      1  0.4996110000000  0.4056460000000  0.5248670000000 1.0
C      1  0.5808240000000  0.5406960000000  0.4879100000000 1.0
C      1  0.4944600000000  0.5984270000000  0.5011700000000 1.0
C      1  0.4910760000000  0.4483310000000  0.4971700000000 1.0
C      1  0.4954270000000  0.5345360000000  0.5140760000000 1.0
C      1  0.4477140000000  0.5119520000000  0.4921420000000 1.0
C      1  0.5326530000000  0.5059380000000  0.5152010000000 1.0
C      1  0.4832250000000  0.4172170000000  0.5064730000000 1.0
C      1  0.4571490000000  0.4537500000000  0.4269650000000 1.0
C      1  0.4216230000000  0.5471470000000  0.5575680000000 1.0
C      1  0.4873380000000  0.4495970000000  0.5810200000000 1.0
END
