TITL C-134184-9900-11 -0.153205768809132 125000 -270.627112662905 0 0 42 (C1) n - 1
REM
REM in /rds/project/t2_vol4/rds-t2-cs072/BORA/CARBON/from-Arr/AIRSS/Generating-Clusters/GAP-ML-2020/Only-C1/SD-CG/HFTN-CG
REM
REM
REM
REM
REM
REM ./C.cell (11c1c37f851c82e70ff6c80c92926a4b)
REM AIRSS Version 0.9.1 bugfix July 2018 build 013d7b7c2542+ Fri, 06 Jul 2018 19:26:36 +0100
REM compiler GCC version 9.3.0
REM options -cpp -mtune=generic -march=x86-64 -g -O0
REM seed 1870363055 -2049012877 1196735148 1654368542 -2088132342 2121721836 1696355963 -1015407323 -353522231 -533852499 -573854171 -198231792 -1090471503 1753120729 1956333550 389288038 -2068115484 1121478204 -1728143362 1145791844 1133990383 172374032 1906703119 -52629960 1538348468 870875684 254332171 -60606706 1813471955 -2096610400 -2063220710 -1368758398 -22210807
REM
CELL 1.54180   50.00000   50.00000   50.00000   90.00000   90.00000   90.00000
LATT -1
SFAC C  
C      1  0.4736990000000  0.5063510000000  0.4545130000000 1.0
C      1  0.4291340000000  0.5048290000000  0.4876060000000 1.0
C      1  0.5001530000000  0.5059970000000  0.4683070000000 1.0
C      1  0.5747510000000  0.4943350000000  0.5266550000000 1.0
C      1  0.4931240000000  0.5450260000000  0.4452250000000 1.0
C      1  0.4947570000000  0.4868410000000  0.5404390000000 1.0
C      1  0.5461410000000  0.5358870000000  0.5145020000000 1.0
C      1  0.5206050000000  0.5471430000000  0.5133110000000 1.0
C      1  0.4911980000000  0.4968900000000  0.4943210000000 1.0
C      1  0.5030930000000  0.4349110000000  0.5013460000000 1.0
C      1  0.5058320000000  0.5536680000000  0.4901480000000 1.0
C      1  0.4819490000000  0.4602530000000  0.5325330000000 1.0
C      1  0.5124940000000  0.5349640000000  0.4660100000000 1.0
C      1  0.4732600000000  0.5092140000000  0.5408120000000 1.0
C      1  0.5118830000000  0.4957860000000  0.5158020000000 1.0
C      1  0.4548350000000  0.5082050000000  0.5199280000000 1.0
C      1  0.5239900000000  0.5219150000000  0.5249110000000 1.0
C      1  0.5423490000000  0.5273170000000  0.4680880000000 1.0
C      1  0.5557380000000  0.5211630000000  0.4907180000000 1.0
C      1  0.5389880000000  0.4489770000000  0.5123220000000 1.0
C      1  0.5300890000000  0.4683620000000  0.4758980000000 1.0
C      1  0.4456130000000  0.4867470000000  0.5016790000000 1.0
C      1  0.5148820000000  0.4814560000000  0.4576570000000 1.0
C      1  0.5362640000000  0.4789800000000  0.5044170000000 1.0
C      1  0.4708130000000  0.5725680000000  0.5205360000000 1.0
C      1  0.5782520000000  0.5048390000000  0.5493770000000 1.0
C      1  0.5189940000000  0.4343400000000  0.5264130000000 1.0
C      1  0.4674410000000  0.5345440000000  0.4542960000000 1.0
C      1  0.4595480000000  0.5434490000000  0.4812090000000 1.0
C      1  0.4708610000000  0.5555940000000  0.5399700000000 1.0
C      1  0.4694030000000  0.4743370000000  0.4890230000000 1.0
C      1  0.4446890000000  0.5260580000000  0.4985210000000 1.0
C      1  0.4720490000000  0.5338380000000  0.5548490000000 1.0
C      1  0.4658300000000  0.4777890000000  0.4584030000000 1.0
C      1  0.4803700000000  0.4522560000000  0.5056590000000 1.0
C      1  0.5611690000000  0.4943990000000  0.5031840000000 1.0
C      1  0.4723540000000  0.4589110000000  0.4384070000000 1.0
C      1  0.4969590000000  0.4655410000000  0.4437870000000 1.0
C      1  0.5272760000000  0.4421370000000  0.4853570000000 1.0
C      1  0.4783530000000  0.5597030000000  0.4956940000000 1.0
C      1  0.5034840000000  0.4456130000000  0.5468880000000 1.0
C      1  0.5073340000000  0.4688670000000  0.5612820000000 1.0
END
