TITL C-136404-9176-4 0.022742922202081 125000 -658.639478241651 0 0 95 (C1) n - 1
REM
REM in /rds/project/t2_vol4/rds-t2-cs072/BORA/CARBON/from-Arr/AIRSS/Generating-Clusters/GAP-ML-2020/Only-C1/SD-CG/HFTN-CG
REM
REM
REM
REM
REM
REM ./C.cell (11c1c37f851c82e70ff6c80c92926a4b)
REM AIRSS Version 0.9.1 bugfix July 2018 build 013d7b7c2542+ Fri, 06 Jul 2018 19:26:36 +0100
REM compiler GCC version 9.3.0
REM options -cpp -mtune=generic -march=x86-64 -g -O0
REM seed 1144484717 -1357397019 -488147975 -1392260559 -1046075294 -837397185 681620130 -321346956 136322955 1220961626 71830887 1488894090 84747284 -528473332 1597998392 934218496 -1566189909 -754822826 1301283002 -239904125 -82574093 -2046791931 171092360 1816727822 1600790944 -1708897680 1571376616 773746682 -579232962 -1919035280 1466549973 -1096087488 -478034456
REM
CELL 1.54180   50.00000   50.00000   50.00000   90.00000   90.00000   90.00000
LATT -1
SFAC C  
C      1  0.5491830000000  0.4617400000000  0.4566730000000 1.0
C      1  0.5217450000000  0.4938390000000  0.4915910000000 1.0
C      1  0.4427750000000  0.5530180000000  0.5098090000000 1.0
C      1  0.5783330000000  0.4829230000000  0.4935220000000 1.0
C      1  0.4909040000000  0.4688610000000  0.4245250000000 1.0
C      1  0.5203220000000  0.4267240000000  0.4764130000000 1.0
C      1  0.4328720000000  0.5477160000000  0.4847750000000 1.0
C      1  0.5593720000000  0.5353280000000  0.4457810000000 1.0
C      1  0.5140130000000  0.5418960000000  0.4974540000000 1.0
C      1  0.4693590000000  0.5665980000000  0.5045230000000 1.0
C      1  0.5637070000000  0.4604760000000  0.4821630000000 1.0
C      1  0.5336190000000  0.4943790000000  0.4217930000000 1.0
C      1  0.4783190000000  0.4822220000000  0.4817980000000 1.0
C      1  0.5247440000000  0.5738260000000  0.4650320000000 1.0
C      1  0.5094610000000  0.4279340000000  0.5219030000000 1.0
C      1  0.4883920000000  0.5728160000000  0.5270200000000 1.0
C      1  0.4617810000000  0.5054120000000  0.4875990000000 1.0
C      1  0.4848000000000  0.5422840000000  0.4980150000000 1.0
C      1  0.5553780000000  0.5656600000000  0.5021140000000 1.0
C      1  0.5171050000000  0.5099830000000  0.5303950000000 1.0
C      1  0.4439710000000  0.4422380000000  0.4881660000000 1.0
C      1  0.4586060000000  0.4336540000000  0.5113020000000 1.0
C      1  0.4405750000000  0.4762590000000  0.5242790000000 1.0
C      1  0.5122910000000  0.5119180000000  0.4127860000000 1.0
C      1  0.4707140000000  0.4844000000000  0.5408010000000 1.0
C      1  0.5549770000000  0.4443430000000  0.5041540000000 1.0
C      1  0.4716240000000  0.5193510000000  0.5121130000000 1.0
C      1  0.4156810000000  0.4809340000000  0.4831100000000 1.0
C      1  0.5737030000000  0.5008680000000  0.5440110000000 1.0
C      1  0.4981740000000  0.4789900000000  0.5018720000000 1.0
C      1  0.4892190000000  0.4891420000000  0.4559710000000 1.0
C      1  0.4781730000000  0.5371330000000  0.5655370000000 1.0
C      1  0.4454540000000  0.4691220000000  0.4456130000000 1.0
C      1  0.5362610000000  0.4947120000000  0.5162830000000 1.0
C      1  0.5305930000000  0.5799730000000  0.5404470000000 1.0
C      1  0.4939760000000  0.5571860000000  0.5515210000000 1.0
C      1  0.5455900000000  0.5339470000000  0.5631780000000 1.0
C      1  0.4451020000000  0.5285960000000  0.4414470000000 1.0
C      1  0.5750020000000  0.5316630000000  0.4933190000000 1.0
C      1  0.5571600000000  0.4889690000000  0.5643280000000 1.0
C      1  0.4533290000000  0.5252980000000  0.5563720000000 1.0
C      1  0.5669310000000  0.5091250000000  0.4525010000000 1.0
C      1  0.4917790000000  0.5275610000000  0.4272740000000 1.0
C      1  0.4729780000000  0.5712160000000  0.4725180000000 1.0
C      1  0.4480050000000  0.4486380000000  0.5343950000000 1.0
C      1  0.5085650000000  0.4585370000000  0.5236260000000 1.0
C      1  0.5249430000000  0.5538380000000  0.5501880000000 1.0
C      1  0.5498990000000  0.5591580000000  0.4561250000000 1.0
C      1  0.5791640000000  0.4810490000000  0.5225270000000 1.0
C      1  0.5387070000000  0.5086760000000  0.5751220000000 1.0
C      1  0.4248960000000  0.5138830000000  0.4540370000000 1.0
C      1  0.4505400000000  0.4711740000000  0.5769880000000 1.0
C      1  0.4446890000000  0.5271000000000  0.5285830000000 1.0
C      1  0.5270250000000  0.5719540000000  0.4947110000000 1.0
C      1  0.4271080000000  0.5033620000000  0.5224450000000 1.0
C      1  0.5099220000000  0.4847110000000  0.4108770000000 1.0
C      1  0.4921890000000  0.5555280000000  0.4334500000000 1.0
C      1  0.5484240000000  0.4627360000000  0.5556090000000 1.0
C      1  0.4674020000000  0.4844300000000  0.4334280000000 1.0
C      1  0.5641490000000  0.4570150000000  0.5286420000000 1.0
C      1  0.4911540000000  0.4641180000000  0.5479430000000 1.0
C      1  0.5675060000000  0.5549580000000  0.4781470000000 1.0
C      1  0.4973670000000  0.5710570000000  0.4551330000000 1.0
C      1  0.4841860000000  0.4218990000000  0.5062360000000 1.0
C      1  0.5258650000000  0.4438840000000  0.4543670000000 1.0
C      1  0.5524570000000  0.4866110000000  0.4413310000000 1.0
C      1  0.5076820000000  0.4700210000000  0.5721900000000 1.0
C      1  0.5598240000000  0.5405030000000  0.5182250000000 1.0
C      1  0.5782790000000  0.5073200000000  0.4790820000000 1.0
C      1  0.4613690000000  0.4969580000000  0.5669300000000 1.0
C      1  0.4532030000000  0.5496770000000  0.4629770000000 1.0
C      1  0.5139860000000  0.5835980000000  0.5187130000000 1.0
C      1  0.5365280000000  0.4686330000000  0.5278310000000 1.0
C      1  0.5260620000000  0.4483150000000  0.5668230000000 1.0
C      1  0.4895200000000  0.5002500000000  0.5235570000000 1.0
C      1  0.4922310000000  0.4218620000000  0.4790890000000 1.0
C      1  0.4794060000000  0.4345940000000  0.4571330000000 1.0
C      1  0.4133680000000  0.5051390000000  0.4979240000000 1.0
C      1  0.4733090000000  0.5287670000000  0.4727560000000 1.0
C      1  0.4552700000000  0.4462600000000  0.5636100000000 1.0
C      1  0.4867920000000  0.5118790000000  0.5773950000000 1.0
C      1  0.4290130000000  0.4631640000000  0.4990040000000 1.0
C      1  0.5271970000000  0.5359950000000  0.5231060000000 1.0
C      1  0.5671210000000  0.5293680000000  0.5445790000000 1.0
C      1  0.5171440000000  0.5187480000000  0.4786610000000 1.0
C      1  0.5116320000000  0.4980000000000  0.5792560000000 1.0
C      1  0.4641000000000  0.5139360000000  0.4265960000000 1.0
C      1  0.4532960000000  0.4452480000000  0.4607110000000 1.0
C      1  0.4249180000000  0.4854980000000  0.4561880000000 1.0
C      1  0.4959680000000  0.5170540000000  0.4580460000000 1.0
C      1  0.5323710000000  0.4268500000000  0.5016330000000 1.0
C      1  0.5092260000000  0.4279580000000  0.5528890000000 1.0
C      1  0.4996260000000  0.4466170000000  0.4409080000000 1.0
C      1  0.4823490000000  0.4375880000000  0.5593700000000 1.0
C      1  0.4169990000000  0.5256490000000  0.4791090000000 1.0
END
