TITL C-136402-9140-2 0.0296886441088631 125000 -287.876238986601 0 0 44 (C1) n - 1
REM
REM in /rds/project/t2_vol4/rds-t2-cs072/BORA/CARBON/from-Arr/AIRSS/Generating-Clusters/GAP-ML-2020/Only-C1/SD-CG/HFTN-CG
REM
REM
REM
REM
REM
REM ./C.cell (11c1c37f851c82e70ff6c80c92926a4b)
REM AIRSS Version 0.9.1 bugfix July 2018 build 013d7b7c2542+ Fri, 06 Jul 2018 19:26:36 +0100
REM compiler GCC version 9.3.0
REM options -cpp -mtune=generic -march=x86-64 -g -O0
REM seed 692503937 -911235537 -1321692609 -1027942114 568200179 -743719499 817441437 -1843651488 1492631737 486474333 864615542 636811306 -1833502855 878519917 1037737427 -479274461 -1097815120 1963811429 -825279313 -18174209 2002508559 1775228881 -846788443 879992184 -1299447184 -2068599935 1094814907 -1551327998 1031763870 -1186565503 1418284376 -2073845649 1914496604
REM
CELL 1.54180   50.00000   50.00000   50.00000   90.00000   90.00000   90.00000
LATT -1
SFAC C  
C      1  0.5180540000000  0.5108230000000  0.5183580000000 1.0
C      1  0.5672250000000  0.5079830000000  0.5307750000000 1.0
C      1  0.5413200000000  0.5325550000000  0.4511290000000 1.0
C      1  0.4957200000000  0.4871780000000  0.4770310000000 1.0
C      1  0.5373320000000  0.5414780000000  0.5471020000000 1.0
C      1  0.5573320000000  0.5332280000000  0.5267720000000 1.0
C      1  0.4334160000000  0.4937050000000  0.5263300000000 1.0
C      1  0.4765460000000  0.5048130000000  0.4393460000000 1.0
C      1  0.4746140000000  0.5180430000000  0.5136780000000 1.0
C      1  0.5216090000000  0.4593560000000  0.5091780000000 1.0
C      1  0.4715400000000  0.5073930000000  0.4846760000000 1.0
C      1  0.4510330000000  0.5128020000000  0.5341080000000 1.0
C      1  0.4512780000000  0.4868590000000  0.4840640000000 1.0
C      1  0.4996320000000  0.5041090000000  0.5678310000000 1.0
C      1  0.5565940000000  0.5435850000000  0.4726240000000 1.0
C      1  0.4386180000000  0.4766180000000  0.5066000000000 1.0
C      1  0.4987030000000  0.4620540000000  0.4329300000000 1.0
C      1  0.4758880000000  0.5151330000000  0.5805570000000 1.0
C      1  0.5172360000000  0.4465700000000  0.5327660000000 1.0
C      1  0.5251010000000  0.4955660000000  0.4774450000000 1.0
C      1  0.4941360000000  0.5268570000000  0.4456300000000 1.0
C      1  0.5240730000000  0.5210660000000  0.4925790000000 1.0
C      1  0.4943320000000  0.4958360000000  0.5210780000000 1.0
C      1  0.5224300000000  0.4642970000000  0.4233770000000 1.0
C      1  0.4607740000000  0.5177730000000  0.5597250000000 1.0
C      1  0.5481330000000  0.5365300000000  0.4966390000000 1.0
C      1  0.5371140000000  0.4850760000000  0.4319690000000 1.0
C      1  0.4583880000000  0.4657700000000  0.4657150000000 1.0
C      1  0.4830820000000  0.5703460000000  0.5122210000000 1.0
C      1  0.5185150000000  0.5252630000000  0.5617460000000 1.0
C      1  0.4825110000000  0.4767860000000  0.4507180000000 1.0
C      1  0.5448870000000  0.4948790000000  0.5213180000000 1.0
C      1  0.5392620000000  0.4779720000000  0.4993210000000 1.0
C      1  0.5165630000000  0.5410900000000  0.4422360000000 1.0
C      1  0.4942640000000  0.4845320000000  0.5477980000000 1.0
C      1  0.5390060000000  0.5017510000000  0.4521030000000 1.0
C      1  0.4920080000000  0.4563290000000  0.5427700000000 1.0
C      1  0.4513870000000  0.4430160000000  0.4787410000000 1.0
C      1  0.4877090000000  0.5451970000000  0.5194620000000 1.0
C      1  0.4761480000000  0.4530840000000  0.5178110000000 1.0
C      1  0.4501960000000  0.4479440000000  0.5071250000000 1.0
C      1  0.4947700000000  0.4714040000000  0.5023340000000 1.0
C      1  0.4694850000000  0.5223560000000  0.4593030000000 1.0
C      1  0.5120380000000  0.5349950000000  0.5349820000000 1.0
END
