TITL C-131287-6813-5 46.0698930773128 125000 -210.598376848692 0 0 32 (C1) n - 1
REM
REM in /rds/project/t2_vol4/rds-t2-cs072/BORA/CARBON/from-Arr/AIRSS/Generating-Clusters/GAP-ML-2020/Only-C1/SD-CG/HFTN-CG
REM
REM
REM
REM
REM
REM ./C.cell (11c1c37f851c82e70ff6c80c92926a4b)
REM AIRSS Version 0.9.1 bugfix July 2018 build 013d7b7c2542+ Fri, 06 Jul 2018 19:26:36 +0100
REM compiler GCC version 9.3.0
REM options -cpp -mtune=generic -march=x86-64 -g -O0
REM seed 1258462021 -1075895729 1844920072 -2145753113 1035292252 -2073880615 1286562808 -485315771 395385569 -1296210935 -176401277 1999586375 268125166 -832789230 -347722244 -1488241570 977339151 -258219510 316218168 -2117736289 1522234130 -819141646 -1150911903 -481754998 -1621934111 -682670963 -198475109 549825884 -2122862914 21795417 101239249 1323375889 1221129293
REM
CELL 1.54180   50.00000   50.00000   50.00000   90.00000   90.00000   90.00000
LATT -1
SFAC C  
C      1  0.4817720000000  0.4916770000000  0.4821640000000 1.0
C      1  0.5069790000000  0.4523440000000  0.4813250000000 1.0
C      1  0.5141550000000  0.5425510000000  0.4895660000000 1.0
C      1  0.5305490000000  0.5228940000000  0.5314770000000 1.0
C      1  0.5506210000000  0.5111610000000  0.4898950000000 1.0
C      1  0.4944390000000  0.4766640000000  0.4407880000000 1.0
C      1  0.4962560000000  0.4874700000000  0.5293090000000 1.0
C      1  0.5454780000000  0.4799670000000  0.5253720000000 1.0
C      1  0.4881400000000  0.5455400000000  0.5281010000000 1.0
C      1  0.5008070000000  0.5185820000000  0.5675030000000 1.0
C      1  0.5333910000000  0.5285000000000  0.4760400000000 1.0
C      1  0.4544440000000  0.4949590000000  0.4914860000000 1.0
C      1  0.4944030000000  0.4589700000000  0.5286970000000 1.0
C      1  0.4842450000000  0.5152730000000  0.4644680000000 1.0
C      1  0.4817200000000  0.5267350000000  0.5500560000000 1.0
C      1  0.5010270000000  0.5057940000000  0.4440500000000 1.0
C      1  0.5422570000000  0.4898310000000  0.4705320000000 1.0
C      1  0.4099610000000  0.4717060000000  0.4767000000000 1.0
C      1  0.4325080000000  0.4821300000000  0.4827300000000 1.0
C      1  0.4872300000000  0.5381960000000  0.4809710000000 1.0
C      1  0.5048220000000  0.4938640000000  0.5011940000000 1.0
C      1  0.4726030000000  0.5375180000000  0.5053400000000 1.0
C      1  0.5150990000000  0.5425750000000  0.5182160000000 1.0
C      1  0.4578080000000  0.5142270000000  0.5122170000000 1.0
C      1  0.4715800000000  0.5043600000000  0.5344730000000 1.0
C      1  0.5372370000000  0.4598870000000  0.5110060000000 1.0
C      1  0.4892900000000  0.4677250000000  0.4657810000000 1.0
C      1  0.5265630000000  0.4731850000000  0.4870820000000 1.0
C      1  0.5476820000000  0.5066960000000  0.5169590000000 1.0
C      1  0.5075880000000  0.4452660000000  0.5101870000000 1.0
C      1  0.5150420000000  0.5052120000000  0.5487080000000 1.0
C      1  0.5243030000000  0.5085420000000  0.4576090000000 1.0
END
