TITL C-136415-277-1 -0.226908723941261 125000 -444.239604363525 0 0 64 (C1) n - 1
REM
REM in /rds/project/t2_vol4/rds-t2-cs072/BORA/CARBON/from-Arr/AIRSS/Generating-Clusters/GAP-ML-2020/Only-C1/SD-CG/HFTN-CG
REM
REM
REM
REM
REM
REM ./C.cell (11c1c37f851c82e70ff6c80c92926a4b)
REM AIRSS Version 0.9.1 bugfix July 2018 build 013d7b7c2542+ Fri, 06 Jul 2018 19:26:36 +0100
REM compiler GCC version 9.3.0
REM options -cpp -mtune=generic -march=x86-64 -g -O0
REM seed -1037391365 -2058211126 -1488477933 -1854945934 1946133535 -1408072471 -1694564391 685272671 320398405 23531819 -943676725 1884975323 -1073432540 93472049 -161491580 367493779 1780215116 1428811532 637376862 -1173050908 1212610390 -659237704 485722117 187487873 384532034 -2120105126 -612382333 954784163 -1466748253 -1499864968 -1908611600 2030878269 24263521
REM
CELL 1.54180   50.00000   50.00000   50.00000   90.00000   90.00000   90.00000
LATT -1
SFAC C  
C      1  0.5297910000000  0.4732280000000  0.5018130000000 1.0
C      1  0.5759330000000  0.4575750000000  0.4913760000000 1.0
C      1  0.5673740000000  0.4936240000000  0.5255400000000 1.0
C      1  0.4895400000000  0.4679510000000  0.4436520000000 1.0
C      1  0.5785420000000  0.4690200000000  0.5177360000000 1.0
C      1  0.4825720000000  0.5241130000000  0.4798010000000 1.0
C      1  0.5646920000000  0.5024980000000  0.4765290000000 1.0
C      1  0.4514390000000  0.4701050000000  0.4706520000000 1.0
C      1  0.5342080000000  0.4299010000000  0.4933290000000 1.0
C      1  0.4571740000000  0.5520180000000  0.4539610000000 1.0
C      1  0.5238090000000  0.4498240000000  0.4738350000000 1.0
C      1  0.4752020000000  0.4668230000000  0.5504020000000 1.0
C      1  0.5598370000000  0.4356340000000  0.5024510000000 1.0
C      1  0.5644490000000  0.4465450000000  0.5291560000000 1.0
C      1  0.5430890000000  0.4653590000000  0.4571950000000 1.0
C      1  0.4548060000000  0.4867800000000  0.5567110000000 1.0
C      1  0.4911610000000  0.5824670000000  0.5223490000000 1.0
C      1  0.4915880000000  0.5127980000000  0.4331620000000 1.0
C      1  0.4589200000000  0.5130450000000  0.5614580000000 1.0
C      1  0.4470390000000  0.5250440000000  0.4483870000000 1.0
C      1  0.4466860000000  0.5574890000000  0.4785710000000 1.0
C      1  0.4328440000000  0.5160290000000  0.4713040000000 1.0
C      1  0.5268390000000  0.5314890000000  0.4637400000000 1.0
C      1  0.5200640000000  0.4972160000000  0.5522410000000 1.0
C      1  0.5154270000000  0.4976940000000  0.4968760000000 1.0
C      1  0.5002260000000  0.5337580000000  0.4513800000000 1.0
C      1  0.5656880000000  0.5127020000000  0.5039440000000 1.0
C      1  0.4942990000000  0.5670920000000  0.5445590000000 1.0
C      1  0.4958330000000  0.5399380000000  0.5006870000000 1.0
C      1  0.5455570000000  0.5117270000000  0.4566680000000 1.0
C      1  0.5068880000000  0.4888380000000  0.4347390000000 1.0
C      1  0.4637290000000  0.5057600000000  0.4374160000000 1.0
C      1  0.4894900000000  0.4194540000000  0.5147540000000 1.0
C      1  0.4414000000000  0.4770710000000  0.5321190000000 1.0
C      1  0.5402710000000  0.5494660000000  0.5304660000000 1.0
C      1  0.5142940000000  0.4292490000000  0.5155280000000 1.0
C      1  0.5478820000000  0.5347400000000  0.5089370000000 1.0
C      1  0.4874820000000  0.5243080000000  0.5252900000000 1.0
C      1  0.4823730000000  0.5286780000000  0.5704690000000 1.0
C      1  0.5064820000000  0.5237230000000  0.5537110000000 1.0
C      1  0.4589340000000  0.4542810000000  0.5293700000000 1.0
C      1  0.4343930000000  0.5369180000000  0.4917430000000 1.0
C      1  0.4380160000000  0.5248410000000  0.5172800000000 1.0
C      1  0.4355450000000  0.4905520000000  0.4837960000000 1.0
C      1  0.5437750000000  0.4584790000000  0.5437000000000 1.0
C      1  0.4588280000000  0.5320140000000  0.5373330000000 1.0
C      1  0.4955300000000  0.4512400000000  0.4657000000000 1.0
C      1  0.4705490000000  0.4507020000000  0.4816580000000 1.0
C      1  0.4931710000000  0.5771520000000  0.4710440000000 1.0
C      1  0.4630100000000  0.4789000000000  0.4461210000000 1.0
C      1  0.5463260000000  0.4876510000000  0.5467250000000 1.0
C      1  0.5233830000000  0.5297230000000  0.4925500000000 1.0
C      1  0.4690190000000  0.4381870000000  0.5082290000000 1.0
C      1  0.4892110000000  0.4966750000000  0.4873500000000 1.0
C      1  0.4852900000000  0.5587180000000  0.4523130000000 1.0
C      1  0.5004750000000  0.4773030000000  0.5390520000000 1.0
C      1  0.4725110000000  0.5527450000000  0.5556970000000 1.0
C      1  0.4348420000000  0.4961920000000  0.5123270000000 1.0
C      1  0.5192440000000  0.4571880000000  0.5279800000000 1.0
C      1  0.5666830000000  0.4740840000000  0.4715430000000 1.0
C      1  0.4915350000000  0.4967780000000  0.5160860000000 1.0
C      1  0.5191450000000  0.5504050000000  0.5476480000000 1.0
C      1  0.4922390000000  0.5701860000000  0.4978100000000 1.0
C      1  0.5334260000000  0.4883140000000  0.4440480000000 1.0
END
