TITL C-131260-6909-3 0.160761916449446 125000 -391.123270454437 0 0 58 (C1) n - 1
REM
REM in /rds/project/t2_vol4/rds-t2-cs072/BORA/CARBON/from-Arr/AIRSS/Generating-Clusters/GAP-ML-2020/Only-C1/SD-CG/HFTN-CG
REM
REM
REM
REM
REM
REM ./C.cell (11c1c37f851c82e70ff6c80c92926a4b)
REM AIRSS Version 0.9.1 bugfix July 2018 build 013d7b7c2542+ Fri, 06 Jul 2018 19:26:36 +0100
REM compiler GCC version 9.3.0
REM options -cpp -mtune=generic -march=x86-64 -g -O0
REM seed -647743245 -1384763808 -711513478 2091232194 -467944408 -337744219 -513388231 -280510409 548429954 -266827587 2144622184 -1151237270 754738800 -570616406 -838262499 280634112 -504731974 1444271987 224813595 278804653 -1182327187 1655738859 -2072390660 718779522 -1031389229 -751939607 -1799383179 -1139415497 1098882491 499278720 1374768362 -279596902 1286320426
REM
CELL 1.54180   50.00000   50.00000   50.00000   90.00000   90.00000   90.00000
LATT -1
SFAC C  
C      1  0.4731500000000  0.5008350000000  0.5049290000000 1.0
C      1  0.4704780000000  0.4833440000000  0.5514800000000 1.0
C      1  0.4462040000000  0.4424490000000  0.5282260000000 1.0
C      1  0.4950590000000  0.5146810000000  0.4950740000000 1.0
C      1  0.5293590000000  0.4625650000000  0.5160450000000 1.0
C      1  0.5057050000000  0.5536300000000  0.5237910000000 1.0
C      1  0.4366640000000  0.4687870000000  0.5232000000000 1.0
C      1  0.5195420000000  0.5052670000000  0.5025250000000 1.0
C      1  0.5462640000000  0.4754790000000  0.4747420000000 1.0
C      1  0.4509050000000  0.4882930000000  0.4554520000000 1.0
C      1  0.5231790000000  0.5252610000000  0.4363900000000 1.0
C      1  0.5161460000000  0.4355080000000  0.5047500000000 1.0
C      1  0.4885420000000  0.4935060000000  0.5714730000000 1.0
C      1  0.5184020000000  0.4675700000000  0.4386550000000 1.0
C      1  0.5196010000000  0.5045290000000  0.5315620000000 1.0
C      1  0.4962110000000  0.4850850000000  0.4354640000000 1.0
C      1  0.4959250000000  0.4247450000000  0.5191540000000 1.0
C      1  0.5213760000000  0.4778870000000  0.4911800000000 1.0
C      1  0.5125800000000  0.5559690000000  0.4751170000000 1.0
C      1  0.5703620000000  0.5331320000000  0.5069640000000 1.0
C      1  0.5454120000000  0.5078490000000  0.4419950000000 1.0
C      1  0.4535360000000  0.5158290000000  0.5217020000000 1.0
C      1  0.5306510000000  0.5424940000000  0.4586760000000 1.0
C      1  0.5477280000000  0.5484130000000  0.5130670000000 1.0
C      1  0.4508440000000  0.5181180000000  0.4505060000000 1.0
C      1  0.4793170000000  0.4814710000000  0.4596280000000 1.0
C      1  0.4846190000000  0.4663700000000  0.5332210000000 1.0
C      1  0.5494170000000  0.5003750000000  0.5389590000000 1.0
C      1  0.4874870000000  0.5081860000000  0.4691790000000 1.0
C      1  0.5089990000000  0.5306960000000  0.5419050000000 1.0
C      1  0.4834250000000  0.5177260000000  0.5827490000000 1.0
C      1  0.4775820000000  0.5292560000000  0.4507020000000 1.0
C      1  0.5685680000000  0.5147190000000  0.4853290000000 1.0
C      1  0.4781900000000  0.5551740000000  0.5190160000000 1.0
C      1  0.5068280000000  0.4395820000000  0.4758670000000 1.0
C      1  0.4669000000000  0.5362660000000  0.5373410000000 1.0
C      1  0.4841220000000  0.5529840000000  0.4695310000000 1.0
C      1  0.4463600000000  0.5325980000000  0.4962590000000 1.0
C      1  0.5158860000000  0.4814140000000  0.5667940000000 1.0
C      1  0.4669690000000  0.5521880000000  0.4928970000000 1.0
C      1  0.5646610000000  0.4875270000000  0.4927820000000 1.0
C      1  0.5148130000000  0.4415510000000  0.4504140000000 1.0
C      1  0.4468600000000  0.4918620000000  0.5382120000000 1.0
C      1  0.5550650000000  0.4795160000000  0.5184530000000 1.0
C      1  0.4978270000000  0.5149120000000  0.4329780000000 1.0
C      1  0.5233920000000  0.5580980000000  0.5027370000000 1.0
C      1  0.5540730000000  0.5251420000000  0.4634400000000 1.0
C      1  0.4243330000000  0.4768750000000  0.4993110000000 1.0
C      1  0.4347100000000  0.5207780000000  0.4740320000000 1.0
C      1  0.4855900000000  0.5307870000000  0.5584810000000 1.0
C      1  0.5422660000000  0.4807890000000  0.4473250000000 1.0
C      1  0.5121290000000  0.4734180000000  0.5379770000000 1.0
C      1  0.5581940000000  0.5284160000000  0.5308720000000 1.0
C      1  0.4740540000000  0.4384100000000  0.5301960000000 1.0
C      1  0.5407730000000  0.4921540000000  0.5662120000000 1.0
C      1  0.4316970000000  0.4903010000000  0.4778050000000 1.0
C      1  0.4934300000000  0.4658580000000  0.4821160000000 1.0
C      1  0.4776370000000  0.4733750000000  0.5051600000000 1.0
END
