TITL C-131280-6822-7 0.148865245179959 125000 -473.546897763295 0 0 69 (C1) n - 1
REM
REM in /rds/project/t2_vol4/rds-t2-cs072/BORA/CARBON/from-Arr/AIRSS/Generating-Clusters/GAP-ML-2020/Only-C1/SD-CG/HFTN-CG
REM
REM
REM
REM
REM
REM ./C.cell (11c1c37f851c82e70ff6c80c92926a4b)
REM AIRSS Version 0.9.1 bugfix July 2018 build 013d7b7c2542+ Fri, 06 Jul 2018 19:26:36 +0100
REM compiler GCC version 9.3.0
REM options -cpp -mtune=generic -march=x86-64 -g -O0
REM seed -1612708258 -1207343646 541151351 -2118223102 1976104647 -860726712 -671943412 -1551190376 1787841747 1231362007 170077507 1226705478 591684334 1416336772 -729498225 1931580443 -1235272482 -1621171511 1353207427 -2033227598 1518226644 2141862820 1594618046 228756947 -635757337 1035116540 580757881 322642450 52262758 186358632 -1482319989 1423470704 -1725229047
REM
CELL 1.54180   50.00000   50.00000   50.00000   90.00000   90.00000   90.00000
LATT -1
SFAC C  
C      1  0.5632400000000  0.5001570000000  0.4628750000000 1.0
C      1  0.4504310000000  0.4948330000000  0.4515130000000 1.0
C      1  0.4860230000000  0.4932170000000  0.5754390000000 1.0
C      1  0.4882740000000  0.4707900000000  0.4376230000000 1.0
C      1  0.5675620000000  0.4958380000000  0.5059390000000 1.0
C      1  0.5078680000000  0.4492130000000  0.5476120000000 1.0
C      1  0.4277820000000  0.5157570000000  0.5086300000000 1.0
C      1  0.4593510000000  0.4653700000000  0.5482490000000 1.0
C      1  0.4734410000000  0.4551520000000  0.4576910000000 1.0
C      1  0.4686530000000  0.5673480000000  0.4823040000000 1.0
C      1  0.4488760000000  0.4693270000000  0.4633500000000 1.0
C      1  0.4998490000000  0.4373340000000  0.5233230000000 1.0
C      1  0.5563300000000  0.4727140000000  0.4686170000000 1.0
C      1  0.4889160000000  0.5332510000000  0.5545500000000 1.0
C      1  0.5421310000000  0.5145170000000  0.4520370000000 1.0
C      1  0.5169290000000  0.4760390000000  0.4357400000000 1.0
C      1  0.4717140000000  0.4936980000000  0.4329890000000 1.0
C      1  0.5606960000000  0.4691860000000  0.4964090000000 1.0
C      1  0.5215800000000  0.4359640000000  0.5052050000000 1.0
C      1  0.5274860000000  0.4337610000000  0.4571650000000 1.0
C      1  0.5581990000000  0.5498160000000  0.5078800000000 1.0
C      1  0.5773650000000  0.5388780000000  0.4923530000000 1.0
C      1  0.4593190000000  0.5038550000000  0.5729790000000 1.0
C      1  0.5395990000000  0.4571890000000  0.5135220000000 1.0
C      1  0.4770310000000  0.4476150000000  0.5081660000000 1.0
C      1  0.4223740000000  0.4884510000000  0.5015910000000 1.0
C      1  0.4302970000000  0.4673740000000  0.4838940000000 1.0
C      1  0.4929080000000  0.5163880000000  0.5284760000000 1.0
C      1  0.5037530000000  0.5165400000000  0.5738980000000 1.0
C      1  0.5317540000000  0.5214480000000  0.5701830000000 1.0
C      1  0.4599180000000  0.5273360000000  0.5564870000000 1.0
C      1  0.5231110000000  0.4850080000000  0.5132390000000 1.0
C      1  0.5093090000000  0.5517700000000  0.5426160000000 1.0
C      1  0.5109940000000  0.4326270000000  0.4788000000000 1.0
C      1  0.5519770000000  0.5017020000000  0.5614160000000 1.0
C      1  0.4669870000000  0.5373610000000  0.4461320000000 1.0
C      1  0.5323840000000  0.5348690000000  0.4995200000000 1.0
C      1  0.4692930000000  0.5065790000000  0.5126600000000 1.0
C      1  0.4464150000000  0.5123590000000  0.5316840000000 1.0
C      1  0.5344880000000  0.5452230000000  0.5524590000000 1.0
C      1  0.5107760000000  0.5521990000000  0.4532170000000 1.0
C      1  0.5353910000000  0.4597070000000  0.4517410000000 1.0
C      1  0.4417520000000  0.5597050000000  0.4857380000000 1.0
C      1  0.4527000000000  0.4519560000000  0.5244620000000 1.0
C      1  0.4303820000000  0.4630640000000  0.5111990000000 1.0
C      1  0.5169000000000  0.5500100000000  0.4267050000000 1.0
C      1  0.4446520000000  0.4895620000000  0.5526140000000 1.0
C      1  0.4800370000000  0.5198410000000  0.4275310000000 1.0
C      1  0.5364750000000  0.4563500000000  0.5442480000000 1.0
C      1  0.5415360000000  0.5076450000000  0.5139080000000 1.0
C      1  0.5063150000000  0.5424780000000  0.5142790000000 1.0
C      1  0.4880810000000  0.4710190000000  0.5551620000000 1.0
C      1  0.5237710000000  0.5303650000000  0.4709190000000 1.0
C      1  0.4993610000000  0.4873620000000  0.5308510000000 1.0
C      1  0.5576450000000  0.5434940000000  0.5364070000000 1.0
C      1  0.5050330000000  0.4866190000000  0.4888470000000 1.0
C      1  0.5075950000000  0.5243290000000  0.4242110000000 1.0
C      1  0.5763570000000  0.5127960000000  0.4855070000000 1.0
C      1  0.5484580000000  0.4748020000000  0.5595810000000 1.0
C      1  0.4819050000000  0.4796560000000  0.5071920000000 1.0
C      1  0.5003460000000  0.5112190000000  0.4768950000000 1.0
C      1  0.4512610000000  0.5213640000000  0.4654680000000 1.0
C      1  0.5589900000000  0.5148980000000  0.5368650000000 1.0
C      1  0.4329460000000  0.5343090000000  0.4860460000000 1.0
C      1  0.4815440000000  0.5480200000000  0.4979330000000 1.0
C      1  0.4825210000000  0.5576230000000  0.4585290000000 1.0
C      1  0.4741770000000  0.5210570000000  0.4876400000000 1.0
C      1  0.4833420000000  0.4398040000000  0.4792950000000 1.0
C      1  0.5251430000000  0.5028900000000  0.4317980000000 1.0
END
