TITL C-131270-6736-11 -0.0721176613151698 125000 -328.696968304895 0 0 49 (C1) n - 1
REM
REM in /rds/project/t2_vol4/rds-t2-cs072/BORA/CARBON/from-Arr/AIRSS/Generating-Clusters/GAP-ML-2020/Only-C1/SD-CG/HFTN-CG
REM
REM
REM
REM
REM
REM ./C.cell (11c1c37f851c82e70ff6c80c92926a4b)
REM AIRSS Version 0.9.1 bugfix July 2018 build 013d7b7c2542+ Fri, 06 Jul 2018 19:26:36 +0100
REM compiler GCC version 9.3.0
REM options -cpp -mtune=generic -march=x86-64 -g -O0
REM seed 194058451 -727158918 -1370141900 178990378 392611824 -2049939386 628775603 -305821431 1772519881 -1233750 768375641 -1550380781 956760897 1035914055 2023769777 -1052792341 -20787164 -1688594792 1372487941 -1120471812 1468670277 -1300005286 68535552 -1506763264 2047706811 1170308571 -730379869 1881887182 1629720013 515961521 35022135 464513635 1665830548
REM
CELL 1.54180   50.00000   50.00000   50.00000   90.00000   90.00000   90.00000
LATT -1
SFAC C  
C      1  0.5357260000000  0.5449920000000  0.5192530000000 1.0
C      1  0.4886520000000  0.4341280000000  0.4998010000000 1.0
C      1  0.5167410000000  0.4948670000000  0.5573600000000 1.0
C      1  0.5286530000000  0.5005500000000  0.5070090000000 1.0
C      1  0.5124880000000  0.5177220000000  0.4905820000000 1.0
C      1  0.4933090000000  0.4830930000000  0.5527010000000 1.0
C      1  0.5185080000000  0.4746390000000  0.5074500000000 1.0
C      1  0.4763290000000  0.4529040000000  0.5190070000000 1.0
C      1  0.4668960000000  0.4867160000000  0.5612970000000 1.0
C      1  0.5366570000000  0.5042760000000  0.4540220000000 1.0
C      1  0.5279710000000  0.5192130000000  0.5586280000000 1.0
C      1  0.4906990000000  0.4999470000000  0.4823300000000 1.0
C      1  0.4569690000000  0.4928620000000  0.4476310000000 1.0
C      1  0.5211620000000  0.4806260000000  0.4544010000000 1.0
C      1  0.4927200000000  0.5359980000000  0.4534630000000 1.0
C      1  0.4648050000000  0.5431050000000  0.4939510000000 1.0
C      1  0.4373510000000  0.5039360000000  0.4928520000000 1.0
C      1  0.4681610000000  0.5300710000000  0.5444520000000 1.0
C      1  0.4937440000000  0.4759710000000  0.5240870000000 1.0
C      1  0.5559550000000  0.5041750000000  0.5176170000000 1.0
C      1  0.5449790000000  0.5249290000000  0.5360370000000 1.0
C      1  0.5611780000000  0.5083690000000  0.4658320000000 1.0
C      1  0.5050690000000  0.4744430000000  0.4794250000000 1.0
C      1  0.4525140000000  0.4638450000000  0.5106490000000 1.0
C      1  0.4441750000000  0.4848100000000  0.4714580000000 1.0
C      1  0.5130370000000  0.4250460000000  0.5060920000000 1.0
C      1  0.4559690000000  0.4625030000000  0.4827290000000 1.0
C      1  0.4418380000000  0.5302870000000  0.4891020000000 1.0
C      1  0.5070400000000  0.5437770000000  0.5098030000000 1.0
C      1  0.5012970000000  0.4698450000000  0.4365170000000 1.0
C      1  0.5499790000000  0.5446840000000  0.4946590000000 1.0
C      1  0.5067250000000  0.5633760000000  0.4878380000000 1.0
C      1  0.5213720000000  0.5304130000000  0.4605530000000 1.0
C      1  0.4799330000000  0.5103810000000  0.4549200000000 1.0
C      1  0.4837480000000  0.5539340000000  0.4741000000000 1.0
C      1  0.4851000000000  0.5385410000000  0.5647260000000 1.0
C      1  0.5372520000000  0.4297100000000  0.5140720000000 1.0
C      1  0.4796470000000  0.5008830000000  0.5097650000000 1.0
C      1  0.4898320000000  0.4462690000000  0.4468510000000 1.0
C      1  0.4803300000000  0.4892450000000  0.4346990000000 1.0
C      1  0.5321760000000  0.5543000000000  0.4742630000000 1.0
C      1  0.5616710000000  0.4760790000000  0.5232240000000 1.0
C      1  0.4538110000000  0.5036760000000  0.5443640000000 1.0
C      1  0.5621590000000  0.5195900000000  0.4915910000000 1.0
C      1  0.4495410000000  0.4930020000000  0.5171730000000 1.0
C      1  0.4837500000000  0.4513470000000  0.4747920000000 1.0
C      1  0.4800760000000  0.5316750000000  0.5175260000000 1.0
C      1  0.5428820000000  0.4573630000000  0.5169780000000 1.0
C      1  0.5094250000000  0.5378870000000  0.5723680000000 1.0
END
