TITL C-131264-6821-2 -0.137305398236976 125000 -732.353402196029 0 0 105 (C1) n - 1
REM
REM in /rds/project/t2_vol4/rds-t2-cs072/BORA/CARBON/from-Arr/AIRSS/Generating-Clusters/GAP-ML-2020/Only-C1/SD-CG/HFTN-CG
REM
REM
REM
REM
REM
REM ./C.cell (11c1c37f851c82e70ff6c80c92926a4b)
REM AIRSS Version 0.9.1 bugfix July 2018 build 013d7b7c2542+ Fri, 06 Jul 2018 19:26:36 +0100
REM compiler GCC version 9.3.0
REM options -cpp -mtune=generic -march=x86-64 -g -O0
REM seed 1864523555 -984449544 -652457332 1319541282 -874482869 726696755 -464691252 -2028423694 1662950215 2083531958 -1164941299 494453969 -172086083 1155210464 -809527459 -455544570 -1484743937 671035170 457436338 -1290791404 1272156841 -674473187 -889733693 -2086643436 -1723894620 1846354845 1940557907 979174833 2020086317 -1032947076 -1506473975 1180033699 156011298
REM
CELL 1.54180   50.00000   50.00000   50.00000   90.00000   90.00000   90.00000
LATT -1
SFAC C  
C      1  0.4801650000000  0.5666580000000  0.5591870000000 1.0
C      1  0.4763210000000  0.4614880000000  0.5581740000000 1.0
C      1  0.4969440000000  0.5407750000000  0.4214820000000 1.0
C      1  0.5532010000000  0.4487400000000  0.5438900000000 1.0
C      1  0.5267100000000  0.4500660000000  0.4758200000000 1.0
C      1  0.5008420000000  0.5638790000000  0.4669600000000 1.0
C      1  0.5546820000000  0.5594310000000  0.5101200000000 1.0
C      1  0.4307640000000  0.5183140000000  0.4319770000000 1.0
C      1  0.5007310000000  0.4135540000000  0.4987620000000 1.0
C      1  0.4670490000000  0.4153080000000  0.4725340000000 1.0
C      1  0.5175810000000  0.5404260000000  0.5301000000000 1.0
C      1  0.5733310000000  0.5185680000000  0.5607670000000 1.0
C      1  0.4534360000000  0.5647320000000  0.4978470000000 1.0
C      1  0.5520250000000  0.5410710000000  0.5613660000000 1.0
C      1  0.4748610000000  0.4918690000000  0.5568660000000 1.0
C      1  0.5078400000000  0.5225870000000  0.5865610000000 1.0
C      1  0.4559230000000  0.4309840000000  0.5223640000000 1.0
C      1  0.4219980000000  0.5384920000000  0.4756560000000 1.0
C      1  0.5885270000000  0.5214960000000  0.5385440000000 1.0
C      1  0.5317590000000  0.4548650000000  0.5620000000000 1.0
C      1  0.4729980000000  0.5247570000000  0.4139200000000 1.0
C      1  0.4740800000000  0.4494870000000  0.4351030000000 1.0
C      1  0.5216360000000  0.5291950000000  0.4238400000000 1.0
C      1  0.5918520000000  0.5078510000000  0.5150680000000 1.0
C      1  0.5033180000000  0.4467340000000  0.5574430000000 1.0
C      1  0.5404870000000  0.4810050000000  0.5727690000000 1.0
C      1  0.4810340000000  0.4183730000000  0.5202050000000 1.0
C      1  0.4533870000000  0.4513200000000  0.5435650000000 1.0
C      1  0.5040260000000  0.5352080000000  0.4745170000000 1.0
C      1  0.5254290000000  0.5706380000000  0.5381800000000 1.0
C      1  0.4577690000000  0.5570210000000  0.4459600000000 1.0
C      1  0.5430470000000  0.4589760000000  0.4966630000000 1.0
C      1  0.4656960000000  0.5098580000000  0.4902710000000 1.0
C      1  0.4810550000000  0.5177740000000  0.5759010000000 1.0
C      1  0.4871260000000  0.5266640000000  0.4989890000000 1.0
C      1  0.5766270000000  0.4781950000000  0.4650850000000 1.0
C      1  0.4772500000000  0.5790320000000  0.5079880000000 1.0
C      1  0.5867240000000  0.4793030000000  0.5165380000000 1.0
C      1  0.4225090000000  0.5139160000000  0.5625190000000 1.0
C      1  0.4432730000000  0.5453860000000  0.5167060000000 1.0
C      1  0.4219360000000  0.4600940000000  0.5091700000000 1.0
C      1  0.4470480000000  0.4332510000000  0.4727230000000 1.0
C      1  0.5810320000000  0.5067090000000  0.4646000000000 1.0
C      1  0.5189230000000  0.4427300000000  0.4324100000000 1.0
C      1  0.5081610000000  0.4808040000000  0.5195380000000 1.0
C      1  0.5087000000000  0.4891000000000  0.4655660000000 1.0
C      1  0.5092510000000  0.5662050000000  0.5632050000000 1.0
C      1  0.4504000000000  0.5373960000000  0.4265230000000 1.0
C      1  0.5408210000000  0.4839380000000  0.4264880000000 1.0
C      1  0.4638540000000  0.4881730000000  0.5074610000000 1.0
C      1  0.5335200000000  0.4873780000000  0.5066270000000 1.0
C      1  0.4862530000000  0.5611090000000  0.4426870000000 1.0
C      1  0.4876780000000  0.4715100000000  0.5024060000000 1.0
C      1  0.4993280000000  0.4647000000000  0.4768370000000 1.0
C      1  0.4951020000000  0.4312960000000  0.4432190000000 1.0
C      1  0.5387780000000  0.5351230000000  0.5076440000000 1.0
C      1  0.4620770000000  0.5307090000000  0.5354360000000 1.0
C      1  0.4146850000000  0.5054970000000  0.5120900000000 1.0
C      1  0.4553910000000  0.5013330000000  0.5359420000000 1.0
C      1  0.5437500000000  0.5131720000000  0.4277210000000 1.0
C      1  0.5228650000000  0.4196670000000  0.5182760000000 1.0
C      1  0.4993670000000  0.4981070000000  0.5408610000000 1.0
C      1  0.4132150000000  0.4838310000000  0.4938910000000 1.0
C      1  0.4682610000000  0.4952280000000  0.4139960000000 1.0
C      1  0.4757530000000  0.5787490000000  0.5351560000000 1.0
C      1  0.5538960000000  0.5632180000000  0.5402830000000 1.0
C      1  0.5661690000000  0.4422140000000  0.4980770000000 1.0
C      1  0.5649460000000  0.5225250000000  0.4462640000000 1.0
C      1  0.5474450000000  0.5093500000000  0.5209870000000 1.0
C      1  0.4328780000000  0.4747240000000  0.4456410000000 1.0
C      1  0.4856740000000  0.4723240000000  0.4194620000000 1.0
C      1  0.4429710000000  0.5582450000000  0.4712470000000 1.0
C      1  0.5027120000000  0.4253670000000  0.5387470000000 1.0
C      1  0.4172410000000  0.4897230000000  0.4657130000000 1.0
C      1  0.4645370000000  0.5394080000000  0.5648410000000 1.0
C      1  0.4489790000000  0.4512030000000  0.4497530000000 1.0
C      1  0.4924840000000  0.5259060000000  0.5266750000000 1.0
C      1  0.5315810000000  0.5287860000000  0.4797750000000 1.0
C      1  0.5671280000000  0.4895370000000  0.5621670000000 1.0
C      1  0.5399760000000  0.4462990000000  0.4508260000000 1.0
C      1  0.4298350000000  0.4664280000000  0.5358430000000 1.0
C      1  0.5806450000000  0.4652860000000  0.4919780000000 1.0
C      1  0.5040450000000  0.5785450000000  0.4919160000000 1.0
C      1  0.4935250000000  0.4146230000000  0.4692160000000 1.0
C      1  0.4663540000000  0.5081190000000  0.4630230000000 1.0
C      1  0.5301600000000  0.4991390000000  0.4801760000000 1.0
C      1  0.5729540000000  0.5476900000000  0.4880120000000 1.0
C      1  0.4179690000000  0.5173490000000  0.4572990000000 1.0
C      1  0.5238440000000  0.4998330000000  0.5889170000000 1.0
C      1  0.4930380000000  0.5109850000000  0.4570980000000 1.0
C      1  0.4360880000000  0.5327060000000  0.5729140000000 1.0
C      1  0.5486030000000  0.4337570000000  0.5198350000000 1.0
C      1  0.5357230000000  0.5221980000000  0.5461000000000 1.0
C      1  0.5151650000000  0.4681420000000  0.4200180000000 1.0
C      1  0.5724300000000  0.4712510000000  0.5412870000000 1.0
C      1  0.4412060000000  0.4926490000000  0.4247640000000 1.0
C      1  0.5223040000000  0.5013060000000  0.5597350000000 1.0
C      1  0.5573580000000  0.4681580000000  0.4451810000000 1.0
C      1  0.4263580000000  0.4963720000000  0.5385410000000 1.0
C      1  0.4382750000000  0.4380460000000  0.5001650000000 1.0
C      1  0.5233740000000  0.5469010000000  0.5781600000000 1.0
C      1  0.5560200000000  0.5412640000000  0.4656150000000 1.0
C      1  0.4217050000000  0.5313630000000  0.5035210000000 1.0
C      1  0.5274130000000  0.5772400000000  0.5083700000000 1.0
C      1  0.5868300000000  0.5220150000000  0.4891730000000 1.0
END
