TITL C-136410-426-2 -0.00370090781469348 125000 -157.156105253465 0 0 25 (C1) n - 1
REM
REM in /rds/project/t2_vol4/rds-t2-cs072/BORA/CARBON/from-Arr/AIRSS/Generating-Clusters/GAP-ML-2020/Only-C1/SD-CG/HFTN-CG
REM
REM
REM
REM
REM
REM ./C.cell (11c1c37f851c82e70ff6c80c92926a4b)
REM AIRSS Version 0.9.1 bugfix July 2018 build 013d7b7c2542+ Fri, 06 Jul 2018 19:26:36 +0100
REM compiler GCC version 9.3.0
REM options -cpp -mtune=generic -march=x86-64 -g -O0
REM seed -1877822310 1707536846 -693784609 932572827 -609641388 -864063503 1650976919 -2072755358 -753518365 -779440665 610494006 1043132387 2142348031 1958711170 -1190453256 1492016904 350557312 -1038845659 534319761 -1205627188 -1816096158 -553994959 593538803 -831517308 792710219 28331817 1677813854 -1587610061 2061431587 -76408572 218751791 615020914 -1975405794
REM
CELL 1.54180   50.00000   50.00000   50.00000   90.00000   90.00000   90.00000
LATT -1
SFAC C  
C      1  0.5192630000000  0.5530560000000  0.4586980000000 1.0
C      1  0.4905760000000  0.4571360000000  0.5187060000000 1.0
C      1  0.4724140000000  0.4822600000000  0.4827110000000 1.0
C      1  0.5230450000000  0.5135300000000  0.5289910000000 1.0
C      1  0.5158850000000  0.5379370000000  0.5410360000000 1.0
C      1  0.4869560000000  0.5232580000000  0.4942230000000 1.0
C      1  0.5268960000000  0.4925920000000  0.4850120000000 1.0
C      1  0.4940870000000  0.5307280000000  0.5526970000000 1.0
C      1  0.4411090000000  0.5291030000000  0.5069660000000 1.0
C      1  0.4621060000000  0.5024250000000  0.5821010000000 1.0
C      1  0.5327290000000  0.4714240000000  0.5280650000000 1.0
C      1  0.5302110000000  0.5028680000000  0.4580650000000 1.0
C      1  0.4788180000000  0.4606920000000  0.4654660000000 1.0
C      1  0.5161980000000  0.5281850000000  0.4528630000000 1.0
C      1  0.4919160000000  0.5096330000000  0.4453350000000 1.0
C      1  0.5237660000000  0.4640850000000  0.4840230000000 1.0
C      1  0.5070780000000  0.5052610000000  0.5064830000000 1.0
C      1  0.4779000000000  0.5074710000000  0.4706060000000 1.0
C      1  0.5067190000000  0.4620070000000  0.4596400000000 1.0
C      1  0.4861230000000  0.4824020000000  0.5081100000000 1.0
C      1  0.4791830000000  0.5159050000000  0.5684820000000 1.0
C      1  0.5425050000000  0.4926870000000  0.5377480000000 1.0
C      1  0.5172750000000  0.4565710000000  0.5114810000000 1.0
C      1  0.4661550000000  0.5327680000000  0.5088170000000 1.0
C      1  0.5110880000000  0.4860160000000  0.4436740000000 1.0
END
