TITL C-134904-4571-3 68.8493179242389 125000 -861.670300832213 0 0 122 (C1) n - 1
REM
REM in /rds/project/t2_vol4/rds-t2-cs072/BORA/CARBON/from-Arr/AIRSS/Generating-Clusters/GAP-ML-2020/Only-C1/SD-CG/HFTN-CG
REM
REM
REM
REM
REM
REM ./C.cell (11c1c37f851c82e70ff6c80c92926a4b)
REM AIRSS Version 0.9.1 bugfix July 2018 build 013d7b7c2542+ Fri, 06 Jul 2018 19:26:36 +0100
REM compiler GCC version 9.3.0
REM options -cpp -mtune=generic -march=x86-64 -g -O0
REM seed 1001605424 -2124235816 -1124403537 1370963683 -303265098 -2135179721 583448835 1889458463 -1700387410 -938821372 2050778721 238035961 657534722 2129534600 -1134180956 590568009 1813877942 135141864 -987013886 -552353481 -333893944 -75801543 1903465328 909863110 1487707329 421098961 -1861324552 -1296423032 -1277405918 -1174138008 -841219767 743002472 -131035747
REM
CELL 1.54180   50.00000   50.00000   50.00000   90.00000   90.00000   90.00000
LATT -1
SFAC C  
C      1  0.5387630000000  0.4842730000000  0.4597150000000 1.0
C      1  0.5020890000000  0.5518370000000  0.4241290000000 1.0
C      1  0.5157800000000  0.5524030000000  0.5770190000000 1.0
C      1  0.4731940000000  0.5662110000000  0.5546880000000 1.0
C      1  0.4607590000000  0.4937440000000  0.5113350000000 1.0
C      1  0.5856050000000  0.5099860000000  0.4447670000000 1.0
C      1  0.4537180000000  0.5652780000000  0.4778570000000 1.0
C      1  0.4067490000000  0.5089430000000  0.4879450000000 1.0
C      1  0.5226720000000  0.5866840000000  0.4527510000000 1.0
C      1  0.5705930000000  0.4472520000000  0.4402590000000 1.0
C      1  0.5186730000000  0.4433090000000  0.4464320000000 1.0
C      1  0.5327470000000  0.5194550000000  0.4186670000000 1.0
C      1  0.4416590000000  0.4303520000000  0.5398010000000 1.0
C      1  0.4202410000000  0.4831440000000  0.4767910000000 1.0
C      1  0.5265520000000  0.5602040000000  0.4399670000000 1.0
C      1  0.6156960000000  0.5028040000000  0.5127650000000 1.0
C      1  0.4665720000000  0.4497340000000  0.5794800000000 1.0
C      1  0.4332040000000  0.4582240000000  0.5412460000000 1.0
C      1  0.5291210000000  0.4237130000000  0.5271820000000 1.0
C      1  0.4119490000000  0.4653330000000  0.5216740000000 1.0
C      1  0.4500580000000  0.4909410000000  0.4828680000000 1.0
C      1  0.5728180000000  0.5492580000000  0.4732860000000 1.0
C      1  0.5340600000000  0.5883140000000  0.4802290000000 1.0
C      1  0.5530990000000  0.5568600000000  0.5157330000000 1.0
C      1  0.4991680000000  0.4511370000000  0.4261530000000 1.0
C      1  0.4272070000000  0.4727630000000  0.5666040000000 1.0
C      1  0.4417660000000  0.5407410000000  0.4699690000000 1.0
C      1  0.5245890000000  0.4946440000000  0.4333570000000 1.0
C      1  0.5526550000000  0.5035430000000  0.5055290000000 1.0
C      1  0.5802520000000  0.4656100000000  0.4224740000000 1.0
C      1  0.5435750000000  0.4385170000000  0.5045120000000 1.0
C      1  0.4332000000000  0.4183320000000  0.5165480000000 1.0
C      1  0.5692170000000  0.5329400000000  0.5178690000000 1.0
C      1  0.5621120000000  0.4817010000000  0.5623170000000 1.0
C      1  0.5619750000000  0.4554530000000  0.5206370000000 1.0
C      1  0.5963670000000  0.4972660000000  0.4688870000000 1.0
C      1  0.3981740000000  0.5100960000000  0.5148720000000 1.0
C      1  0.4637900000000  0.4293060000000  0.5587280000000 1.0
C      1  0.4722920000000  0.4420900000000  0.4802720000000 1.0
C      1  0.5483310000000  0.5622830000000  0.4864360000000 1.0
C      1  0.5174320000000  0.4529000000000  0.4953860000000 1.0
C      1  0.5745460000000  0.5234070000000  0.5455220000000 1.0
C      1  0.4268600000000  0.4798850000000  0.4467020000000 1.0
C      1  0.4744580000000  0.5201900000000  0.4451950000000 1.0
C      1  0.4205180000000  0.5338720000000  0.4863710000000 1.0
C      1  0.4617600000000  0.5185830000000  0.4714970000000 1.0
C      1  0.5085730000000  0.5172410000000  0.5324810000000 1.0
C      1  0.4968600000000  0.4820020000000  0.5936330000000 1.0
C      1  0.4698480000000  0.4473760000000  0.4307030000000 1.0
C      1  0.5145090000000  0.5803880000000  0.5392170000000 1.0
C      1  0.4636940000000  0.5028280000000  0.4237230000000 1.0
C      1  0.5563320000000  0.4331820000000  0.4776830000000 1.0
C      1  0.5478540000000  0.5406010000000  0.4316630000000 1.0
C      1  0.4567170000000  0.4739120000000  0.4396200000000 1.0
C      1  0.5094500000000  0.4364930000000  0.5675050000000 1.0
C      1  0.4558950000000  0.4288590000000  0.4453930000000 1.0
C      1  0.4674880000000  0.4710410000000  0.4681970000000 1.0
C      1  0.5790280000000  0.4485380000000  0.4686860000000 1.0
C      1  0.5176860000000  0.4640370000000  0.4680140000000 1.0
C      1  0.4998380000000  0.4864070000000  0.3899760000000 1.0
C      1  0.5344270000000  0.4367640000000  0.5521060000000 1.0
C      1  0.4876280000000  0.5298320000000  0.5177190000000 1.0
C      1  0.4697040000000  0.5754480000000  0.5260620000000 1.0
C      1  0.4580350000000  0.5223970000000  0.5230750000000 1.0
C      1  0.5000060000000  0.5709980000000  0.5619050000000 1.0
C      1  0.5557190000000  0.5277340000000  0.5660430000000 1.0
C      1  0.5149390000000  0.5223850000000  0.4739800000000 1.0
C      1  0.4926710000000  0.4740770000000  0.5367110000000 1.0
C      1  0.5089910000000  0.4773120000000  0.5129390000000 1.0
C      1  0.4491870000000  0.4270360000000  0.4718380000000 1.0
C      1  0.5833690000000  0.4911750000000  0.4240900000000 1.0
C      1  0.4324770000000  0.5429840000000  0.5119420000000 1.0
C      1  0.4792190000000  0.5504980000000  0.4397610000000 1.0
C      1  0.4355600000000  0.5068820000000  0.4152420000000 1.0
C      1  0.4106420000000  0.4938140000000  0.5576810000000 1.0
C      1  0.4634330000000  0.5436060000000  0.5693530000000 1.0
C      1  0.3983720000000  0.4874040000000  0.5319440000000 1.0
C      1  0.4291710000000  0.4324100000000  0.4925500000000 1.0
C      1  0.4938630000000  0.4818070000000  0.4686420000000 1.0
C      1  0.4941520000000  0.4345630000000  0.4982470000000 1.0
C      1  0.4505940000000  0.5225190000000  0.5531210000000 1.0
C      1  0.5752990000000  0.4777440000000  0.5073560000000 1.0
C      1  0.5717290000000  0.5364490000000  0.4468990000000 1.0
C      1  0.4770420000000  0.5269500000000  0.5885810000000 1.0
C      1  0.4632110000000  0.4767480000000  0.5349200000000 1.0
C      1  0.4961850000000  0.5867310000000  0.5178880000000 1.0
C      1  0.4966450000000  0.5885110000000  0.4649210000000 1.0
C      1  0.5007820000000  0.4201740000000  0.5232980000000 1.0
C      1  0.5072970000000  0.5922030000000  0.4919170000000 1.0
C      1  0.5872650000000  0.5364240000000  0.4942160000000 1.0
C      1  0.5047900000000  0.5292540000000  0.5889270000000 1.0
C      1  0.5091830000000  0.4747660000000  0.4131610000000 1.0
C      1  0.6051770000000  0.5149100000000  0.4897700000000 1.0
C      1  0.4506220000000  0.4736450000000  0.5836820000000 1.0
C      1  0.5453170000000  0.4341760000000  0.4497070000000 1.0
C      1  0.5163350000000  0.5021050000000  0.5827460000000 1.0
C      1  0.4155080000000  0.4936400000000  0.4247320000000 1.0
C      1  0.4115880000000  0.5308190000000  0.5295330000000 1.0
C      1  0.4705750000000  0.4957340000000  0.5901030000000 1.0
C      1  0.5275970000000  0.4993060000000  0.5192550000000 1.0
C      1  0.4153180000000  0.4585370000000  0.4945040000000 1.0
C      1  0.5821200000000  0.4964060000000  0.5486270000000 1.0
C      1  0.4210270000000  0.5196980000000  0.5537570000000 1.0
C      1  0.4943070000000  0.4547810000000  0.5849610000000 1.0
C      1  0.4496450000000  0.5672270000000  0.5065490000000 1.0
C      1  0.5408170000000  0.5512590000000  0.5637310000000 1.0
C      1  0.5865990000000  0.4726810000000  0.4802300000000 1.0
C      1  0.5069920000000  0.5285800000000  0.4091110000000 1.0
C      1  0.4894830000000  0.5210020000000  0.4904660000000 1.0
C      1  0.5387350000000  0.5041820000000  0.4801650000000 1.0
C      1  0.4668850000000  0.4985010000000  0.5601600000000 1.0
C      1  0.5557380000000  0.4563670000000  0.5483360000000 1.0
C      1  0.5013460000000  0.5057050000000  0.4515690000000 1.0
C      1  0.5257170000000  0.5484300000000  0.4699760000000 1.0
C      1  0.5962680000000  0.4887340000000  0.5252730000000 1.0
C      1  0.5453320000000  0.5020470000000  0.5760570000000 1.0
C      1  0.4971810000000  0.4992370000000  0.5524450000000 1.0
C      1  0.4749590000000  0.5707360000000  0.4592900000000 1.0
C      1  0.4901010000000  0.4228310000000  0.5504720000000 1.0
C      1  0.4891900000000  0.4914240000000  0.4961580000000 1.0
C      1  0.5397370000000  0.5663400000000  0.5389060000000 1.0
C      1  0.4878160000000  0.5069440000000  0.4037820000000 1.0
END
