TITL C-134887-4583-1 -8.51079053788646 125000 -702.231840028972 0 0 99 (C1) n - 1
REM
REM in /rds/project/t2_vol4/rds-t2-cs072/BORA/CARBON/from-Arr/AIRSS/Generating-Clusters/GAP-ML-2020/Only-C1/SD-CG/HFTN-CG
REM
REM
REM
REM
REM
REM ./C.cell (11c1c37f851c82e70ff6c80c92926a4b)
REM AIRSS Version 0.9.1 bugfix July 2018 build 013d7b7c2542+ Fri, 06 Jul 2018 19:26:36 +0100
REM compiler GCC version 9.3.0
REM options -cpp -mtune=generic -march=x86-64 -g -O0
REM seed 798718053 -1545848180 1850152898 480517559 848936215 -843058263 1249876682 -166070525 1681085168 -766572462 -641643145 -821042926 653526436 -1441422250 -1022698139 -1144435254 2136805842 -2131164549 -188627018 -306235214 -148479979 1921116843 1739044458 904815642 -269019720 -185510180 1867033976 1884704772 1883910841 -1977583304 718101246 274546292 -1678223328
REM
CELL 1.54180   50.00000   50.00000   50.00000   90.00000   90.00000   90.00000
LATT -1
SFAC C  
C      1  0.4807650000000  0.5518420000000  0.5651050000000 1.0
C      1  0.4984940000000  0.5054560000000  0.4217200000000 1.0
C      1  0.4369080000000  0.5375270000000  0.5732160000000 1.0
C      1  0.5427630000000  0.4688890000000  0.4879080000000 1.0
C      1  0.5713560000000  0.5464050000000  0.5085540000000 1.0
C      1  0.5784390000000  0.5141300000000  0.4733510000000 1.0
C      1  0.4889860000000  0.4574460000000  0.5094360000000 1.0
C      1  0.4575990000000  0.4630510000000  0.5514950000000 1.0
C      1  0.4879690000000  0.4268160000000  0.5066010000000 1.0
C      1  0.5429680000000  0.4222090000000  0.4937760000000 1.0
C      1  0.5410260000000  0.4485950000000  0.5088100000000 1.0
C      1  0.5651340000000  0.4738760000000  0.4460520000000 1.0
C      1  0.4633430000000  0.4674450000000  0.5226220000000 1.0
C      1  0.5345070000000  0.5169600000000  0.4883840000000 1.0
C      1  0.5301350000000  0.4283040000000  0.4448840000000 1.0
C      1  0.5233000000000  0.4883150000000  0.5276800000000 1.0
C      1  0.4484550000000  0.5499260000000  0.5281380000000 1.0
C      1  0.5532590000000  0.5554790000000  0.4641800000000 1.0
C      1  0.5605540000000  0.5085250000000  0.5488090000000 1.0
C      1  0.4933000000000  0.4761130000000  0.4831690000000 1.0
C      1  0.5081520000000  0.4686810000000  0.5835760000000 1.0
C      1  0.5312030000000  0.5655920000000  0.4496980000000 1.0
C      1  0.4940650000000  0.5336230000000  0.4285370000000 1.0
C      1  0.5337890000000  0.4662850000000  0.5711370000000 1.0
C      1  0.4604210000000  0.4985400000000  0.5199340000000 1.0
C      1  0.4683260000000  0.5941620000000  0.4420690000000 1.0
C      1  0.5138610000000  0.5736660000000  0.5422710000000 1.0
C      1  0.5488310000000  0.4297670000000  0.4659470000000 1.0
C      1  0.5607000000000  0.4560260000000  0.4674110000000 1.0
C      1  0.4693330000000  0.4212860000000  0.4863470000000 1.0
C      1  0.4858070000000  0.5045910000000  0.4808000000000 1.0
C      1  0.4616340000000  0.5116880000000  0.4934550000000 1.0
C      1  0.5410500000000  0.4442700000000  0.5546770000000 1.0
C      1  0.4945570000000  0.4291910000000  0.5617770000000 1.0
C      1  0.4697640000000  0.4419300000000  0.5653270000000 1.0
C      1  0.5171300000000  0.4704750000000  0.4723600000000 1.0
C      1  0.4124380000000  0.5133510000000  0.4968300000000 1.0
C      1  0.4503220000000  0.4876580000000  0.5622750000000 1.0
C      1  0.5376850000000  0.5224070000000  0.4375030000000 1.0
C      1  0.5436290000000  0.4937600000000  0.5045190000000 1.0
C      1  0.4890780000000  0.5793200000000  0.4996370000000 1.0
C      1  0.4987130000000  0.4459460000000  0.4238850000000 1.0
C      1  0.5380540000000  0.4929920000000  0.5593600000000 1.0
C      1  0.4588050000000  0.4457640000000  0.4462850000000 1.0
C      1  0.4255510000000  0.5364850000000  0.4856250000000 1.0
C      1  0.4681880000000  0.5655830000000  0.4855740000000 1.0
C      1  0.4934370000000  0.5937700000000  0.4459020000000 1.0
C      1  0.5807640000000  0.4941870000000  0.4557860000000 1.0
C      1  0.5209540000000  0.5106270000000  0.5759240000000 1.0
C      1  0.5523810000000  0.5260980000000  0.4635890000000 1.0
C      1  0.5165630000000  0.5876210000000  0.4594740000000 1.0
C      1  0.5706900000000  0.4995300000000  0.5216680000000 1.0
C      1  0.5088000000000  0.5568210000000  0.5647770000000 1.0
C      1  0.5072980000000  0.5217050000000  0.4933640000000 1.0
C      1  0.5162030000000  0.4315960000000  0.5432120000000 1.0
C      1  0.4976080000000  0.4957010000000  0.5839200000000 1.0
C      1  0.4357130000000  0.5032150000000  0.5390540000000 1.0
C      1  0.4451400000000  0.4359470000000  0.4893150000000 1.0
C      1  0.4268210000000  0.5237100000000  0.4589210000000 1.0
C      1  0.5006780000000  0.4241990000000  0.4434260000000 1.0
C      1  0.5757120000000  0.4726910000000  0.5312390000000 1.0
C      1  0.5199520000000  0.5441200000000  0.4347620000000 1.0
C      1  0.5264170000000  0.4991840000000  0.4259840000000 1.0
C      1  0.4748840000000  0.4884760000000  0.4208640000000 1.0
C      1  0.4360270000000  0.5317110000000  0.5466780000000 1.0
C      1  0.4683400000000  0.5665930000000  0.4566030000000 1.0
C      1  0.4697180000000  0.5430610000000  0.4395920000000 1.0
C      1  0.5584270000000  0.5531340000000  0.5333280000000 1.0
C      1  0.5409610000000  0.4749010000000  0.4288980000000 1.0
C      1  0.4695670000000  0.5028390000000  0.5782450000000 1.0
C      1  0.4811430000000  0.5136680000000  0.5334130000000 1.0
C      1  0.5145010000000  0.5860180000000  0.4879790000000 1.0
C      1  0.5104990000000  0.4129880000000  0.5200050000000 1.0
C      1  0.4759520000000  0.4252220000000  0.4578630000000 1.0
C      1  0.4528470000000  0.5024950000000  0.4267400000000 1.0
C      1  0.4148380000000  0.5001360000000  0.4704200000000 1.0
C      1  0.4469600000000  0.5254160000000  0.4391180000000 1.0
C      1  0.4744280000000  0.4601690000000  0.4260710000000 1.0
C      1  0.5582960000000  0.4525460000000  0.5329670000000 1.0
C      1  0.4395160000000  0.4522900000000  0.5119040000000 1.0
C      1  0.4913150000000  0.4464620000000  0.5834050000000 1.0
C      1  0.5381680000000  0.5727190000000  0.5285160000000 1.0
C      1  0.4895970000000  0.5773350000000  0.5276860000000 1.0
C      1  0.5271710000000  0.4507810000000  0.4260680000000 1.0
C      1  0.5534650000000  0.5352420000000  0.5542280000000 1.0
C      1  0.4515990000000  0.5439310000000  0.4990430000000 1.0
C      1  0.5288620000000  0.5371260000000  0.5703630000000 1.0
C      1  0.5141270000000  0.4591390000000  0.5241640000000 1.0
C      1  0.4377500000000  0.4512030000000  0.4659350000000 1.0
C      1  0.4635770000000  0.5312130000000  0.5760020000000 1.0
C      1  0.5600030000000  0.5651580000000  0.4893980000000 1.0
C      1  0.4195440000000  0.4706600000000  0.5048840000000 1.0
C      1  0.4157110000000  0.4955790000000  0.5188130000000 1.0
C      1  0.4691960000000  0.5639480000000  0.5413420000000 1.0
C      1  0.5385510000000  0.5799520000000  0.5014610000000 1.0
C      1  0.5813720000000  0.5205780000000  0.5019750000000 1.0
C      1  0.5317070000000  0.4006970000000  0.5069750000000 1.0
C      1  0.4207090000000  0.4727240000000  0.4760400000000 1.0
C      1  0.5051930000000  0.5128230000000  0.5219940000000 1.0
END
