TITL C-130741-8057-5 -0.0101817198843324 125000 -63.3833393646834 0 0 11 (C1) n - 1
REM
REM in /rds/project/t2_vol4/rds-t2-cs072/BORA/CARBON/from-Arr/AIRSS/Generating-Clusters/GAP-ML-2020/Only-C1/SD-CG/HFTN-CG
REM
REM
REM
REM
REM
REM ./C.cell (11c1c37f851c82e70ff6c80c92926a4b)
REM AIRSS Version 0.9.1 bugfix July 2018 build 013d7b7c2542+ Fri, 06 Jul 2018 19:26:36 +0100
REM compiler GCC version 9.3.0
REM options -cpp -mtune=generic -march=x86-64 -g -O0
REM seed 2123592691 -1674991637 387675080 88726230 2040374468 -1670244705 1139351648 19032225 1811339403 -214708448 1708562653 -1692644029 -236055446 1689129698 -1997024692 -2054566184 1875124434 -74621189 2130500878 -1104981911 716197568 212713684 -104921308 -136099971 -290003047 -1041408367 -1576768630 898142925 2039072939 593468948 1685229012 -1506418315 -391003285
REM
CELL 1.54180   50.00000   50.00000   50.00000   90.00000   90.00000   90.00000
LATT -1
SFAC C  
C      1  0.4730360000000  0.4856310000000  0.4560080000000 1.0
C      1  0.4923730000000  0.4792290000000  0.5195550000000 1.0
C      1  0.5300780000000  0.5069020000000  0.5069280000000 1.0
C      1  0.5327890000000  0.5118270000000  0.4798530000000 1.0
C      1  0.4778900000000  0.4664020000000  0.5033860000000 1.0
C      1  0.4863650000000  0.5211890000000  0.5022550000000 1.0
C      1  0.4732510000000  0.4733510000000  0.4781310000000 1.0
C      1  0.4695580000000  0.5272510000000  0.4840880000000 1.0
C      1  0.5053910000000  0.5074010000000  0.5216820000000 1.0
C      1  0.5542820000000  0.5038150000000  0.4924220000000 1.0
C      1  0.5049860000000  0.5170000000000  0.5556920000000 1.0
END
