TITL C-134197-9905-10 557.065881763698 125000 -468.625948735351 0 0 69 (C1) n - 1
REM
REM in /rds/project/t2_vol4/rds-t2-cs072/BORA/CARBON/from-Arr/AIRSS/Generating-Clusters/GAP-ML-2020/Only-C1/SD-CG/HFTN-CG
REM
REM
REM
REM
REM
REM ./C.cell (11c1c37f851c82e70ff6c80c92926a4b)
REM AIRSS Version 0.9.1 bugfix July 2018 build 013d7b7c2542+ Fri, 06 Jul 2018 19:26:36 +0100
REM compiler GCC version 9.3.0
REM options -cpp -mtune=generic -march=x86-64 -g -O0
REM seed 1771641423 -1520111135 -2139526686 2058948141 617497780 -1941466915 1825454051 -1128962550 -1785051417 -186980411 769135085 -314263968 -459598779 -575236837 1284735073 236380512 1134613996 1412801895 1943605158 -876045349 -640377849 150626569 1215561276 -1791277958 1195109904 1665249347 273164286 -1494008316 2066963987 -793738808 -1633307307 948690318 -178207945
REM
CELL 1.54180   50.00000   50.00000   50.00000   90.00000   90.00000   90.00000
LATT -1
SFAC C  
C      1  0.4639940000000  0.4683490000000  0.4465480000000 1.0
C      1  0.4492830000000  0.4545310000000  0.5135060000000 1.0
C      1  0.4395760000000  0.4763340000000  0.5328290000000 1.0
C      1  0.4591750000000  0.5564130000000  0.4822680000000 1.0
C      1  0.4342590000000  0.5459940000000  0.5261070000000 1.0
C      1  0.4496110000000  0.5150110000000  0.5541630000000 1.0
C      1  0.5152310000000  0.4425040000000  0.5502570000000 1.0
C      1  0.4880020000000  0.4386630000000  0.5419710000000 1.0
C      1  0.4514000000000  0.4718520000000  0.5612370000000 1.0
C      1  0.5307200000000  0.5447580000000  0.4736580000000 1.0
C      1  0.5963860000000  0.5024260000000  0.5070410000000 1.0
C      1  0.5402720000000  0.5016770000000  0.4499900000000 1.0
C      1  0.5368580000000  0.4728160000000  0.4462980000000 1.0
C      1  0.5077670000000  0.5532260000000  0.5228580000000 1.0
C      1  0.4923250000000  0.5010680000000  0.4259200000000 1.0
C      1  0.4789740000000  0.4447870000000  0.5123850000000 1.0
C      1  0.5142470000000  0.4866740000000  0.5430780000000 1.0
C      1  0.5533990000000  0.4595260000000  0.4650800000000 1.0
C      1  0.4931230000000  0.5315320000000  0.5629160000000 1.0
C      1  0.4797090000000  0.5598130000000  0.5276590000000 1.0
C      1  0.5304050000000  0.4995510000000  0.5003550000000 1.0
C      1  0.5382270000000  0.5151620000000  0.4765390000000 1.0
C      1  0.4824210000000  0.5652460000000  0.4711950000000 1.0
C      1  0.4843350000000  0.5051030000000  0.4877010000000 1.0
C      1  0.4744590000000  0.4603350000000  0.5537310000000 1.0
C      1  0.5526330000000  0.5470370000000  0.5204570000000 1.0
C      1  0.4602440000000  0.4981600000000  0.5729100000000 1.0
C      1  0.5099260000000  0.4417200000000  0.4695610000000 1.0
C      1  0.4558300000000  0.5587900000000  0.5111160000000 1.0
C      1  0.4872770000000  0.5068930000000  0.5786050000000 1.0
C      1  0.4734850000000  0.5221210000000  0.4336600000000 1.0
C      1  0.4593830000000  0.4996210000000  0.5272290000000 1.0
C      1  0.5409360000000  0.5226980000000  0.4304560000000 1.0
C      1  0.5366430000000  0.4433400000000  0.4819960000000 1.0
C      1  0.5197310000000  0.4681660000000  0.5656070000000 1.0
C      1  0.4959750000000  0.4700060000000  0.5140310000000 1.0
C      1  0.4465150000000  0.4898910000000  0.4534380000000 1.0
C      1  0.5566270000000  0.5215190000000  0.5305900000000 1.0
C      1  0.4894230000000  0.4743360000000  0.4350810000000 1.0
C      1  0.4957850000000  0.5408640000000  0.4361760000000 1.0
C      1  0.4429800000000  0.4588130000000  0.4867570000000 1.0
C      1  0.4843630000000  0.4378690000000  0.4822580000000 1.0
C      1  0.5045450000000  0.5538970000000  0.4600600000000 1.0
C      1  0.5527800000000  0.5442830000000  0.4465960000000 1.0
C      1  0.5074970000000  0.4869430000000  0.5804740000000 1.0
C      1  0.5774960000000  0.5346230000000  0.4527170000000 1.0
C      1  0.5712050000000  0.4753900000000  0.4810070000000 1.0
C      1  0.5309610000000  0.5542210000000  0.5040400000000 1.0
C      1  0.5952200000000  0.5179040000000  0.4597610000000 1.0
C      1  0.4854780000000  0.4840090000000  0.5359240000000 1.0
C      1  0.4517720000000  0.5174710000000  0.4501850000000 1.0
C      1  0.5115190000000  0.4596420000000  0.4460960000000 1.0
C      1  0.5141760000000  0.5207140000000  0.4256100000000 1.0
C      1  0.4398490000000  0.4860290000000  0.4805330000000 1.0
C      1  0.5281740000000  0.5102240000000  0.5317030000000 1.0
C      1  0.5122820000000  0.5327560000000  0.5417750000000 1.0
C      1  0.5912310000000  0.4966800000000  0.4793910000000 1.0
C      1  0.4172620000000  0.5227950000000  0.5206560000000 1.0
C      1  0.5443670000000  0.4482450000000  0.5102420000000 1.0
C      1  0.5730150000000  0.5004830000000  0.5204850000000 1.0
C      1  0.5362010000000  0.4365650000000  0.5333760000000 1.0
C      1  0.4169380000000  0.4974010000000  0.5270790000000 1.0
C      1  0.5038240000000  0.4887030000000  0.4943170000000 1.0
C      1  0.4625920000000  0.4488930000000  0.4683110000000 1.0
C      1  0.4570160000000  0.5068220000000  0.4966490000000 1.0
C      1  0.4489170000000  0.5305580000000  0.4754240000000 1.0
C      1  0.5551480000000  0.4787870000000  0.5059920000000 1.0
C      1  0.4457820000000  0.5417940000000  0.5528960000000 1.0
C      1  0.4728390000000  0.5489750000000  0.5534790000000 1.0
END
