TITL C-134886-4565-9 9.6183296481622 125000 -148.294895424219 0 0 23 (C1) n - 1
REM
REM in /rds/project/t2_vol4/rds-t2-cs072/BORA/CARBON/from-Arr/AIRSS/Generating-Clusters/GAP-ML-2020/Only-C1/SD-CG/HFTN-CG
REM
REM
REM
REM
REM
REM ./C.cell (11c1c37f851c82e70ff6c80c92926a4b)
REM AIRSS Version 0.9.1 bugfix July 2018 build 013d7b7c2542+ Fri, 06 Jul 2018 19:26:36 +0100
REM compiler GCC version 9.3.0
REM options -cpp -mtune=generic -march=x86-64 -g -O0
REM seed 1564579093 -669629035 -246863081 331073521 -435930302 -754977525 1130031753 -1622145556 -15499094 502286927 -2046936084 913521568 -117723865 -440270532 -1234133172 1994323181 1298644567 -398532905 2091038601 -1108782473 -920634357 1439130101 1793714577 -1711298677 -1599232010 -504887671 -1370908464 442361274 1512421761 1762507255 -670399212 1278639141 1270714725
REM
CELL 1.54180   50.00000   50.00000   50.00000   90.00000   90.00000   90.00000
LATT -1
SFAC C  
C      1  0.4652930000000  0.5158920000000  0.4592330000000 1.0
C      1  0.5147390000000  0.4975460000000  0.5312610000000 1.0
C      1  0.5479390000000  0.4973290000000  0.4994900000000 1.0
C      1  0.4703360000000  0.4982370000000  0.5086120000000 1.0
C      1  0.4618740000000  0.5416890000000  0.4976330000000 1.0
C      1  0.5052050000000  0.5358430000000  0.5093710000000 1.0
C      1  0.4704890000000  0.4690260000000  0.5095670000000 1.0
C      1  0.5300600000000  0.5379580000000  0.5232990000000 1.0
C      1  0.4694470000000  0.4963050000000  0.4775630000000 1.0
C      1  0.5466530000000  0.5134310000000  0.4756380000000 1.0
C      1  0.4721480000000  0.4498590000000  0.5296620000000 1.0
C      1  0.5284110000000  0.5299930000000  0.4682900000000 1.0
C      1  0.4925110000000  0.5118730000000  0.5198480000000 1.0
C      1  0.5043350000000  0.5387870000000  0.4809580000000 1.0
C      1  0.4769270000000  0.4674290000000  0.4812640000000 1.0
C      1  0.5259540000000  0.4536820000000  0.4808320000000 1.0
C      1  0.5385660000000  0.5121710000000  0.5232840000000 1.0
C      1  0.4984770000000  0.4532280000000  0.5293810000000 1.0
C      1  0.4762530000000  0.5366890000000  0.4750590000000 1.0
C      1  0.4479390000000  0.5475980000000  0.5172260000000 1.0
C      1  0.5196730000000  0.4702070000000  0.5259780000000 1.0
C      1  0.5356450000000  0.4706330000000  0.5016570000000 1.0
C      1  0.5011270000000  0.4545960000000  0.4748930000000 1.0
END
