TITL C-134884-4593-8 38.4080891800557 125000 -230.664557823736 0 0 34 (C1) n - 1
REM
REM in /rds/project/t2_vol4/rds-t2-cs072/BORA/CARBON/from-Arr/AIRSS/Generating-Clusters/GAP-ML-2020/Only-C1/SD-CG/HFTN-CG
REM
REM
REM
REM
REM
REM ./C.cell (11c1c37f851c82e70ff6c80c92926a4b)
REM AIRSS Version 0.9.1 bugfix July 2018 build 013d7b7c2542+ Fri, 06 Jul 2018 19:26:36 +0100
REM compiler GCC version 9.3.0
REM options -cpp -mtune=generic -march=x86-64 -g -O0
REM seed 181550588 -281515769 -2045896830 699875887 -1805192597 36876151 -2060571818 33381116 1081420934 1805305686 2036617835 -1024524535 1419865316 -939393724 527776024 870764176 -2020268759 2097698284 2107915632 -839437291 -2143309664 1388775678 1744161788 -763843819 1989809610 91247095 -1537223174 -848074762 -1792785628 -1662715348 -874426278 -759643015 1104207060
REM
CELL 1.54180   50.00000   50.00000   50.00000   90.00000   90.00000   90.00000
LATT -1
SFAC C  
C      1  0.4681830000000  0.5366450000000  0.5327040000000 1.0
C      1  0.4672240000000  0.4629470000000  0.5218150000000 1.0
C      1  0.5458310000000  0.5458520000000  0.5015500000000 1.0
C      1  0.4857190000000  0.5510860000000  0.5428670000000 1.0
C      1  0.5289870000000  0.5283960000000  0.5416540000000 1.0
C      1  0.5509880000000  0.5280680000000  0.5234080000000 1.0
C      1  0.5187410000000  0.5007360000000  0.5446620000000 1.0
C      1  0.5274790000000  0.4609090000000  0.4841050000000 1.0
C      1  0.4925330000000  0.4896800000000  0.4454950000000 1.0
C      1  0.5269850000000  0.4608490000000  0.5132370000000 1.0
C      1  0.5372070000000  0.4848440000000  0.4696360000000 1.0
C      1  0.5124680000000  0.5504440000000  0.5347280000000 1.0
C      1  0.5080660000000  0.4449090000000  0.5270500000000 1.0
C      1  0.4596130000000  0.5125770000000  0.5219880000000 1.0
C      1  0.5539880000000  0.5017790000000  0.5128150000000 1.0
C      1  0.4595710000000  0.4622530000000  0.4941250000000 1.0
C      1  0.4893900000000  0.4612020000000  0.4510330000000 1.0
C      1  0.4453150000000  0.4846410000000  0.4828730000000 1.0
C      1  0.5360420000000  0.4843240000000  0.5263280000000 1.0
C      1  0.4681570000000  0.5053320000000  0.4517740000000 1.0
C      1  0.5049940000000  0.4497900000000  0.4711790000000 1.0
C      1  0.4996210000000  0.5590670000000  0.4898320000000 1.0
C      1  0.4938090000000  0.4932400000000  0.5497970000000 1.0
C      1  0.4458080000000  0.4879310000000  0.4544750000000 1.0
C      1  0.4780890000000  0.4503810000000  0.4752460000000 1.0
C      1  0.5529940000000  0.5042020000000  0.4838310000000 1.0
C      1  0.4641600000000  0.5256370000000  0.4739570000000 1.0
C      1  0.4836600000000  0.4406820000000  0.5316610000000 1.0
C      1  0.4715270000000  0.4883370000000  0.5347440000000 1.0
C      1  0.4510310000000  0.5104620000000  0.4947100000000 1.0
C      1  0.5522620000000  0.5322090000000  0.4778860000000 1.0
C      1  0.4799070000000  0.5470810000000  0.4805290000000 1.0
C      1  0.5203110000000  0.5593410000000  0.5079320000000 1.0
C      1  0.5193400000000  0.4941670000000  0.4503740000000 1.0
END
