TITL C-134175-9910-1 -561.992590258177 125000 -918.653350194154 0 0 132 (C1) n - 1
REM
REM in /rds/project/t2_vol4/rds-t2-cs072/BORA/CARBON/from-Arr/AIRSS/Generating-Clusters/GAP-ML-2020/Only-C1/SD-CG/HFTN-CG
REM
REM
REM
REM
REM
REM ./C.cell (11c1c37f851c82e70ff6c80c92926a4b)
REM AIRSS Version 0.9.1 bugfix July 2018 build 013d7b7c2542+ Fri, 06 Jul 2018 19:26:36 +0100
REM compiler GCC version 9.3.0
REM options -cpp -mtune=generic -march=x86-64 -g -O0
REM seed -368105073 158467967 508599555 -797253745 1837681808 -667447839 1155968344 1357235174 -961184877 -40210565 792218122 -1866783001 -478187783 -1045424324 -1790401605 -988703307 -343724976 -431999160 -1433647490 -799028795 1141520770 -1207981676 501335909 1740480695 2032219155 414369507 -1952807558 -1379823876 -1840188280 481142338 1782824971 1106784183 -1003247104
REM
CELL 1.54180   50.00000   50.00000   50.00000   90.00000   90.00000   90.00000
LATT -1
SFAC C  
C      1  0.4596300000000  0.5864490000000  0.5280710000000 1.0
C      1  0.4777360000000  0.4727460000000  0.4551310000000 1.0
C      1  0.4138060000000  0.5296110000000  0.4848120000000 1.0
C      1  0.5410470000000  0.4690550000000  0.4233350000000 1.0
C      1  0.5290470000000  0.5547950000000  0.5876500000000 1.0
C      1  0.4929090000000  0.4781860000000  0.5063200000000 1.0
C      1  0.4847140000000  0.5400380000000  0.5982890000000 1.0
C      1  0.4314140000000  0.4729690000000  0.4372710000000 1.0
C      1  0.4721060000000  0.4307600000000  0.5601550000000 1.0
C      1  0.5578170000000  0.4167950000000  0.5455240000000 1.0
C      1  0.4833550000000  0.5396280000000  0.5687670000000 1.0
C      1  0.4959700000000  0.4956380000000  0.5306810000000 1.0
C      1  0.4826130000000  0.5966280000000  0.5407590000000 1.0
C      1  0.4869130000000  0.5229430000000  0.4851580000000 1.0
C      1  0.5666250000000  0.4074110000000  0.4873970000000 1.0
C      1  0.4858150000000  0.5737230000000  0.4465140000000 1.0
C      1  0.5096500000000  0.4951460000000  0.5791420000000 1.0
C      1  0.4930950000000  0.4947010000000  0.4014620000000 1.0
C      1  0.5827740000000  0.4932280000000  0.4624850000000 1.0
C      1  0.4495620000000  0.5378600000000  0.4421370000000 1.0
C      1  0.5680560000000  0.5339610000000  0.5622750000000 1.0
C      1  0.5550140000000  0.4647660000000  0.4955910000000 1.0
C      1  0.4922370000000  0.4498250000000  0.5647730000000 1.0
C      1  0.5325800000000  0.4138670000000  0.4549110000000 1.0
C      1  0.5340240000000  0.4704420000000  0.5415910000000 1.0
C      1  0.5115220000000  0.4182460000000  0.5382300000000 1.0
C      1  0.4679960000000  0.5004290000000  0.4125780000000 1.0
C      1  0.5737660000000  0.5023240000000  0.4355120000000 1.0
C      1  0.4583190000000  0.5304310000000  0.4857940000000 1.0
C      1  0.4633230000000  0.4052480000000  0.5227230000000 1.0
C      1  0.5081760000000  0.5519350000000  0.6047890000000 1.0
C      1  0.5185530000000  0.4961210000000  0.5500270000000 1.0
C      1  0.5214410000000  0.4034770000000  0.4786470000000 1.0
C      1  0.4662600000000  0.5279980000000  0.4205740000000 1.0
C      1  0.4140800000000  0.4524130000000  0.4407700000000 1.0
C      1  0.4137610000000  0.5259990000000  0.5323750000000 1.0
C      1  0.4543580000000  0.5158290000000  0.5367460000000 1.0
C      1  0.5426600000000  0.4020780000000  0.5003310000000 1.0
C      1  0.5436600000000  0.5308070000000  0.5773770000000 1.0
C      1  0.4074430000000  0.4502810000000  0.4677620000000 1.0
C      1  0.4496390000000  0.5621550000000  0.4829690000000 1.0
C      1  0.5099920000000  0.4481520000000  0.5395880000000 1.0
C      1  0.4361600000000  0.4886310000000  0.5674510000000 1.0
C      1  0.5679670000000  0.5631940000000  0.4669200000000 1.0
C      1  0.5548790000000  0.4625810000000  0.5618900000000 1.0
C      1  0.5178440000000  0.5198460000000  0.4608150000000 1.0
C      1  0.5369780000000  0.4077380000000  0.5286620000000 1.0
C      1  0.5493600000000  0.5748550000000  0.5458360000000 1.0
C      1  0.4533260000000  0.5121130000000  0.5072040000000 1.0
C      1  0.5085200000000  0.5443770000000  0.5527690000000 1.0
C      1  0.4619240000000  0.4849330000000  0.5014860000000 1.0
C      1  0.5616390000000  0.4200150000000  0.4634580000000 1.0
C      1  0.5397610000000  0.5353390000000  0.5194560000000 1.0
C      1  0.4703230000000  0.4915810000000  0.5440980000000 1.0
C      1  0.4973860000000  0.4648880000000  0.4036750000000 1.0
C      1  0.4734760000000  0.3988920000000  0.4978320000000 1.0
C      1  0.4928770000000  0.4496780000000  0.5118440000000 1.0
C      1  0.4412400000000  0.4234980000000  0.5289380000000 1.0
C      1  0.5605060000000  0.4888390000000  0.5724490000000 1.0
C      1  0.4592640000000  0.5621620000000  0.4538850000000 1.0
C      1  0.5684890000000  0.4458530000000  0.4567260000000 1.0
C      1  0.4328160000000  0.4645550000000  0.5491710000000 1.0
C      1  0.5524840000000  0.4941040000000  0.4179000000000 1.0
C      1  0.4926240000000  0.5389850000000  0.4137430000000 1.0
C      1  0.5658010000000  0.5669180000000  0.4941100000000 1.0
C      1  0.4554750000000  0.4722080000000  0.4753620000000 1.0
C      1  0.4628960000000  0.4441090000000  0.5139150000000 1.0
C      1  0.4653230000000  0.5417720000000  0.5445600000000 1.0
C      1  0.4188520000000  0.4359130000000  0.5143160000000 1.0
C      1  0.4053330000000  0.5122630000000  0.5077160000000 1.0
C      1  0.5727370000000  0.5308130000000  0.4348710000000 1.0
C      1  0.5177280000000  0.4371580000000  0.4416280000000 1.0
C      1  0.5376910000000  0.5176550000000  0.4084100000000 1.0
C      1  0.5493040000000  0.5406240000000  0.4203390000000 1.0
C      1  0.5303010000000  0.5250740000000  0.5486380000000 1.0
C      1  0.4838380000000  0.4108760000000  0.5432580000000 1.0
C      1  0.5746150000000  0.5069130000000  0.5543110000000 1.0
C      1  0.5701540000000  0.5553790000000  0.5429320000000 1.0
C      1  0.5408630000000  0.5813840000000  0.4978550000000 1.0
C      1  0.4947330000000  0.4081720000000  0.4850100000000 1.0
C      1  0.4234520000000  0.5522060000000  0.5241170000000 1.0
C      1  0.5754190000000  0.4679410000000  0.4741760000000 1.0
C      1  0.5332470000000  0.5055200000000  0.4792720000000 1.0
C      1  0.4226000000000  0.5544610000000  0.4954060000000 1.0
C      1  0.4669620000000  0.4905460000000  0.5745020000000 1.0
C      1  0.4145600000000  0.4621930000000  0.5254590000000 1.0
C      1  0.4047580000000  0.4833970000000  0.5062920000000 1.0
C      1  0.4461660000000  0.5630400000000  0.5373650000000 1.0
C      1  0.5418370000000  0.4562060000000  0.4504960000000 1.0
C      1  0.4918590000000  0.5444790000000  0.5276430000000 1.0
C      1  0.4446090000000  0.4367130000000  0.5541970000000 1.0
C      1  0.4546440000000  0.4705110000000  0.5274280000000 1.0
C      1  0.4357080000000  0.5204270000000  0.4645170000000 1.0
C      1  0.4949080000000  0.4985520000000  0.4645920000000 1.0
C      1  0.5874660000000  0.5173660000000  0.4782660000000 1.0
C      1  0.5004720000000  0.5865710000000  0.4678760000000 1.0
C      1  0.4594460000000  0.4753570000000  0.4270740000000 1.0
C      1  0.5319530000000  0.5104860000000  0.5069560000000 1.0
C      1  0.4929430000000  0.4452790000000  0.4579420000000 1.0
C      1  0.5504900000000  0.4839000000000  0.5180000000000 1.0
C      1  0.5036710000000  0.5616320000000  0.4265990000000 1.0
C      1  0.5091570000000  0.5410130000000  0.4779930000000 1.0
C      1  0.5131320000000  0.4827350000000  0.4829560000000 1.0
C      1  0.5814880000000  0.5396210000000  0.4600330000000 1.0
C      1  0.5245370000000  0.5693760000000  0.5599330000000 1.0
C      1  0.5369700000000  0.5917360000000  0.5259740000000 1.0
C      1  0.4846510000000  0.5132840000000  0.5831800000000 1.0
C      1  0.5452270000000  0.5747650000000  0.4523310000000 1.0
C      1  0.5756950000000  0.5002630000000  0.5262950000000 1.0
C      1  0.5198000000000  0.4523270000000  0.4157720000000 1.0
C      1  0.4887120000000  0.5852130000000  0.4930720000000 1.0
C      1  0.4295980000000  0.5118220000000  0.5517610000000 1.0
C      1  0.5299040000000  0.4581460000000  0.4805950000000 1.0
C      1  0.5030880000000  0.4385340000000  0.4855600000000 1.0
C      1  0.5240600000000  0.5558460000000  0.5025750000000 1.0
C      1  0.4235370000000  0.4364280000000  0.4863290000000 1.0
C      1  0.5839480000000  0.5206040000000  0.5066850000000 1.0
C      1  0.5391840000000  0.5028400000000  0.5856580000000 1.0
C      1  0.4077380000000  0.4770020000000  0.4787440000000 1.0
C      1  0.4900440000000  0.4722900000000  0.5806030000000 1.0
C      1  0.4735660000000  0.4549670000000  0.4116550000000 1.0
C      1  0.5332990000000  0.5625870000000  0.4292920000000 1.0
C      1  0.5093150000000  0.5888510000000  0.5385440000000 1.0
C      1  0.5289660000000  0.5880360000000  0.4708850000000 1.0
C      1  0.5013040000000  0.5695750000000  0.5149780000000 1.0
C      1  0.4508960000000  0.4449200000000  0.4860900000000 1.0
C      1  0.4307760000000  0.4893180000000  0.4630150000000 1.0
C      1  0.4995750000000  0.5190560000000  0.5128240000000 1.0
C      1  0.4620210000000  0.5828380000000  0.4993230000000 1.0
C      1  0.5096100000000  0.5179360000000  0.4030910000000 1.0
C      1  0.5705300000000  0.5459500000000  0.5148540000000 1.0
C      1  0.5635550000000  0.4363640000000  0.5607960000000 1.0
END
