TITL C-136408-9212-8 -7.04684165468895 125000 -847.594908745029 0 0 120 (C1) n - 1
REM
REM in /rds/project/t2_vol4/rds-t2-cs072/BORA/CARBON/from-Arr/AIRSS/Generating-Clusters/GAP-ML-2020/Only-C1/SD-CG/HFTN-CG
REM
REM
REM
REM
REM
REM ./C.cell (11c1c37f851c82e70ff6c80c92926a4b)
REM AIRSS Version 0.9.1 bugfix July 2018 build 013d7b7c2542+ Fri, 06 Jul 2018 19:26:36 +0100
REM compiler GCC version 9.3.0
REM options -cpp -mtune=generic -march=x86-64 -g -O0
REM seed -1281566479 1255168614 1011629458 362937629 34869920 -1001857816 276838133 1377273655 -468927393 2020407304 1705137797 530650493 -349498496 -1708125301 -1692440118 -70214469 386938681 -1341760214 601405825 330576325 -167579709 -466368441 1686403602 549298475 -616876222 1202632798 -689862907 -1461207108 -552731819 -764443200 896304009 233516075 -1665376039
REM
CELL 1.54180   50.00000   50.00000   50.00000   90.00000   90.00000   90.00000
LATT -1
SFAC C  
C      1  0.5839720000000  0.4713160000000  0.5001720000000 1.0
C      1  0.5753800000000  0.4901500000000  0.5461750000000 1.0
C      1  0.4456640000000  0.4478470000000  0.4519870000000 1.0
C      1  0.5386780000000  0.5173980000000  0.4219370000000 1.0
C      1  0.4157880000000  0.5039100000000  0.5138130000000 1.0
C      1  0.5542210000000  0.5081120000000  0.5596020000000 1.0
C      1  0.4582890000000  0.5259250000000  0.4912850000000 1.0
C      1  0.4718880000000  0.4347880000000  0.5650170000000 1.0
C      1  0.4923830000000  0.5780630000000  0.5216640000000 1.0
C      1  0.4991490000000  0.5460690000000  0.4201500000000 1.0
C      1  0.5556410000000  0.5364560000000  0.5723470000000 1.0
C      1  0.4780300000000  0.4116270000000  0.4700870000000 1.0
C      1  0.4934540000000  0.5791980000000  0.5525180000000 1.0
C      1  0.5246610000000  0.4220970000000  0.5369670000000 1.0
C      1  0.3989490000000  0.4832490000000  0.5272340000000 1.0
C      1  0.5166530000000  0.5405460000000  0.6070600000000 1.0
C      1  0.5301260000000  0.5471520000000  0.5839260000000 1.0
C      1  0.4836490000000  0.4576960000000  0.4153750000000 1.0
C      1  0.5375710000000  0.4164210000000  0.5106820000000 1.0
C      1  0.5406590000000  0.5833510000000  0.5006840000000 1.0
C      1  0.4563150000000  0.5667110000000  0.4412390000000 1.0
C      1  0.4638640000000  0.5810470000000  0.5132140000000 1.0
C      1  0.4140020000000  0.5119540000000  0.4845580000000 1.0
C      1  0.5437410000000  0.4618490000000  0.5661950000000 1.0
C      1  0.4325480000000  0.5501720000000  0.5338130000000 1.0
C      1  0.4760810000000  0.4740010000000  0.5394990000000 1.0
C      1  0.4262840000000  0.5226600000000  0.5352340000000 1.0
C      1  0.4776860000000  0.4564640000000  0.5163880000000 1.0
C      1  0.5382650000000  0.5126590000000  0.4745200000000 1.0
C      1  0.4928710000000  0.4806460000000  0.5807740000000 1.0
C      1  0.4673690000000  0.5008150000000  0.4090570000000 1.0
C      1  0.4452690000000  0.4396110000000  0.5682370000000 1.0
C      1  0.5435050000000  0.5665410000000  0.4751740000000 1.0
C      1  0.4702820000000  0.5472840000000  0.4241980000000 1.0
C      1  0.5054020000000  0.4743690000000  0.4083400000000 1.0
C      1  0.5437810000000  0.5435940000000  0.4341470000000 1.0
C      1  0.4971990000000  0.3971230000000  0.5088500000000 1.0
C      1  0.5857790000000  0.5107700000000  0.4775830000000 1.0
C      1  0.4749200000000  0.5924200000000  0.4683720000000 1.0
C      1  0.4420510000000  0.4851130000000  0.5141980000000 1.0
C      1  0.5463090000000  0.5317970000000  0.5156870000000 1.0
C      1  0.4402870000000  0.4368910000000  0.5207360000000 1.0
C      1  0.5554250000000  0.5819380000000  0.5243820000000 1.0
C      1  0.5539490000000  0.4308220000000  0.4711800000000 1.0
C      1  0.5410670000000  0.4873730000000  0.5771000000000 1.0
C      1  0.5201110000000  0.5600380000000  0.4344860000000 1.0
C      1  0.5037430000000  0.5365970000000  0.4969650000000 1.0
C      1  0.4920950000000  0.4583980000000  0.5614760000000 1.0
C      1  0.5058530000000  0.5193570000000  0.5929320000000 1.0
C      1  0.5200490000000  0.5647190000000  0.5605600000000 1.0
C      1  0.4108660000000  0.4916590000000  0.4670930000000 1.0
C      1  0.4657950000000  0.4986250000000  0.5013790000000 1.0
C      1  0.5216450000000  0.5761570000000  0.4584070000000 1.0
C      1  0.4495010000000  0.5717770000000  0.5375550000000 1.0
C      1  0.5483050000000  0.4896360000000  0.4287160000000 1.0
C      1  0.4357140000000  0.5303860000000  0.4711400000000 1.0
C      1  0.4574350000000  0.4146160000000  0.5210110000000 1.0
C      1  0.5809720000000  0.4827710000000  0.4733180000000 1.0
C      1  0.4954960000000  0.5004770000000  0.4035590000000 1.0
C      1  0.4975800000000  0.5461840000000  0.5233850000000 1.0
C      1  0.5120720000000  0.4266310000000  0.4408940000000 1.0
C      1  0.5154110000000  0.4969930000000  0.5261440000000 1.0
C      1  0.4655160000000  0.4276840000000  0.4492090000000 1.0
C      1  0.4556640000000  0.5230640000000  0.4223320000000 1.0
C      1  0.4755110000000  0.4144420000000  0.5449900000000 1.0
C      1  0.5069540000000  0.4120320000000  0.4659900000000 1.0
C      1  0.4559700000000  0.5787480000000  0.4861400000000 1.0
C      1  0.4863480000000  0.4344860000000  0.4309440000000 1.0
C      1  0.5205840000000  0.5430330000000  0.5397060000000 1.0
C      1  0.5335370000000  0.4438050000000  0.4324520000000 1.0
C      1  0.5648280000000  0.5582200000000  0.5576930000000 1.0
C      1  0.4600270000000  0.4739960000000  0.4153680000000 1.0
C      1  0.5743700000000  0.5387490000000  0.5162560000000 1.0
C      1  0.5026590000000  0.5902760000000  0.4746900000000 1.0
C      1  0.5862020000000  0.4925710000000  0.5195590000000 1.0
C      1  0.4506030000000  0.4629590000000  0.4753840000000 1.0
C      1  0.4391520000000  0.4681730000000  0.4327110000000 1.0
C      1  0.5779660000000  0.4455100000000  0.5104250000000 1.0
C      1  0.5649380000000  0.4749840000000  0.4502460000000 1.0
C      1  0.5187400000000  0.4044690000000  0.4919820000000 1.0
C      1  0.5689240000000  0.4630880000000  0.5527160000000 1.0
C      1  0.5170800000000  0.4924580000000  0.5898010000000 1.0
C      1  0.4470680000000  0.4796110000000  0.5432310000000 1.0
C      1  0.5168240000000  0.4945150000000  0.4677440000000 1.0
C      1  0.4254470000000  0.4913240000000  0.4434590000000 1.0
C      1  0.5032600000000  0.4705970000000  0.4784840000000 1.0
C      1  0.5552770000000  0.4478120000000  0.4503790000000 1.0
C      1  0.4906560000000  0.5065180000000  0.4626540000000 1.0
C      1  0.4642060000000  0.5193590000000  0.5622970000000 1.0
C      1  0.4370260000000  0.5170340000000  0.4428370000000 1.0
C      1  0.4327690000000  0.4516170000000  0.5457900000000 1.0
C      1  0.5211800000000  0.4502220000000  0.5500660000000 1.0
C      1  0.4652810000000  0.5935540000000  0.4419290000000 1.0
C      1  0.5885050000000  0.5172100000000  0.5054660000000 1.0
C      1  0.4425660000000  0.5600890000000  0.4673460000000 1.0
C      1  0.5120250000000  0.5218090000000  0.4105980000000 1.0
C      1  0.4049800000000  0.4624640000000  0.5397760000000 1.0
C      1  0.4747110000000  0.4835060000000  0.4760980000000 1.0
C      1  0.4672060000000  0.5782820000000  0.5591490000000 1.0
C      1  0.4763100000000  0.5274610000000  0.5353360000000 1.0
C      1  0.4537170000000  0.5365030000000  0.5186780000000 1.0
C      1  0.5604420000000  0.5503560000000  0.4562070000000 1.0
C      1  0.5122380000000  0.5892850000000  0.5013620000000 1.0
C      1  0.5306500000000  0.4686890000000  0.4186360000000 1.0
C      1  0.4404680000000  0.5059570000000  0.5544820000000 1.0
C      1  0.5225310000000  0.4695990000000  0.5227720000000 1.0
C      1  0.5040430000000  0.4588270000000  0.5037210000000 1.0
C      1  0.4479750000000  0.4579810000000  0.5031510000000 1.0
C      1  0.5315680000000  0.5352490000000  0.4913500000000 1.0
C      1  0.5667980000000  0.5242310000000  0.4633700000000 1.0
C      1  0.5595950000000  0.4281460000000  0.4973740000000 1.0
C      1  0.4813580000000  0.5077270000000  0.5813250000000 1.0
C      1  0.4847620000000  0.5297170000000  0.4788010000000 1.0
C      1  0.5332240000000  0.5168770000000  0.5369570000000 1.0
C      1  0.4856940000000  0.5004210000000  0.5254050000000 1.0
C      1  0.5447150000000  0.5780940000000  0.5516000000000 1.0
C      1  0.5008620000000  0.4064870000000  0.5357650000000 1.0
C      1  0.4723600000000  0.4045220000000  0.4981680000000 1.0
C      1  0.5780800000000  0.4427550000000  0.5378200000000 1.0
C      1  0.5763480000000  0.5618260000000  0.5314450000000 1.0
END
