TITL C-136387-9229-8 5.16666037538215 125000 -315.161374141518 0 0 47 (C1) n - 1
REM
REM in /rds/project/t2_vol4/rds-t2-cs072/BORA/CARBON/from-Arr/AIRSS/Generating-Clusters/GAP-ML-2020/Only-C1/SD-CG/HFTN-CG
REM
REM
REM
REM
REM
REM ./C.cell (11c1c37f851c82e70ff6c80c92926a4b)
REM AIRSS Version 0.9.1 bugfix July 2018 build 013d7b7c2542+ Fri, 06 Jul 2018 19:26:36 +0100
REM compiler GCC version 9.3.0
REM options -cpp -mtune=generic -march=x86-64 -g -O0
REM seed 1311423855 460024117 -1231491363 -1168216104 838865767 1210092497 -374803151 -765806666 -1871314978 1467747293 -1513631047 -1552230139 330461745 -601982754 1616226472 -1995454557 832801563 684739651 855482846 -1818485322 719793046 -1558072958 -1865027365 -1564104924 -387165174 -1197510229 -2143760006 -1983979860 1238948283 -1303442553 862485495 -267329649 -274205027
REM
CELL 1.54180   50.00000   50.00000   50.00000   90.00000   90.00000   90.00000
LATT -1
SFAC C  
C      1  0.5677540000000  0.4991180000000  0.5161100000000 1.0
C      1  0.5296600000000  0.4311540000000  0.4583810000000 1.0
C      1  0.4963410000000  0.5633830000000  0.5059090000000 1.0
C      1  0.4726280000000  0.5499300000000  0.5372850000000 1.0
C      1  0.4554650000000  0.4714410000000  0.5286210000000 1.0
C      1  0.5504250000000  0.5089430000000  0.5336270000000 1.0
C      1  0.4490060000000  0.5389720000000  0.4983680000000 1.0
C      1  0.4354550000000  0.4903890000000  0.5171290000000 1.0
C      1  0.4632890000000  0.5245980000000  0.5429680000000 1.0
C      1  0.5377010000000  0.5408070000000  0.4977360000000 1.0
C      1  0.5308230000000  0.4742360000000  0.4368270000000 1.0
C      1  0.5155410000000  0.5559120000000  0.4872270000000 1.0
C      1  0.5138040000000  0.4963590000000  0.4438360000000 1.0
C      1  0.5026350000000  0.5127440000000  0.5060420000000 1.0
C      1  0.5482900000000  0.4927070000000  0.4943950000000 1.0
C      1  0.4957610000000  0.4585750000000  0.5505350000000 1.0
C      1  0.4882330000000  0.5109100000000  0.4801320000000 1.0
C      1  0.5174110000000  0.4427740000000  0.5041920000000 1.0
C      1  0.5257740000000  0.5207960000000  0.4567200000000 1.0
C      1  0.5393620000000  0.5337670000000  0.5258370000000 1.0
C      1  0.4756010000000  0.5012560000000  0.5045480000000 1.0
C      1  0.4615870000000  0.4829260000000  0.4562710000000 1.0
C      1  0.5022660000000  0.4664180000000  0.5023750000000 1.0
C      1  0.5227870000000  0.4650270000000  0.5514390000000 1.0
C      1  0.4339770000000  0.4859480000000  0.4885130000000 1.0
C      1  0.4523130000000  0.5297950000000  0.4707920000000 1.0
C      1  0.5270260000000  0.4923120000000  0.5426900000000 1.0
C      1  0.4875720000000  0.4948280000000  0.4551320000000 1.0
C      1  0.4808720000000  0.5049460000000  0.5544740000000 1.0
C      1  0.5189630000000  0.4900860000000  0.5099630000000 1.0
C      1  0.4496530000000  0.5156770000000  0.5183270000000 1.0
C      1  0.5063980000000  0.5425080000000  0.4628350000000 1.0
C      1  0.4741620000000  0.4774210000000  0.5495900000000 1.0
C      1  0.4680470000000  0.5567700000000  0.5083850000000 1.0
C      1  0.5173100000000  0.5372900000000  0.5427360000000 1.0
C      1  0.4546180000000  0.4672700000000  0.4800630000000 1.0
C      1  0.5145390000000  0.4447220000000  0.5325430000000 1.0
C      1  0.5562600000000  0.4746110000000  0.4497700000000 1.0
C      1  0.5254830000000  0.4464850000000  0.4379990000000 1.0
C      1  0.5522840000000  0.4694040000000  0.4768570000000 1.0
C      1  0.5360020000000  0.4436030000000  0.4826640000000 1.0
C      1  0.5433810000000  0.5192100000000  0.4791400000000 1.0
C      1  0.5083920000000  0.5118760000000  0.5532720000000 1.0
C      1  0.4996450000000  0.5566130000000  0.5348350000000 1.0
C      1  0.4798820000000  0.5323160000000  0.4619610000000 1.0
C      1  0.4731470000000  0.4700510000000  0.5036820000000 1.0
C      1  0.4424730000000  0.5031180000000  0.4672650000000 1.0
END
