TITL C-136395-9186-7 0.0518452982568722 125000 -239.583202458635 0 0 37 (C1) n - 1
REM
REM in /rds/project/t2_vol4/rds-t2-cs072/BORA/CARBON/from-Arr/AIRSS/Generating-Clusters/GAP-ML-2020/Only-C1/SD-CG/HFTN-CG
REM
REM
REM
REM
REM
REM ./C.cell (11c1c37f851c82e70ff6c80c92926a4b)
REM AIRSS Version 0.9.1 bugfix July 2018 build 013d7b7c2542+ Fri, 06 Jul 2018 19:26:36 +0100
REM compiler GCC version 9.3.0
REM options -cpp -mtune=generic -march=x86-64 -g -O0
REM seed -1925413989 -188994299 -73809344 41142699 1317675201 -2144899084 -2039488324 1004311098 1651709885 964370099 1445422842 907213998 1308054180 -1263818398 -963281980 1313559167 748344819 1689599629 1744786534 595396122 -2085001588 -380822283 841278196 -317076428 218276585 -137379351 148459231 -1312512162 -1198692493 -1346271492 -1626852504 427710244 276974963
REM
CELL 1.54180   50.00000   50.00000   50.00000   90.00000   90.00000   90.00000
LATT -1
SFAC C  
C      1  0.5105180000000  0.5444910000000  0.5245940000000 1.0
C      1  0.4737890000000  0.4513970000000  0.5274930000000 1.0
C      1  0.5740980000000  0.4962360000000  0.5106150000000 1.0
C      1  0.5272510000000  0.4564510000000  0.4758070000000 1.0
C      1  0.5182450000000  0.4879030000000  0.4719670000000 1.0
C      1  0.4715780000000  0.5396680000000  0.4764910000000 1.0
C      1  0.5419400000000  0.4413710000000  0.4595820000000 1.0
C      1  0.5157260000000  0.4480600000000  0.5019700000000 1.0
C      1  0.4533580000000  0.5367990000000  0.4994000000000 1.0
C      1  0.5434900000000  0.5087150000000  0.4253710000000 1.0
C      1  0.4480430000000  0.4653000000000  0.4780630000000 1.0
C      1  0.4895090000000  0.5612710000000  0.5138460000000 1.0
C      1  0.5146910000000  0.5094080000000  0.5596850000000 1.0
C      1  0.4754630000000  0.4652310000000  0.4815180000000 1.0
C      1  0.4886040000000  0.4881470000000  0.4708190000000 1.0
C      1  0.5011290000000  0.5299010000000  0.5477270000000 1.0
C      1  0.4723600000000  0.5107400000000  0.4739880000000 1.0
C      1  0.5491780000000  0.4893910000000  0.5156750000000 1.0
C      1  0.5203870000000  0.5491460000000  0.4792280000000 1.0
C      1  0.4926290000000  0.5577340000000  0.4843820000000 1.0
C      1  0.5144070000000  0.4862430000000  0.5453900000000 1.0
C      1  0.4875970000000  0.4498030000000  0.5033310000000 1.0
C      1  0.5240500000000  0.5014660000000  0.5014880000000 1.0
C      1  0.4572260000000  0.4728700000000  0.5326230000000 1.0
C      1  0.4656290000000  0.5475060000000  0.5223560000000 1.0
C      1  0.4549130000000  0.5073160000000  0.4989850000000 1.0
C      1  0.4362560000000  0.4840550000000  0.4954540000000 1.0
C      1  0.5011190000000  0.4915130000000  0.5204320000000 1.0
C      1  0.5410470000000  0.5275980000000  0.4455900000000 1.0
C      1  0.5315350000000  0.4998210000000  0.4491300000000 1.0
C      1  0.5295420000000  0.4457060000000  0.5262740000000 1.0
C      1  0.4739120000000  0.5250170000000  0.5390450000000 1.0
C      1  0.5217090000000  0.5304830000000  0.5020420000000 1.0
C      1  0.5383440000000  0.5503810000000  0.4591520000000 1.0
C      1  0.4321190000000  0.4733410000000  0.5213730000000 1.0
C      1  0.5370960000000  0.4700530000000  0.5350340000000 1.0
C      1  0.4715130000000  0.4994710000000  0.5240810000000 1.0
END
