TITL C-134891-4565-5 39.0571701755872 125000 -135.861089498187 0 0 21 (C1) n - 1
REM
REM in /rds/project/t2_vol4/rds-t2-cs072/BORA/CARBON/from-Arr/AIRSS/Generating-Clusters/GAP-ML-2020/Only-C1/SD-CG/HFTN-CG
REM
REM
REM
REM
REM
REM ./C.cell (11c1c37f851c82e70ff6c80c92926a4b)
REM AIRSS Version 0.9.1 bugfix July 2018 build 013d7b7c2542+ Fri, 06 Jul 2018 19:26:36 +0100
REM compiler GCC version 9.3.0
REM options -cpp -mtune=generic -march=x86-64 -g -O0
REM seed 1576801103 -1419891884 -760775734 -1122551269 -1577265864 -12937905 -1153252117 -1113855310 2002682284 893984725 134790425 -134402689 1258711180 -64134455 12669624 986191527 -1032523907 397784937 -104023985 951332142 -504512482 262077276 1040481993 771862147 1494980066 2020842533 1895406622 -972042229 -862160741 -370397344 1178380817 920426593 1524962877
REM
CELL 1.54180   50.00000   50.00000   50.00000   90.00000   90.00000   90.00000
LATT -1
SFAC C  
C      1  0.5256640000000  0.4652990000000  0.5395030000000 1.0
C      1  0.4585190000000  0.4673450000000  0.5281570000000 1.0
C      1  0.4847310000000  0.5239960000000  0.4599060000000 1.0
C      1  0.5470190000000  0.5158570000000  0.5027600000000 1.0
C      1  0.5421880000000  0.4823420000000  0.5268120000000 1.0
C      1  0.4695560000000  0.5683730000000  0.5281400000000 1.0
C      1  0.5337070000000  0.5110350000000  0.4601240000000 1.0
C      1  0.5474170000000  0.4873010000000  0.4979380000000 1.0
C      1  0.4636090000000  0.5489890000000  0.5122540000000 1.0
C      1  0.4769740000000  0.4542370000000  0.5418790000000 1.0
C      1  0.4715890000000  0.5014590000000  0.4703160000000 1.0
C      1  0.5027850000000  0.4553260000000  0.5448920000000 1.0
C      1  0.5339340000000  0.4845970000000  0.4725160000000 1.0
C      1  0.4517170000000  0.5287410000000  0.5024260000000 1.0
C      1  0.5109830000000  0.5265520000000  0.4642060000000 1.0
C      1  0.4497420000000  0.4838260000000  0.5113690000000 1.0
C      1  0.5449710000000  0.5113790000000  0.5303350000000 1.0
C      1  0.5107720000000  0.4707800000000  0.4666820000000 1.0
C      1  0.4870010000000  0.4789660000000  0.4650700000000 1.0
C      1  0.5341060000000  0.5297380000000  0.4819520000000 1.0
C      1  0.4530170000000  0.5038620000000  0.4927630000000 1.0
END
