TITL C-130735-6951-7 67.6248471354671 125000 -509.724026124841 0 0 74 (C1) n - 1
REM
REM in /rds/project/t2_vol4/rds-t2-cs072/BORA/CARBON/from-Arr/AIRSS/Generating-Clusters/GAP-ML-2020/Only-C1/SD-CG/HFTN-CG
REM
REM
REM
REM
REM
REM ./C.cell (11c1c37f851c82e70ff6c80c92926a4b)
REM AIRSS Version 0.9.1 bugfix July 2018 build 013d7b7c2542+ Fri, 06 Jul 2018 19:26:36 +0100
REM compiler GCC version 9.3.0
REM options -cpp -mtune=generic -march=x86-64 -g -O0
REM seed -482253497 -1527692286 142388613 -961322123 -74464751 308595492 947110734 164760042 1821287693 429522715 -2059752466 -1899302904 520146028 142175487 -380826126 -1255928434 -612158917 1390233801 -1721303285 1773667499 -200103123 331256973 1814599348 -1330396305 -818840966 1005667551 -1491357778 26649381 1163076513 -116179902 1298916282 -2080089312 2102858077
REM
CELL 1.54180   50.00000   50.00000   50.00000   90.00000   90.00000   90.00000
LATT -1
SFAC C  
C      1  0.4576570000000  0.5573600000000  0.4790530000000 1.0
C      1  0.4901920000000  0.4728720000000  0.5596720000000 1.0
C      1  0.4737160000000  0.4347220000000  0.4898200000000 1.0
C      1  0.5306900000000  0.5565720000000  0.4672780000000 1.0
C      1  0.5111070000000  0.4548360000000  0.5503780000000 1.0
C      1  0.4949820000000  0.5110810000000  0.4332680000000 1.0
C      1  0.5534850000000  0.4495910000000  0.4627690000000 1.0
C      1  0.5512840000000  0.4950070000000  0.5141360000000 1.0
C      1  0.4559760000000  0.4384970000000  0.5122850000000 1.0
C      1  0.4648840000000  0.4620980000000  0.5508380000000 1.0
C      1  0.4766750000000  0.4886760000000  0.4366210000000 1.0
C      1  0.5294220000000  0.5147630000000  0.5193810000000 1.0
C      1  0.5302340000000  0.4699590000000  0.4234500000000 1.0
C      1  0.5691810000000  0.4578000000000  0.5051330000000 1.0
C      1  0.5768580000000  0.5053520000000  0.5014110000000 1.0
C      1  0.5152220000000  0.4728540000000  0.4912610000000 1.0
C      1  0.4894080000000  0.5492970000000  0.5505420000000 1.0
C      1  0.4549710000000  0.4955120000000  0.4779760000000 1.0
C      1  0.5392840000000  0.4649950000000  0.5509700000000 1.0
C      1  0.4209370000000  0.5202900000000  0.4667430000000 1.0
C      1  0.4497210000000  0.4923710000000  0.4476000000000 1.0
C      1  0.4269020000000  0.5150820000000  0.5148050000000 1.0
C      1  0.4321520000000  0.5440350000000  0.4777030000000 1.0
C      1  0.4509740000000  0.5189960000000  0.5582300000000 1.0
C      1  0.4949970000000  0.4845090000000  0.5066870000000 1.0
C      1  0.5369750000000  0.5342660000000  0.5628570000000 1.0
C      1  0.4852160000000  0.4622350000000  0.4449710000000 1.0
C      1  0.4276800000000  0.5090580000000  0.4425620000000 1.0
C      1  0.5429820000000  0.4902330000000  0.4379070000000 1.0
C      1  0.5559550000000  0.4796080000000  0.4644580000000 1.0
C      1  0.4951790000000  0.5247890000000  0.4874750000000 1.0
C      1  0.5222710000000  0.5402440000000  0.4452110000000 1.0
C      1  0.5880190000000  0.5308690000000  0.5101010000000 1.0
C      1  0.4813530000000  0.5570370000000  0.5228440000000 1.0
C      1  0.5033940000000  0.5060860000000  0.5275660000000 1.0
C      1  0.4330070000000  0.5417160000000  0.5071060000000 1.0
C      1  0.4819340000000  0.4990870000000  0.4867290000000 1.0
C      1  0.5219400000000  0.4424570000000  0.4881040000000 1.0
C      1  0.5244540000000  0.5124230000000  0.4360150000000 1.0
C      1  0.5631510000000  0.5394280000000  0.5550580000000 1.0
C      1  0.5788140000000  0.4807380000000  0.4860730000000 1.0
C      1  0.5065050000000  0.5663910000000  0.4807720000000 1.0
C      1  0.5497830000000  0.5577170000000  0.5138740000000 1.0
C      1  0.4564420000000  0.5585880000000  0.5085140000000 1.0
C      1  0.5000550000000  0.4296870000000  0.5028260000000 1.0
C      1  0.4844730000000  0.5494580000000  0.4697040000000 1.0
C      1  0.5474620000000  0.5437610000000  0.4874510000000 1.0
C      1  0.5734970000000  0.5309370000000  0.4869100000000 1.0
C      1  0.4676990000000  0.4497150000000  0.4650560000000 1.0
C      1  0.4984070000000  0.4349580000000  0.5320440000000 1.0
C      1  0.4978380000000  0.5024400000000  0.5588560000000 1.0
C      1  0.5256770000000  0.5200680000000  0.4907850000000 1.0
C      1  0.5255420000000  0.5078130000000  0.5703640000000 1.0
C      1  0.4769750000000  0.5248940000000  0.5619470000000 1.0
C      1  0.5173120000000  0.5518660000000  0.5505110000000 1.0
C      1  0.4707990000000  0.4385640000000  0.5364550000000 1.0
C      1  0.5407300000000  0.4855220000000  0.5701770000000 1.0
C      1  0.4214940000000  0.4704070000000  0.4845640000000 1.0
C      1  0.4257830000000  0.5006090000000  0.4893300000000 1.0
C      1  0.5698500000000  0.5447610000000  0.5292070000000 1.0
C      1  0.5041750000000  0.5703740000000  0.5090580000000 1.0
C      1  0.4367920000000  0.5034540000000  0.5394520000000 1.0
C      1  0.5566090000000  0.4694060000000  0.5281530000000 1.0
C      1  0.4936930000000  0.5389700000000  0.4429230000000 1.0
C      1  0.4331430000000  0.4562220000000  0.5166630000000 1.0
C      1  0.5358060000000  0.4911520000000  0.4861520000000 1.0
C      1  0.5524890000000  0.4418120000000  0.4904140000000 1.0
C      1  0.4418160000000  0.4743400000000  0.5384850000000 1.0
C      1  0.5121490000000  0.4542590000000  0.4385780000000 1.0
C      1  0.4873740000000  0.5280510000000  0.5148440000000 1.0
C      1  0.4452780000000  0.4677050000000  0.4665830000000 1.0
C      1  0.5256750000000  0.5652840000000  0.5260100000000 1.0
C      1  0.4087580000000  0.4526370000000  0.5019330000000 1.0
C      1  0.5266870000000  0.4407810000000  0.4583580000000 1.0
END
