TITL C-131258-6716-8 29.999040419204 125000 -471.66035201423 0 0 67 (C1) n - 1
REM
REM in /rds/project/t2_vol4/rds-t2-cs072/BORA/CARBON/from-Arr/AIRSS/Generating-Clusters/GAP-ML-2020/Only-C1/SD-CG/HFTN-CG
REM
REM
REM
REM
REM
REM ./C.cell (11c1c37f851c82e70ff6c80c92926a4b)
REM AIRSS Version 0.9.1 bugfix July 2018 build 013d7b7c2542+ Fri, 06 Jul 2018 19:26:36 +0100
REM compiler GCC version 9.3.0
REM options -cpp -mtune=generic -march=x86-64 -g -O0
REM seed 237357062 971331001 -1103562167 1282309016 -1226347338 1481965313 -515546270 -2013131969 239532105 -2019429319 -1696223695 1845571034 207625149 2062787887 -1236000669 -1380798125 -450066286 -1298552575 -66252230 399825109 -353829623 898853406 -1667293264 -1721682094 -845712464 1533732421 806972587 -2134981320 2055081085 -1065301005 -2064219034 -1057891695 917521733
REM
CELL 1.54180   50.00000   50.00000   50.00000   90.00000   90.00000   90.00000
LATT -1
SFAC C  
C      1  0.5637770000000  0.4678400000000  0.4921920000000 1.0
C      1  0.4996850000000  0.4603240000000  0.5556220000000 1.0
C      1  0.5426470000000  0.5093390000000  0.4492680000000 1.0
C      1  0.5213050000000  0.5254370000000  0.4922910000000 1.0
C      1  0.5387510000000  0.4809920000000  0.4461340000000 1.0
C      1  0.4458770000000  0.5429990000000  0.5160920000000 1.0
C      1  0.4436920000000  0.4942080000000  0.4574360000000 1.0
C      1  0.4803370000000  0.5491200000000  0.4727330000000 1.0
C      1  0.5233070000000  0.4994450000000  0.5685680000000 1.0
C      1  0.5503730000000  0.4525240000000  0.5130450000000 1.0
C      1  0.4849880000000  0.4424080000000  0.5370990000000 1.0
C      1  0.4973820000000  0.5197010000000  0.4285850000000 1.0
C      1  0.4739690000000  0.4730450000000  0.5624750000000 1.0
C      1  0.5514060000000  0.4630580000000  0.4657210000000 1.0
C      1  0.5258970000000  0.4725710000000  0.5569900000000 1.0
C      1  0.4356460000000  0.4739470000000  0.4761540000000 1.0
C      1  0.5381800000000  0.4389620000000  0.4705590000000 1.0
C      1  0.5570970000000  0.5230670000000  0.4709990000000 1.0
C      1  0.5239110000000  0.5527730000000  0.4562140000000 1.0
C      1  0.4721180000000  0.5000950000000  0.5698700000000 1.0
C      1  0.4267720000000  0.5054520000000  0.5121350000000 1.0
C      1  0.4937440000000  0.5241060000000  0.4847580000000 1.0
C      1  0.4693260000000  0.5564680000000  0.5284240000000 1.0
C      1  0.5660200000000  0.4900090000000  0.5333250000000 1.0
C      1  0.5420890000000  0.5513960000000  0.5088880000000 1.0
C      1  0.4555300000000  0.5207990000000  0.5567790000000 1.0
C      1  0.4376350000000  0.5214640000000  0.5344360000000 1.0
C      1  0.5347490000000  0.4333420000000  0.4992830000000 1.0
C      1  0.4971910000000  0.5386050000000  0.5659460000000 1.0
C      1  0.5705360000000  0.5163450000000  0.4950820000000 1.0
C      1  0.5598980000000  0.5172170000000  0.5406830000000 1.0
C      1  0.5385720000000  0.5217200000000  0.5578600000000 1.0
C      1  0.4527360000000  0.4512630000000  0.4726780000000 1.0
C      1  0.5214180000000  0.5445620000000  0.5527810000000 1.0
C      1  0.4345930000000  0.5265530000000  0.4932530000000 1.0
C      1  0.5064370000000  0.4271800000000  0.4945520000000 1.0
C      1  0.5205960000000  0.5587940000000  0.5278290000000 1.0
C      1  0.5220450000000  0.5282300000000  0.4408760000000 1.0
C      1  0.5404420000000  0.5458090000000  0.4788560000000 1.0
C      1  0.5034540000000  0.5057600000000  0.5272790000000 1.0
C      1  0.4609500000000  0.5397540000000  0.4532830000000 1.0
C      1  0.5107590000000  0.4335930000000  0.4655260000000 1.0
C      1  0.4943850000000  0.5663770000000  0.5164520000000 1.0
C      1  0.4597470000000  0.4561910000000  0.5427370000000 1.0
C      1  0.4698190000000  0.4560000000000  0.4500060000000 1.0
C      1  0.5160370000000  0.4808240000000  0.4895870000000 1.0
C      1  0.4978790000000  0.4498610000000  0.4468750000000 1.0
C      1  0.4937370000000  0.4933170000000  0.4771480000000 1.0
C      1  0.4930950000000  0.5722000000000  0.4892120000000 1.0
C      1  0.4652770000000  0.4822960000000  0.4403420000000 1.0
C      1  0.4439870000000  0.4568200000000  0.5183880000000 1.0
C      1  0.4914950000000  0.4915740000000  0.4297070000000 1.0
C      1  0.5623720000000  0.5332190000000  0.5170900000000 1.0
C      1  0.5013900000000  0.5674210000000  0.4638710000000 1.0
C      1  0.4835480000000  0.4310190000000  0.5103340000000 1.0
C      1  0.5480620000000  0.4680100000000  0.5384010000000 1.0
C      1  0.5742080000000  0.4904660000000  0.5051230000000 1.0
C      1  0.4720410000000  0.5444110000000  0.5543060000000 1.0
C      1  0.5254970000000  0.5010980000000  0.5084140000000 1.0
C      1  0.4742740000000  0.5348310000000  0.4297270000000 1.0
C      1  0.4810470000000  0.5117930000000  0.5117940000000 1.0
C      1  0.4759170000000  0.4869900000000  0.4980880000000 1.0
C      1  0.4978940000000  0.5113340000000  0.5750060000000 1.0
C      1  0.4421580000000  0.5216670000000  0.4659140000000 1.0
C      1  0.4584330000000  0.4411490000000  0.4989280000000 1.0
C      1  0.5122250000000  0.4725980000000  0.4357640000000 1.0
C      1  0.4296400000000  0.4782550000000  0.5042260000000 1.0
END
