TITL C-130736-6819-6 -0.13183721326644 125000 -362.711373159795 0 0 53 (C1) n - 1
REM
REM in /rds/project/t2_vol4/rds-t2-cs072/BORA/CARBON/from-Arr/AIRSS/Generating-Clusters/GAP-ML-2020/Only-C1/SD-CG/HFTN-CG
REM
REM
REM
REM
REM
REM ./C.cell (11c1c37f851c82e70ff6c80c92926a4b)
REM AIRSS Version 0.9.1 bugfix July 2018 build 013d7b7c2542+ Fri, 06 Jul 2018 19:26:36 +0100
REM compiler GCC version 9.3.0
REM options -cpp -mtune=generic -march=x86-64 -g -O0
REM seed -1678214639 1159683990 1596022623 101237111 -1062197104 -853642356 1780283153 -1229768179 -1548729800 -1659295352 -310822851 -946630681 954489311 1507076504 457023955 -1093661177 1814773022 1619820579 -759855246 1592525912 -571500971 1280439701 -1208175413 -943083378 608064412 629150938 1610740654 -1093722191 476249503 -1866946637 -1930281060 2107873748 189357515
REM
CELL 1.54180   50.00000   50.00000   50.00000   90.00000   90.00000   90.00000
LATT -1
SFAC C  
C      1  0.5170470000000  0.5107820000000  0.5597700000000 1.0
C      1  0.4885710000000  0.5526730000000  0.4728020000000 1.0
C      1  0.5116580000000  0.5598380000000  0.5121030000000 1.0
C      1  0.4590510000000  0.4500510000000  0.4654100000000 1.0
C      1  0.4446470000000  0.5092200000000  0.5057830000000 1.0
C      1  0.5337990000000  0.5007310000000  0.4470180000000 1.0
C      1  0.4573850000000  0.4868730000000  0.4943440000000 1.0
C      1  0.4490440000000  0.4848230000000  0.4379800000000 1.0
C      1  0.5305120000000  0.4738010000000  0.4371280000000 1.0
C      1  0.4862560000000  0.5133990000000  0.4490480000000 1.0
C      1  0.4706880000000  0.4675700000000  0.5396840000000 1.0
C      1  0.5330420000000  0.4877080000000  0.5571310000000 1.0
C      1  0.4510850000000  0.4587070000000  0.4917910000000 1.0
C      1  0.5299510000000  0.5460290000000  0.4940170000000 1.0
C      1  0.5209270000000  0.4531560000000  0.4938550000000 1.0
C      1  0.4593900000000  0.5392880000000  0.5364240000000 1.0
C      1  0.5359250000000  0.4438300000000  0.5346360000000 1.0
C      1  0.4357970000000  0.5097100000000  0.4352410000000 1.0
C      1  0.4680720000000  0.4952430000000  0.5488970000000 1.0
C      1  0.5570610000000  0.5017350000000  0.4938480000000 1.0
C      1  0.4796440000000  0.5393010000000  0.5555620000000 1.0
C      1  0.4875260000000  0.4918720000000  0.4983000000000 1.0
C      1  0.4414470000000  0.4589080000000  0.4463030000000 1.0
C      1  0.4531340000000  0.5326110000000  0.4919550000000 1.0
C      1  0.5128840000000  0.5553710000000  0.5401970000000 1.0
C      1  0.4550840000000  0.4582850000000  0.5182380000000 1.0
C      1  0.5506660000000  0.5286680000000  0.5038010000000 1.0
C      1  0.5534980000000  0.4918410000000  0.4674410000000 1.0
C      1  0.4882110000000  0.5119600000000  0.5609170000000 1.0
C      1  0.4861710000000  0.5620990000000  0.4995170000000 1.0
C      1  0.4766520000000  0.4880430000000  0.4438860000000 1.0
C      1  0.5736970000000  0.5147060000000  0.5452960000000 1.0
C      1  0.5134730000000  0.5198500000000  0.4515990000000 1.0
C      1  0.5124870000000  0.4536970000000  0.4462370000000 1.0
C      1  0.4439200000000  0.5322670000000  0.4434680000000 1.0
C      1  0.5581740000000  0.4927140000000  0.5421160000000 1.0
C      1  0.5297890000000  0.5342060000000  0.5481240000000 1.0
C      1  0.4959610000000  0.4548180000000  0.5409720000000 1.0
C      1  0.5515510000000  0.4645940000000  0.4579540000000 1.0
C      1  0.5465880000000  0.4576660000000  0.5125080000000 1.0
C      1  0.5536280000000  0.5293250000000  0.5328560000000 1.0
C      1  0.5318800000000  0.4451930000000  0.4670070000000 1.0
C      1  0.4507190000000  0.5127560000000  0.5336900000000 1.0
C      1  0.4950960000000  0.5129910000000  0.5128930000000 1.0
C      1  0.5150220000000  0.5427830000000  0.4690640000000 1.0
C      1  0.5106300000000  0.4397010000000  0.5199440000000 1.0
C      1  0.4670590000000  0.5339230000000  0.4638310000000 1.0
C      1  0.4932210000000  0.5621990000000  0.5581220000000 1.0
C      1  0.4877200000000  0.4645790000000  0.4589430000000 1.0
C      1  0.5585960000000  0.4822300000000  0.5151120000000 1.0
C      1  0.4626730000000  0.5512480000000  0.5106080000000 1.0
C      1  0.5014290000000  0.4722290000000  0.4841090000000 1.0
C      1  0.5218640000000  0.4621990000000  0.5525200000000 1.0
END
