TITL C-130742-6860-4 44.9424215258357 125000 -803.893656695781 0 0 114 (C1) n - 1
REM
REM in /rds/project/t2_vol4/rds-t2-cs072/BORA/CARBON/from-Arr/AIRSS/Generating-Clusters/GAP-ML-2020/Only-C1/SD-CG/HFTN-CG
REM
REM
REM
REM
REM
REM ./C.cell (11c1c37f851c82e70ff6c80c92926a4b)
REM AIRSS Version 0.9.1 bugfix July 2018 build 013d7b7c2542+ Fri, 06 Jul 2018 19:26:36 +0100
REM compiler GCC version 9.3.0
REM options -cpp -mtune=generic -march=x86-64 -g -O0
REM seed -671788209 315294283 1243218421 1966760966 1814883134 2032719059 -1147361235 1922586200 1335326249 1394093847 1241900958 -1572085333 813403775 62516967 -1223145883 1886017622 -958520569 541738692 -385620031 -1846721442 1423638682 488223126 1961336901 -103501755 -39305643 -1798106089 -860529965 -1047440620 -549663196 -1701693248 2059684350 -507616053 -495221057
REM
CELL 1.54180   50.00000   50.00000   50.00000   90.00000   90.00000   90.00000
LATT -1
SFAC C  
C      1  0.4379560000000  0.4372170000000  0.5254840000000 1.0
C      1  0.5659200000000  0.5212460000000  0.5624080000000 1.0
C      1  0.4929830000000  0.4952440000000  0.5782020000000 1.0
C      1  0.4306070000000  0.4635540000000  0.5615110000000 1.0
C      1  0.4569620000000  0.4313060000000  0.5470080000000 1.0
C      1  0.4248540000000  0.4910480000000  0.5607610000000 1.0
C      1  0.5363940000000  0.5063520000000  0.4799070000000 1.0
C      1  0.4393010000000  0.4325270000000  0.4763810000000 1.0
C      1  0.4341160000000  0.5519380000000  0.4897060000000 1.0
C      1  0.4710780000000  0.5129270000000  0.5734630000000 1.0
C      1  0.4080240000000  0.4992860000000  0.5382760000000 1.0
C      1  0.4494430000000  0.5975290000000  0.4877530000000 1.0
C      1  0.5805050000000  0.5116100000000  0.5378070000000 1.0
C      1  0.5848420000000  0.5136600000000  0.4457290000000 1.0
C      1  0.5192360000000  0.4619740000000  0.4993820000000 1.0
C      1  0.4278120000000  0.4689520000000  0.4486080000000 1.0
C      1  0.4814140000000  0.5274650000000  0.5029590000000 1.0
C      1  0.4658400000000  0.4642900000000  0.4208040000000 1.0
C      1  0.5309360000000  0.4872500000000  0.5016420000000 1.0
C      1  0.4170780000000  0.4531140000000  0.5387360000000 1.0
C      1  0.5480860000000  0.4274990000000  0.5209650000000 1.0
C      1  0.5068760000000  0.4449700000000  0.5613970000000 1.0
C      1  0.4893430000000  0.5838250000000  0.5255840000000 1.0
C      1  0.5202890000000  0.4482380000000  0.4726880000000 1.0
C      1  0.5862690000000  0.5035810000000  0.4920160000000 1.0
C      1  0.4775450000000  0.4155710000000  0.5370010000000 1.0
C      1  0.5629650000000  0.5269900000000  0.4376920000000 1.0
C      1  0.4444880000000  0.5423910000000  0.4637890000000 1.0
C      1  0.5464030000000  0.4796790000000  0.5561200000000 1.0
C      1  0.5020240000000  0.5283120000000  0.5219980000000 1.0
C      1  0.5205590000000  0.5830440000000  0.4855710000000 1.0
C      1  0.4581870000000  0.4925950000000  0.4215960000000 1.0
C      1  0.4468720000000  0.4664970000000  0.5143870000000 1.0
C      1  0.5691220000000  0.4613020000000  0.5475810000000 1.0
C      1  0.5217120000000  0.5632260000000  0.5663820000000 1.0
C      1  0.4750910000000  0.4849880000000  0.4830260000000 1.0
C      1  0.5693440000000  0.4421270000000  0.5046840000000 1.0
C      1  0.4227830000000  0.4770040000000  0.4974530000000 1.0
C      1  0.5888400000000  0.4911830000000  0.5182680000000 1.0
C      1  0.4904920000000  0.4492060000000  0.4264860000000 1.0
C      1  0.5579720000000  0.5500740000000  0.4824710000000 1.0
C      1  0.5557420000000  0.5512970000000  0.4523180000000 1.0
C      1  0.4490200000000  0.5065990000000  0.5552890000000 1.0
C      1  0.5814280000000  0.4629100000000  0.5223290000000 1.0
C      1  0.4340420000000  0.5157420000000  0.4606410000000 1.0
C      1  0.4626510000000  0.5057340000000  0.5015740000000 1.0
C      1  0.4835090000000  0.4304550000000  0.4483350000000 1.0
C      1  0.4163420000000  0.5261270000000  0.5301280000000 1.0
C      1  0.5266540000000  0.5529380000000  0.4900470000000 1.0
C      1  0.5583790000000  0.4707700000000  0.4425980000000 1.0
C      1  0.5299120000000  0.5604760000000  0.4426890000000 1.0
C      1  0.4060440000000  0.4759380000000  0.5226160000000 1.0
C      1  0.5166060000000  0.5130590000000  0.5787810000000 1.0
C      1  0.4586640000000  0.4541220000000  0.5638580000000 1.0
C      1  0.5377240000000  0.4909860000000  0.4539490000000 1.0
C      1  0.4577980000000  0.5536280000000  0.5510210000000 1.0
C      1  0.4848300000000  0.5758240000000  0.4569120000000 1.0
C      1  0.5362390000000  0.5937240000000  0.5287010000000 1.0
C      1  0.4234170000000  0.4578830000000  0.4748500000000 1.0
C      1  0.5215570000000  0.4899590000000  0.4123770000000 1.0
C      1  0.5450180000000  0.5905530000000  0.5032340000000 1.0
C      1  0.5584740000000  0.5489630000000  0.5576910000000 1.0
C      1  0.5912070000000  0.4943620000000  0.4654900000000 1.0
C      1  0.5622000000000  0.5212140000000  0.4917070000000 1.0
C      1  0.5626080000000  0.5679810000000  0.5047780000000 1.0
C      1  0.5347310000000  0.5108940000000  0.4314330000000 1.0
C      1  0.5584130000000  0.5214110000000  0.5213970000000 1.0
C      1  0.5059020000000  0.5408630000000  0.5750660000000 1.0
C      1  0.4996700000000  0.4126590000000  0.4967430000000 1.0
C      1  0.4734040000000  0.4108740000000  0.5091900000000 1.0
C      1  0.4877140000000  0.5332580000000  0.4326280000000 1.0
C      1  0.4705640000000  0.4609500000000  0.4958890000000 1.0
C      1  0.4736140000000  0.5480220000000  0.4543370000000 1.0
C      1  0.4468590000000  0.4212610000000  0.5019370000000 1.0
C      1  0.5522130000000  0.4378510000000  0.5470830000000 1.0
C      1  0.5151570000000  0.5755840000000  0.5378210000000 1.0
C      1  0.5175640000000  0.4615260000000  0.4260170000000 1.0
C      1  0.5226480000000  0.5500680000000  0.5194060000000 1.0
C      1  0.5040170000000  0.4223800000000  0.5432460000000 1.0
C      1  0.5700280000000  0.4454380000000  0.4761520000000 1.0
C      1  0.5136900000000  0.4731080000000  0.4543330000000 1.0
C      1  0.5012450000000  0.4253350000000  0.4704780000000 1.0
C      1  0.4865570000000  0.4676190000000  0.5633030000000 1.0
C      1  0.4208870000000  0.5303080000000  0.5025380000000 1.0
C      1  0.5447160000000  0.5046050000000  0.5728790000000 1.0
C      1  0.5163220000000  0.5336190000000  0.4397700000000 1.0
C      1  0.4601950000000  0.4911520000000  0.5279810000000 1.0
C      1  0.4631220000000  0.5735130000000  0.5301900000000 1.0
C      1  0.4903060000000  0.5370990000000  0.4789560000000 1.0
C      1  0.4883460000000  0.4817190000000  0.5337160000000 1.0
C      1  0.4995750000000  0.4997860000000  0.4018110000000 1.0
C      1  0.5198000000000  0.4178560000000  0.5185810000000 1.0
C      1  0.5459870000000  0.4399480000000  0.4604280000000 1.0
C      1  0.5132010000000  0.5788500000000  0.4567420000000 1.0
C      1  0.5098200000000  0.5030800000000  0.5298230000000 1.0
C      1  0.4954780000000  0.5909850000000  0.4987950000000 1.0
C      1  0.4546410000000  0.4308390000000  0.4520250000000 1.0
C      1  0.4774650000000  0.5402900000000  0.5700830000000 1.0
C      1  0.4787570000000  0.5120120000000  0.4156730000000 1.0
C      1  0.4385740000000  0.5330250000000  0.5472130000000 1.0
C      1  0.5532180000000  0.5492790000000  0.5283180000000 1.0
C      1  0.4888410000000  0.4872140000000  0.4601510000000 1.0
C      1  0.4742850000000  0.5900990000000  0.4799060000000 1.0
C      1  0.5165660000000  0.5297100000000  0.4726940000000 1.0
C      1  0.5804910000000  0.4678150000000  0.4604980000000 1.0
C      1  0.4935640000000  0.4641250000000  0.5106760000000 1.0
C      1  0.4450710000000  0.4509640000000  0.4348030000000 1.0
C      1  0.5374780000000  0.4967500000000  0.5280200000000 1.0
C      1  0.4314550000000  0.5059480000000  0.4889490000000 1.0
C      1  0.5330830000000  0.4528360000000  0.5619000000000 1.0
C      1  0.4468420000000  0.5748160000000  0.5042790000000 1.0
C      1  0.5477540000000  0.5660120000000  0.5764170000000 1.0
C      1  0.5434250000000  0.4487970000000  0.4336490000000 1.0
C      1  0.4361120000000  0.4958130000000  0.4404830000000 1.0
END
