TITL C-136403-9141-2 51.6027474587502 125000 -253.626639793328 0 0 38 (C1) n - 1
REM
REM in /rds/project/t2_vol4/rds-t2-cs072/BORA/CARBON/from-Arr/AIRSS/Generating-Clusters/GAP-ML-2020/Only-C1/SD-CG/HFTN-CG
REM
REM
REM
REM
REM
REM ./C.cell (11c1c37f851c82e70ff6c80c92926a4b)
REM AIRSS Version 0.9.1 bugfix July 2018 build 013d7b7c2542+ Fri, 06 Jul 2018 19:26:36 +0100
REM compiler GCC version 9.3.0
REM options -cpp -mtune=generic -march=x86-64 -g -O0
REM seed -841651358 1495907324 198605897 1426425286 -964375354 -603427370 664151104 1581437417 1147444734 -449059866 105663814 -1809223521 1059675386 135826859 992936288 970960157 -744843673 1410004122 2129715678 -1018391893 -140697659 380776410 570618173 1811503023 -1412798464 1477641228 -940641764 -1091269086 1489657782 1018977599 -1961339876 -2075617441 64418510
REM
CELL 1.54180   50.00000   50.00000   50.00000   90.00000   90.00000   90.00000
LATT -1
SFAC C  
C      1  0.4671310000000  0.4560050000000  0.4906420000000 1.0
C      1  0.5467390000000  0.5148090000000  0.5290890000000 1.0
C      1  0.5016430000000  0.5680820000000  0.4808270000000 1.0
C      1  0.5090160000000  0.5197520000000  0.4553490000000 1.0
C      1  0.5398620000000  0.4897110000000  0.5191210000000 1.0
C      1  0.5227510000000  0.5551790000000  0.4907930000000 1.0
C      1  0.5323860000000  0.4701190000000  0.4605530000000 1.0
C      1  0.4779200000000  0.5515630000000  0.4814580000000 1.0
C      1  0.4433660000000  0.4572900000000  0.5029670000000 1.0
C      1  0.5306770000000  0.4517570000000  0.4807050000000 1.0
C      1  0.4568690000000  0.5506220000000  0.4980610000000 1.0
C      1  0.4729920000000  0.4764310000000  0.4701970000000 1.0
C      1  0.5097700000000  0.5270180000000  0.5002780000000 1.0
C      1  0.5056040000000  0.4962880000000  0.5551550000000 1.0
C      1  0.5335110000000  0.4958320000000  0.4733900000000 1.0
C      1  0.4770200000000  0.5015620000000  0.5501630000000 1.0
C      1  0.4947910000000  0.4877680000000  0.5071030000000 1.0
C      1  0.4845720000000  0.4777070000000  0.4452330000000 1.0
C      1  0.4903730000000  0.5242200000000  0.4780930000000 1.0
C      1  0.5366700000000  0.5214370000000  0.4620290000000 1.0
C      1  0.5133180000000  0.4742480000000  0.4386460000000 1.0
C      1  0.4490420000000  0.4799280000000  0.5170880000000 1.0
C      1  0.5207730000000  0.5169790000000  0.5433970000000 1.0
C      1  0.5103450000000  0.4693460000000  0.5478690000000 1.0
C      1  0.4854100000000  0.4581900000000  0.5384540000000 1.0
C      1  0.5447500000000  0.5396140000000  0.4837240000000 1.0
C      1  0.5307440000000  0.4650200000000  0.5290680000000 1.0
C      1  0.4906350000000  0.4558810000000  0.5095160000000 1.0
C      1  0.4643480000000  0.4780390000000  0.5408300000000 1.0
C      1  0.5016410000000  0.5317140000000  0.5284160000000 1.0
C      1  0.4516700000000  0.5043880000000  0.5033040000000 1.0
C      1  0.5197160000000  0.4498190000000  0.5051830000000 1.0
C      1  0.5214990000000  0.4984160000000  0.4989230000000 1.0
C      1  0.4555270000000  0.5296020000000  0.5156640000000 1.0
C      1  0.4759630000000  0.4998480000000  0.4874320000000 1.0
C      1  0.5013240000000  0.4994470000000  0.4369180000000 1.0
C      1  0.4750350000000  0.5263190000000  0.5363900000000 1.0
C      1  0.5545980000000  0.5300500000000  0.5079720000000 1.0
END
