TITL C-134173-9882-7 -0.0376498433957877 125000 -643.00830776125 0 0 95 (C1) n - 1
REM
REM in /rds/project/t2_vol4/rds-t2-cs072/BORA/CARBON/from-Arr/AIRSS/Generating-Clusters/GAP-ML-2020/Only-C1/SD-CG/HFTN-CG
REM
REM
REM
REM
REM
REM ./C.cell (11c1c37f851c82e70ff6c80c92926a4b)
REM AIRSS Version 0.9.1 bugfix July 2018 build 013d7b7c2542+ Fri, 06 Jul 2018 19:26:36 +0100
REM compiler GCC version 9.3.0
REM options -cpp -mtune=generic -march=x86-64 -g -O0
REM seed 1598554279 -318319952 1816315688 -1184293924 1772117159 -175310097 670726883 1955515762 429098619 -1080287879 -1976428168 1728402508 -578333988 -1525069384 -277850523 -1830086960 -891357897 -589795299 1382687835 -718548286 -637147868 -329599964 -3392366 -573022538 358899550 -727851322 -1207754875 -1707631549 -1848150078 236636167 -174629733 1122284925 1875730744
REM
CELL 1.54180   50.00000   50.00000   50.00000   90.00000   90.00000   90.00000
LATT -1
SFAC C  
C      1  0.5752020000000  0.5128150000000  0.4460930000000 1.0
C      1  0.5355200000000  0.5517660000000  0.4463390000000 1.0
C      1  0.5343400000000  0.5173360000000  0.4973970000000 1.0
C      1  0.4872070000000  0.4904940000000  0.4228990000000 1.0
C      1  0.4380110000000  0.4677620000000  0.4743320000000 1.0
C      1  0.5158840000000  0.4305680000000  0.5351080000000 1.0
C      1  0.4357500000000  0.4803260000000  0.5766760000000 1.0
C      1  0.4630250000000  0.5122650000000  0.5063030000000 1.0
C      1  0.4852400000000  0.5243160000000  0.4911310000000 1.0
C      1  0.5501490000000  0.5779570000000  0.4499120000000 1.0
C      1  0.4594090000000  0.4451490000000  0.5742070000000 1.0
C      1  0.4590020000000  0.4140530000000  0.5346340000000 1.0
C      1  0.4749760000000  0.5124830000000  0.4673500000000 1.0
C      1  0.5316600000000  0.5480090000000  0.4947290000000 1.0
C      1  0.4754060000000  0.4717550000000  0.4411780000000 1.0
C      1  0.4788520000000  0.5891690000000  0.4804710000000 1.0
C      1  0.4803320000000  0.4836340000000  0.4688660000000 1.0
C      1  0.4662450000000  0.4457530000000  0.4421390000000 1.0
C      1  0.5531930000000  0.4766410000000  0.5618580000000 1.0
C      1  0.5153920000000  0.5514110000000  0.4683720000000 1.0
C      1  0.5449190000000  0.5100410000000  0.4710830000000 1.0
C      1  0.4383730000000  0.4583120000000  0.5341680000000 1.0
C      1  0.5571740000000  0.4468720000000  0.5241300000000 1.0
C      1  0.4726620000000  0.4849300000000  0.5152910000000 1.0
C      1  0.5509660000000  0.4501310000000  0.5525600000000 1.0
C      1  0.5614290000000  0.5120290000000  0.4227230000000 1.0
C      1  0.5204260000000  0.5373800000000  0.4249350000000 1.0
C      1  0.5572760000000  0.5339960000000  0.4596910000000 1.0
C      1  0.4701780000000  0.5724590000000  0.5009020000000 1.0
C      1  0.4908490000000  0.5370310000000  0.4310830000000 1.0
C      1  0.4621560000000  0.5675700000000  0.5546090000000 1.0
C      1  0.4178940000000  0.5010290000000  0.4789380000000 1.0
C      1  0.5010200000000  0.4851870000000  0.5751150000000 1.0
C      1  0.5297170000000  0.4923230000000  0.5711070000000 1.0
C      1  0.4692300000000  0.4400300000000  0.4885730000000 1.0
C      1  0.5286010000000  0.4468020000000  0.5138330000000 1.0
C      1  0.4167040000000  0.4755180000000  0.4927100000000 1.0
C      1  0.5015760000000  0.5260360000000  0.4573830000000 1.0
C      1  0.5720030000000  0.4949230000000  0.4731700000000 1.0
C      1  0.4978540000000  0.4368860000000  0.4752640000000 1.0
C      1  0.5238700000000  0.4399070000000  0.4864450000000 1.0
C      1  0.5758300000000  0.4890830000000  0.5190570000000 1.0
C      1  0.5073420000000  0.5064820000000  0.4983170000000 1.0
C      1  0.5005470000000  0.4932290000000  0.5230020000000 1.0
C      1  0.4833050000000  0.4623000000000  0.5636390000000 1.0
C      1  0.5403810000000  0.4433180000000  0.4428770000000 1.0
C      1  0.4662290000000  0.4699590000000  0.4900020000000 1.0
C      1  0.4707250000000  0.4230370000000  0.5582350000000 1.0
C      1  0.4929720000000  0.5173170000000  0.5448590000000 1.0
C      1  0.4732540000000  0.5145720000000  0.4252300000000 1.0
C      1  0.5075360000000  0.4859580000000  0.4767110000000 1.0
C      1  0.5649390000000  0.5207890000000  0.5519930000000 1.0
C      1  0.4524150000000  0.5159440000000  0.4477000000000 1.0
C      1  0.4211950000000  0.4788210000000  0.5204400000000 1.0
C      1  0.4728290000000  0.5325320000000  0.5279540000000 1.0
C      1  0.4337500000000  0.4548430000000  0.5655510000000 1.0
C      1  0.5372820000000  0.5193400000000  0.5641860000000 1.0
C      1  0.5201370000000  0.5020500000000  0.4566120000000 1.0
C      1  0.4318990000000  0.5185290000000  0.4973290000000 1.0
C      1  0.4506440000000  0.5428760000000  0.4586480000000 1.0
C      1  0.4872790000000  0.5702090000000  0.5524340000000 1.0
C      1  0.5335790000000  0.5121890000000  0.4188030000000 1.0
C      1  0.5738550000000  0.4625490000000  0.5081860000000 1.0
C      1  0.5466160000000  0.4474200000000  0.4694900000000 1.0
C      1  0.4447270000000  0.5604880000000  0.5073610000000 1.0
C      1  0.5448920000000  0.4978810000000  0.5174080000000 1.0
C      1  0.5675640000000  0.4656320000000  0.4807210000000 1.0
C      1  0.5782590000000  0.5363520000000  0.5061880000000 1.0
C      1  0.4248110000000  0.5072410000000  0.5247210000000 1.0
C      1  0.4372210000000  0.5449790000000  0.4856700000000 1.0
C      1  0.4741650000000  0.5562110000000  0.4473110000000 1.0
C      1  0.4528140000000  0.4980920000000  0.5612970000000 1.0
C      1  0.4879100000000  0.5499770000000  0.5082130000000 1.0
C      1  0.5122100000000  0.5608790000000  0.5446410000000 1.0
C      1  0.4490470000000  0.5469150000000  0.5372350000000 1.0
C      1  0.5251680000000  0.4778900000000  0.5241280000000 1.0
C      1  0.4501840000000  0.4420350000000  0.4645850000000 1.0
C      1  0.5830990000000  0.5081840000000  0.4983480000000 1.0
C      1  0.4974310000000  0.4362240000000  0.5570830000000 1.0
C      1  0.5186760000000  0.4572650000000  0.4339130000000 1.0
C      1  0.4912310000000  0.5713580000000  0.4637290000000 1.0
C      1  0.5282720000000  0.4339230000000  0.5590850000000 1.0
C      1  0.5718420000000  0.4933140000000  0.5481470000000 1.0
C      1  0.4629660000000  0.4745870000000  0.5412220000000 1.0
C      1  0.5615450000000  0.5519720000000  0.4862410000000 1.0
C      1  0.5766770000000  0.5376890000000  0.5337420000000 1.0
C      1  0.4546910000000  0.4335010000000  0.5162070000000 1.0
C      1  0.4378660000000  0.5197790000000  0.5461000000000 1.0
C      1  0.5144490000000  0.5581440000000  0.5159960000000 1.0
C      1  0.4340270000000  0.4939980000000  0.4569640000000 1.0
C      1  0.5654020000000  0.5769000000000  0.4707300000000 1.0
C      1  0.5157760000000  0.4885970000000  0.4282100000000 1.0
C      1  0.4955110000000  0.4447560000000  0.4472400000000 1.0
C      1  0.4819240000000  0.5045240000000  0.5680640000000 1.0
C      1  0.5154270000000  0.5343160000000  0.5545360000000 1.0
END
