TITL C-134901-4580-1 -27.3259057867103 125000 -254.807571283597 0 0 39 (C1) n - 1
REM
REM in /rds/project/t2_vol4/rds-t2-cs072/BORA/CARBON/from-Arr/AIRSS/Generating-Clusters/GAP-ML-2020/Only-C1/SD-CG/HFTN-CG
REM
REM
REM
REM
REM
REM ./C.cell (11c1c37f851c82e70ff6c80c92926a4b)
REM AIRSS Version 0.9.1 bugfix July 2018 build 013d7b7c2542+ Fri, 06 Jul 2018 19:26:36 +0100
REM compiler GCC version 9.3.0
REM options -cpp -mtune=generic -march=x86-64 -g -O0
REM seed 608759249 198276756 2108158876 -1150070024 433031940 -250561359 1952434666 -1492154779 1951569028 -541923204 1811447924 -944627137 -1308961616 -2096256193 1213804547 1922945106 546915446 -436302934 207871324 395028125 -1945927004 1009246828 1197568320 165345723 1367522987 133363190 -1032254325 -1746601629 -589804701 686206608 2130248634 -285435502 -1611067463
REM
CELL 1.54180   50.00000   50.00000   50.00000   90.00000   90.00000   90.00000
LATT -1
SFAC C  
C      1  0.5311490000000  0.4815070000000  0.4715760000000 1.0
C      1  0.5568760000000  0.5555780000000  0.5043470000000 1.0
C      1  0.5484650000000  0.4847870000000  0.4965070000000 1.0
C      1  0.4757260000000  0.4296310000000  0.4713680000000 1.0
C      1  0.4816550000000  0.5080140000000  0.5488570000000 1.0
C      1  0.5049170000000  0.5352090000000  0.5084750000000 1.0
C      1  0.4601300000000  0.4846420000000  0.5061500000000 1.0
C      1  0.5272610000000  0.5085180000000  0.5282120000000 1.0
C      1  0.4932040000000  0.5340110000000  0.5477320000000 1.0
C      1  0.5229680000000  0.5319490000000  0.5481640000000 1.0
C      1  0.4493910000000  0.4757770000000  0.4597400000000 1.0
C      1  0.4789840000000  0.4973930000000  0.5226590000000 1.0
C      1  0.4580160000000  0.4952850000000  0.4784760000000 1.0
C      1  0.4815630000000  0.5654810000000  0.4774310000000 1.0
C      1  0.4280460000000  0.4607770000000  0.4666340000000 1.0
C      1  0.4873560000000  0.5254310000000  0.4495400000000 1.0
C      1  0.4879110000000  0.4905330000000  0.5698070000000 1.0
C      1  0.4917610000000  0.4507090000000  0.4641810000000 1.0
C      1  0.5412620000000  0.5520580000000  0.5494020000000 1.0
C      1  0.4415270000000  0.4466250000000  0.4873930000000 1.0
C      1  0.5241470000000  0.4469770000000  0.5016720000000 1.0
C      1  0.5166040000000  0.4551760000000  0.4767220000000 1.0
C      1  0.5568730000000  0.5614720000000  0.5300650000000 1.0
C      1  0.4456700000000  0.4614230000000  0.5096980000000 1.0
C      1  0.4783460000000  0.4736190000000  0.4537990000000 1.0
C      1  0.5354980000000  0.4668620000000  0.5160350000000 1.0
C      1  0.5176480000000  0.5318760000000  0.4810580000000 1.0
C      1  0.4852920000000  0.5486900000000  0.5243840000000 1.0
C      1  0.4539240000000  0.4213520000000  0.4820860000000 1.0
C      1  0.5474570000000  0.5100410000000  0.5066950000000 1.0
C      1  0.5338770000000  0.4933910000000  0.4458620000000 1.0
C      1  0.4771250000000  0.5625740000000  0.5033750000000 1.0
C      1  0.5450560000000  0.5345100000000  0.4914420000000 1.0
C      1  0.5096320000000  0.5026370000000  0.4811430000000 1.0
C      1  0.5295370000000  0.4813630000000  0.5406980000000 1.0
C      1  0.4849060000000  0.5009670000000  0.4644500000000 1.0
C      1  0.4972070000000  0.5455800000000  0.4644750000000 1.0
C      1  0.5035660000000  0.5062650000000  0.5109070000000 1.0
C      1  0.5094670000000  0.4813120000000  0.5587830000000 1.0
END
