TITL C-136398-9182-5 -616.696798549485 125000 -769.545363099869 0 0 113 (C1) n - 1
REM
REM in /rds/project/t2_vol4/rds-t2-cs072/BORA/CARBON/from-Arr/AIRSS/Generating-Clusters/GAP-ML-2020/Only-C1/SD-CG/HFTN-CG
REM
REM
REM
REM
REM
REM ./C.cell (11c1c37f851c82e70ff6c80c92926a4b)
REM AIRSS Version 0.9.1 bugfix July 2018 build 013d7b7c2542+ Fri, 06 Jul 2018 19:26:36 +0100
REM compiler GCC version 9.3.0
REM options -cpp -mtune=generic -march=x86-64 -g -O0
REM seed -493380203 -1872417770 -1447544693 -1847553854 -326439159 1520701 1072281524 1581584275 280227586 1108812096 576564088 -443934589 -1655710500 -2135776885 -1870330566 979895513 -1089344085 -255118795 -1340024135 580385048 -1867602883 -689740090 -335638196 -1322868106 -704293594 1783798138 1053336169 1948999646 1253321451 -1828075486 -1687976222 1340727503 -1692090314
REM
CELL 1.54180   50.00000   50.00000   50.00000   90.00000   90.00000   90.00000
LATT -1
SFAC C  
C      1  0.5659550000000  0.4698480000000  0.5993930000000 1.0
C      1  0.5371530000000  0.4208290000000  0.4965420000000 1.0
C      1  0.5136810000000  0.4994630000000  0.5317440000000 1.0
C      1  0.5543090000000  0.5073150000000  0.5001110000000 1.0
C      1  0.5246560000000  0.5220440000000  0.5746290000000 1.0
C      1  0.4547980000000  0.5566290000000  0.5431810000000 1.0
C      1  0.4508790000000  0.5097450000000  0.5169620000000 1.0
C      1  0.4460150000000  0.4258460000000  0.5202050000000 1.0
C      1  0.4955000000000  0.5662920000000  0.5670880000000 1.0
C      1  0.5291060000000  0.4444360000000  0.4417260000000 1.0
C      1  0.5792520000000  0.4896630000000  0.4657870000000 1.0
C      1  0.4846450000000  0.5719990000000  0.4576130000000 1.0
C      1  0.4809850000000  0.4469540000000  0.5609130000000 1.0
C      1  0.5689190000000  0.4535680000000  0.5145960000000 1.0
C      1  0.4557270000000  0.4911090000000  0.4713240000000 1.0
C      1  0.5932330000000  0.5354730000000  0.5076840000000 1.0
C      1  0.4953820000000  0.4230760000000  0.5037960000000 1.0
C      1  0.5522790000000  0.4815740000000  0.4247150000000 1.0
C      1  0.4324570000000  0.4595830000000  0.4445120000000 1.0
C      1  0.5489100000000  0.4433750000000  0.5583220000000 1.0
C      1  0.4176300000000  0.5314800000000  0.5390170000000 1.0
C      1  0.4296310000000  0.5554620000000  0.5292270000000 1.0
C      1  0.5262340000000  0.5518130000000  0.4451920000000 1.0
C      1  0.5905850000000  0.4978140000000  0.5311740000000 1.0
C      1  0.4064750000000  0.4825260000000  0.5203360000000 1.0
C      1  0.5289520000000  0.5064990000000  0.4612790000000 1.0
C      1  0.5166930000000  0.4517340000000  0.4679320000000 1.0
C      1  0.4690370000000  0.5293010000000  0.5293490000000 1.0
C      1  0.4620690000000  0.4606950000000  0.4325170000000 1.0
C      1  0.5190180000000  0.5850230000000  0.4953780000000 1.0
C      1  0.4779460000000  0.4978030000000  0.5665390000000 1.0
C      1  0.5198640000000  0.5059840000000  0.4046190000000 1.0
C      1  0.4632160000000  0.4889090000000  0.5010200000000 1.0
C      1  0.4944320000000  0.5873200000000  0.4802470000000 1.0
C      1  0.4173760000000  0.5108570000000  0.5176890000000 1.0
C      1  0.5570180000000  0.4406500000000  0.4877420000000 1.0
C      1  0.5021960000000  0.4760780000000  0.5175400000000 1.0
C      1  0.5076950000000  0.5590810000000  0.5192330000000 1.0
C      1  0.4799290000000  0.4369170000000  0.4261950000000 1.0
C      1  0.4494100000000  0.5777820000000  0.4879390000000 1.0
C      1  0.5059660000000  0.4992190000000  0.5806010000000 1.0
C      1  0.5649120000000  0.5399020000000  0.4535990000000 1.0
C      1  0.4880400000000  0.5303470000000  0.4861180000000 1.0
C      1  0.5109880000000  0.5875620000000  0.5226290000000 1.0
C      1  0.5525470000000  0.5601100000000  0.5219190000000 1.0
C      1  0.5490940000000  0.4896040000000  0.4772300000000 1.0
C      1  0.4739180000000  0.4845190000000  0.4173440000000 1.0
C      1  0.4145580000000  0.4467370000000  0.4908520000000 1.0
C      1  0.4302510000000  0.5601890000000  0.5003110000000 1.0
C      1  0.5204070000000  0.4732950000000  0.5735770000000 1.0
C      1  0.4174960000000  0.4614280000000  0.5361200000000 1.0
C      1  0.5574160000000  0.4450860000000  0.4542230000000 1.0
C      1  0.5824850000000  0.5195160000000  0.4621620000000 1.0
C      1  0.5203070000000  0.4285130000000  0.5198330000000 1.0
C      1  0.5182610000000  0.5498900000000  0.5646790000000 1.0
C      1  0.5516440000000  0.5081150000000  0.5648460000000 1.0
C      1  0.5251480000000  0.4312420000000  0.5506850000000 1.0
C      1  0.5348540000000  0.4865390000000  0.5493640000000 1.0
C      1  0.4571080000000  0.5672900000000  0.4626750000000 1.0
C      1  0.4289250000000  0.4927800000000  0.5709550000000 1.0
C      1  0.4352040000000  0.4690800000000  0.5568910000000 1.0
C      1  0.4650030000000  0.4680930000000  0.5520790000000 1.0
C      1  0.4282490000000  0.4839110000000  0.4584920000000 1.0
C      1  0.4705800000000  0.4654090000000  0.4611690000000 1.0
C      1  0.5067870000000  0.4473730000000  0.5656450000000 1.0
C      1  0.4282450000000  0.5194710000000  0.5632100000000 1.0
C      1  0.5732420000000  0.5176020000000  0.5446990000000 1.0
C      1  0.4104640000000  0.5176390000000  0.4891910000000 1.0
C      1  0.4450110000000  0.5409800000000  0.4566120000000 1.0
C      1  0.4747970000000  0.5752880000000  0.5509270000000 1.0
C      1  0.4886120000000  0.5129250000000  0.5438310000000 1.0
C      1  0.5053780000000  0.4963580000000  0.4461190000000 1.0
C      1  0.4673830000000  0.5202550000000  0.4659060000000 1.0
C      1  0.5290770000000  0.5604980000000  0.5384220000000 1.0
C      1  0.4846310000000  0.5435300000000  0.5101230000000 1.0
C      1  0.6029410000000  0.5090020000000  0.5081910000000 1.0
C      1  0.4833950000000  0.5905210000000  0.5265740000000 1.0
C      1  0.5371090000000  0.4630100000000  0.4866150000000 1.0
C      1  0.5251050000000  0.4582510000000  0.5146910000000 1.0
C      1  0.4512860000000  0.5087570000000  0.5763320000000 1.0
C      1  0.5290490000000  0.4662150000000  0.4222550000000 1.0
C      1  0.5474250000000  0.4617700000000  0.5349120000000 1.0
C      1  0.4864640000000  0.5212310000000  0.4422400000000 1.0
C      1  0.5694280000000  0.4698820000000  0.4451390000000 1.0
C      1  0.4325660000000  0.4443150000000  0.4689020000000 1.0
C      1  0.4726820000000  0.4666120000000  0.5202780000000 1.0
C      1  0.4598090000000  0.4423930000000  0.4766850000000 1.0
C      1  0.4726870000000  0.5903790000000  0.4994640000000 1.0
C      1  0.5646480000000  0.4920690000000  0.5855250000000 1.0
C      1  0.5442950000000  0.5089920000000  0.4167700000000 1.0
C      1  0.4692120000000  0.4363040000000  0.5053050000000 1.0
C      1  0.5421050000000  0.5269150000000  0.4403200000000 1.0
C      1  0.4066990000000  0.4927090000000  0.4748690000000 1.0
C      1  0.4971900000000  0.4742880000000  0.4659310000000 1.0
C      1  0.5123180000000  0.4245860000000  0.4810260000000 1.0
C      1  0.4021400000000  0.4723740000000  0.4941500000000 1.0
C      1  0.5747560000000  0.5424600000000  0.5294460000000 1.0
C      1  0.5754340000000  0.5292130000000  0.4878010000000 1.0
C      1  0.4232990000000  0.4393640000000  0.5177950000000 1.0
C      1  0.5118380000000  0.5148790000000  0.4866330000000 1.0
C      1  0.5039870000000  0.4292710000000  0.4288680000000 1.0
C      1  0.5435310000000  0.5702200000000  0.4928350000000 1.0
C      1  0.5285180000000  0.5147600000000  0.5101950000000 1.0
C      1  0.4985740000000  0.5509400000000  0.4438680000000 1.0
C      1  0.5466010000000  0.5608680000000  0.4646310000000 1.0
C      1  0.5051840000000  0.4848410000000  0.4177530000000 1.0
C      1  0.4954240000000  0.4894640000000  0.4913000000000 1.0
C      1  0.4235010000000  0.5407780000000  0.4800250000000 1.0
C      1  0.4660050000000  0.5114730000000  0.4217630000000 1.0
C      1  0.4469080000000  0.5301330000000  0.4282760000000 1.0
C      1  0.5887860000000  0.4721320000000  0.5150630000000 1.0
C      1  0.5464400000000  0.4592690000000  0.5827700000000 1.0
C      1  0.5964270000000  0.4865150000000  0.4907610000000 1.0
END
