TITL C-134912-5403-6 -28.8138486024327 125000 -118.145110781475 0 0 19 (C1) n - 1
REM
REM in /rds/project/t2_vol4/rds-t2-cs072/BORA/CARBON/from-Arr/AIRSS/Generating-Clusters/GAP-ML-2020/Only-C1/SD-CG/HFTN-CG
REM
REM
REM
REM
REM
REM ./C.cell (11c1c37f851c82e70ff6c80c92926a4b)
REM AIRSS Version 0.9.1 bugfix July 2018 build 013d7b7c2542+ Fri, 06 Jul 2018 19:26:36 +0100
REM compiler GCC version 9.3.0
REM options -cpp -mtune=generic -march=x86-64 -g -O0
REM seed 254072805 1010853372 888966854 -1945719814 -90924053 -1846949602 1118253363 -1868024570 2019235428 -112142504 1434798817 -2084168394 270313057 1633060149 -336266902 376747935 378731456 -739534930 2023061420 -1039617848 866436086 646437352 555144440 -456971057 -417722631 271276317 1512872795 -1469668996 517334215 -222630911 1206995245 -1287053117 717075298
REM
CELL 1.54180   50.00000   50.00000   50.00000   90.00000   90.00000   90.00000
LATT -1
SFAC C  
C      1  0.5283160000000  0.4831450000000  0.5305580000000 1.0
C      1  0.4841490000000  0.4299280000000  0.4974360000000 1.0
C      1  0.5273500000000  0.5084780000000  0.4789680000000 1.0
C      1  0.5111810000000  0.5081080000000  0.5268030000000 1.0
C      1  0.4796460000000  0.4964130000000  0.4485740000000 1.0
C      1  0.4876520000000  0.5022890000000  0.5409010000000 1.0
C      1  0.5035010000000  0.4869500000000  0.4393580000000 1.0
C      1  0.4834740000000  0.5219520000000  0.4834320000000 1.0
C      1  0.5240130000000  0.5357740000000  0.4732800000000 1.0
C      1  0.5195430000000  0.4932430000000  0.4583340000000 1.0
C      1  0.4666790000000  0.5115670000000  0.4648140000000 1.0
C      1  0.5159070000000  0.5364490000000  0.5326200000000 1.0
C      1  0.5054560000000  0.5059010000000  0.4984060000000 1.0
C      1  0.5156770000000  0.4649290000000  0.5189830000000 1.0
C      1  0.4603140000000  0.4949810000000  0.5441310000000 1.0
C      1  0.5057380000000  0.5475410000000  0.5123770000000 1.0
C      1  0.5000460000000  0.5442370000000  0.4845160000000 1.0
C      1  0.5006500000000  0.4459260000000  0.5089170000000 1.0
C      1  0.4807090000000  0.4821870000000  0.5575930000000 1.0
END
