TITL C-134910-4591-4 0.0563534414220116 125000 -346.411896982626 0 0 51 (C1) n - 1
REM
REM in /rds/project/t2_vol4/rds-t2-cs072/BORA/CARBON/from-Arr/AIRSS/Generating-Clusters/GAP-ML-2020/Only-C1/SD-CG/HFTN-CG
REM
REM
REM
REM
REM
REM ./C.cell (11c1c37f851c82e70ff6c80c92926a4b)
REM AIRSS Version 0.9.1 bugfix July 2018 build 013d7b7c2542+ Fri, 06 Jul 2018 19:26:36 +0100
REM compiler GCC version 9.3.0
REM options -cpp -mtune=generic -march=x86-64 -g -O0
REM seed -1325157352 897349024 -1947925186 -650179856 1044727423 136564694 850333111 -1044895969 -643411911 421532196 -1766025318 1665544249 1893205229 -527175228 40248867 1777643412 -1382009054 -1469457088 441401575 -476308123 1790940572 1407310550 -418933691 -1332793342 -1627579371 -1939218967 776152296 1589126437 1203558034 2096108504 725285338 -141258276 -240923716
REM
CELL 1.54180   50.00000   50.00000   50.00000   90.00000   90.00000   90.00000
LATT -1
SFAC C  
C      1  0.4920830000000  0.5181460000000  0.5682720000000 1.0
C      1  0.4824610000000  0.5412610000000  0.5550980000000 1.0
C      1  0.5082770000000  0.5136340000000  0.4945470000000 1.0
C      1  0.5271860000000  0.5485380000000  0.5415640000000 1.0
C      1  0.4666930000000  0.5505470000000  0.5039480000000 1.0
C      1  0.4490770000000  0.4612880000000  0.4948470000000 1.0
C      1  0.5363610000000  0.4914580000000  0.4509840000000 1.0
C      1  0.5097720000000  0.5363940000000  0.4704190000000 1.0
C      1  0.5273980000000  0.4526550000000  0.5125360000000 1.0
C      1  0.4763210000000  0.5168150000000  0.4428850000000 1.0
C      1  0.4825150000000  0.5390000000000  0.4597240000000 1.0
C      1  0.4542460000000  0.4606330000000  0.4660740000000 1.0
C      1  0.4439620000000  0.5205920000000  0.4756500000000 1.0
C      1  0.4817210000000  0.4848940000000  0.5111080000000 1.0
C      1  0.4405130000000  0.5116910000000  0.5022850000000 1.0
C      1  0.5267060000000  0.4459810000000  0.4665070000000 1.0
C      1  0.5449620000000  0.4702380000000  0.4715800000000 1.0
C      1  0.5166550000000  0.5052990000000  0.5620140000000 1.0
C      1  0.4996150000000  0.5551360000000  0.5380110000000 1.0
C      1  0.4829110000000  0.4591690000000  0.5300120000000 1.0
C      1  0.5515060000000  0.5188890000000  0.5226190000000 1.0
C      1  0.5353490000000  0.5225170000000  0.5493360000000 1.0
C      1  0.4804980000000  0.4767770000000  0.5539560000000 1.0
C      1  0.4614260000000  0.5433150000000  0.4773230000000 1.0
C      1  0.5150370000000  0.5579530000000  0.4906250000000 1.0
C      1  0.4515520000000  0.5320540000000  0.5202830000000 1.0
C      1  0.4694600000000  0.5019370000000  0.5595680000000 1.0
C      1  0.5763220000000  0.5041570000000  0.5183520000000 1.0
C      1  0.5347760000000  0.5056030000000  0.5038250000000 1.0
C      1  0.5101630000000  0.4774480000000  0.5557490000000 1.0
C      1  0.5134930000000  0.4793020000000  0.4373690000000 1.0
C      1  0.4410210000000  0.4784110000000  0.4488360000000 1.0
C      1  0.4929170000000  0.5589860000000  0.5105110000000 1.0
C      1  0.5158620000000  0.4366000000000  0.4915350000000 1.0
C      1  0.4584070000000  0.5265180000000  0.5465910000000 1.0
C      1  0.5240630000000  0.5177510000000  0.4502540000000 1.0
C      1  0.4514600000000  0.5036790000000  0.4530450000000 1.0
C      1  0.5722070000000  0.4688650000000  0.4814510000000 1.0
C      1  0.5060130000000  0.4541500000000  0.4495500000000 1.0
C      1  0.4508800000000  0.4861180000000  0.5075420000000 1.0
C      1  0.4931230000000  0.5108690000000  0.5191740000000 1.0
C      1  0.5132460000000  0.4562160000000  0.5364180000000 1.0
C      1  0.5012140000000  0.5055830000000  0.4351810000000 1.0
C      1  0.4803730000000  0.4474080000000  0.4631300000000 1.0
C      1  0.5012990000000  0.4843960000000  0.4875610000000 1.0
C      1  0.5778320000000  0.4846090000000  0.5013120000000 1.0
C      1  0.5306260000000  0.4779080000000  0.4967160000000 1.0
C      1  0.4689500000000  0.4444490000000  0.5087700000000 1.0
C      1  0.5400610000000  0.5681590000000  0.4986600000000 1.0
C      1  0.5439180000000  0.5496410000000  0.5177570000000 1.0
C      1  0.4875110000000  0.4363630000000  0.4889410000000 1.0
END
