TITL C-134912-5403-4 -0.0695865451984956 125000 -228.716431927142 0 0 35 (C1) n - 1
REM
REM in /rds/project/t2_vol4/rds-t2-cs072/BORA/CARBON/from-Arr/AIRSS/Generating-Clusters/GAP-ML-2020/Only-C1/SD-CG/HFTN-CG
REM
REM
REM
REM
REM
REM ./C.cell (11c1c37f851c82e70ff6c80c92926a4b)
REM AIRSS Version 0.9.1 bugfix July 2018 build 013d7b7c2542+ Fri, 06 Jul 2018 19:26:36 +0100
REM compiler GCC version 9.3.0
REM options -cpp -mtune=generic -march=x86-64 -g -O0
REM seed 1197797789 215470166 -1759163776 -1227365981 797792508 -1109410547 514255494 -1370398763 1568802051 340603713 951487571 -1643601928 228604871 -1885128213 442344496 -523604872 -1360308183 -720872244 1392070726 -1110918254 511684580 -498544003 -737156773 1990981367 1474442139 -1918519612 -261871536 -1203918685 -1468700617 178869437 229090034 218161778 1954073638
REM
CELL 1.54180   50.00000   50.00000   50.00000   90.00000   90.00000   90.00000
LATT -1
SFAC C  
C      1  0.5392850000000  0.4801990000000  0.4737190000000 1.0
C      1  0.5269260000000  0.5083350000000  0.4678610000000 1.0
C      1  0.4907520000000  0.4727990000000  0.5261210000000 1.0
C      1  0.5334080000000  0.4615190000000  0.4555830000000 1.0
C      1  0.5301840000000  0.5309950000000  0.5100460000000 1.0
C      1  0.5047500000000  0.4627140000000  0.5042830000000 1.0
C      1  0.5048950000000  0.4616730000000  0.4559120000000 1.0
C      1  0.4927950000000  0.4911420000000  0.4310480000000 1.0
C      1  0.4939530000000  0.5206590000000  0.5386600000000 1.0
C      1  0.4779100000000  0.5074700000000  0.4472160000000 1.0
C      1  0.5382420000000  0.5308180000000  0.4822990000000 1.0
C      1  0.4599170000000  0.5221360000000  0.4879940000000 1.0
C      1  0.5210900000000  0.5008650000000  0.5109850000000 1.0
C      1  0.4581510000000  0.5032560000000  0.4668080000000 1.0
C      1  0.4532370000000  0.5050510000000  0.5297300000000 1.0
C      1  0.5324050000000  0.4915680000000  0.5529370000000 1.0
C      1  0.5487610000000  0.4687810000000  0.5503820000000 1.0
C      1  0.4948680000000  0.4635550000000  0.4304240000000 1.0
C      1  0.4587450000000  0.5479790000000  0.5281610000000 1.0
C      1  0.5454450000000  0.5297600000000  0.5340730000000 1.0
C      1  0.5334230000000  0.4740580000000  0.5029830000000 1.0
C      1  0.5032900000000  0.5027660000000  0.4859630000000 1.0
C      1  0.5491280000000  0.4664480000000  0.5248080000000 1.0
C      1  0.4627430000000  0.4779220000000  0.4802020000000 1.0
C      1  0.4997680000000  0.5382890000000  0.5142330000000 1.0
C      1  0.4670200000000  0.5242550000000  0.5461550000000 1.0
C      1  0.4478250000000  0.4666020000000  0.4993710000000 1.0
C      1  0.4871500000000  0.5251520000000  0.4918160000000 1.0
C      1  0.4629270000000  0.4786030000000  0.5208120000000 1.0
C      1  0.4448390000000  0.5270460000000  0.5107630000000 1.0
C      1  0.5073430000000  0.4954140000000  0.5372670000000 1.0
C      1  0.5474170000000  0.5159350000000  0.5553700000000 1.0
C      1  0.4817190000000  0.5601550000000  0.5208890000000 1.0
C      1  0.4929620000000  0.4746930000000  0.4799440000000 1.0
C      1  0.5067290000000  0.5113880000000  0.4451800000000 1.0
END
