TITL C-134197-9905-3 -0.0489950255265185 125000 -173.062248471422 0 0 26 (C1) n - 1
REM
REM in /rds/project/t2_vol4/rds-t2-cs072/BORA/CARBON/from-Arr/AIRSS/Generating-Clusters/GAP-ML-2020/Only-C1/SD-CG/HFTN-CG
REM
REM
REM
REM
REM
REM ./C.cell (11c1c37f851c82e70ff6c80c92926a4b)
REM AIRSS Version 0.9.1 bugfix July 2018 build 013d7b7c2542+ Fri, 06 Jul 2018 19:26:36 +0100
REM compiler GCC version 9.3.0
REM options -cpp -mtune=generic -march=x86-64 -g -O0
REM seed 221869827 557794262 -1956012106 -134561417 1981614433 1964404704 475232727 -860939849 9022482 101216787 -1018362890 1006516885 -1038536360 -392846891 -671613509 1858643705 -1972677366 -1492891971 -1165017960 -65505421 -312393308 712919315 -1566447075 1900704348 -2062237969 997639960 -1808662426 -726730365 -1449271531 -345191866 1710619127 -1449956162 -288126079
REM
CELL 1.54180   50.00000   50.00000   50.00000   90.00000   90.00000   90.00000
LATT -1
SFAC C  
C      1  0.5171620000000  0.5461270000000  0.4845000000000 1.0
C      1  0.4618370000000  0.4766200000000  0.5136200000000 1.0
C      1  0.5230690000000  0.4753900000000  0.5188200000000 1.0
C      1  0.5058910000000  0.5310950000000  0.4607300000000 1.0
C      1  0.5194240000000  0.4339880000000  0.4906930000000 1.0
C      1  0.5165700000000  0.5035540000000  0.4616730000000 1.0
C      1  0.5103160000000  0.4909300000000  0.5397260000000 1.0
C      1  0.4695370000000  0.4927760000000  0.5356740000000 1.0
C      1  0.4548470000000  0.4949460000000  0.4906750000000 1.0
C      1  0.5394730000000  0.5315560000000  0.4928740000000 1.0
C      1  0.5397080000000  0.5196100000000  0.5183300000000 1.0
C      1  0.4882080000000  0.4832100000000  0.5529010000000 1.0
C      1  0.5172870000000  0.5200830000000  0.5359230000000 1.0
C      1  0.4788690000000  0.5362670000000  0.4600810000000 1.0
C      1  0.4808490000000  0.4630480000000  0.4981200000000 1.0
C      1  0.4951120000000  0.5503000000000  0.5023600000000 1.0
C      1  0.5416130000000  0.4922410000000  0.5056110000000 1.0
C      1  0.4711390000000  0.5414580000000  0.4860520000000 1.0
C      1  0.4575720000000  0.5213280000000  0.5009030000000 1.0
C      1  0.4938800000000  0.5355520000000  0.5277170000000 1.0
C      1  0.5398830000000  0.5039350000000  0.4791700000000 1.0
C      1  0.5293770000000  0.4141190000000  0.4785440000000 1.0
C      1  0.5078150000000  0.4553940000000  0.5039360000000 1.0
C      1  0.4966660000000  0.4852940000000  0.4594540000000 1.0
C      1  0.4750100000000  0.4806600000000  0.4744630000000 1.0
C      1  0.4688880000000  0.5205170000000  0.5274500000000 1.0
END
