TITL C-131264-6821-3 -0.0488371489363691 125000 -288.931532948895 0 0 43 (C1) n - 1
REM
REM in /rds/project/t2_vol4/rds-t2-cs072/BORA/CARBON/from-Arr/AIRSS/Generating-Clusters/GAP-ML-2020/Only-C1/SD-CG/HFTN-CG
REM
REM
REM
REM
REM
REM ./C.cell (11c1c37f851c82e70ff6c80c92926a4b)
REM AIRSS Version 0.9.1 bugfix July 2018 build 013d7b7c2542+ Fri, 06 Jul 2018 19:26:36 +0100
REM compiler GCC version 9.3.0
REM options -cpp -mtune=generic -march=x86-64 -g -O0
REM seed 191110412 -242012795 -881752540 -2135647506 1953754180 387182030 869481905 -708571983 -686791083 1926956858 -581284858 2133838138 -1316892054 -818091672 1305667746 -2111264805 635114317 -1838067487 -1233784167 -275734267 -1773584713 -1265195522 134397820 -1567807094 -1686719466 -1451433646 -869710191 -1715841638 -606685291 1769430632 165290676 -376125858 -29844383
REM
CELL 1.54180   50.00000   50.00000   50.00000   90.00000   90.00000   90.00000
LATT -1
SFAC C  
C      1  0.5275750000000  0.4433490000000  0.5094540000000 1.0
C      1  0.4936630000000  0.5018920000000  0.4931490000000 1.0
C      1  0.4719890000000  0.4590560000000  0.4737820000000 1.0
C      1  0.5391870000000  0.4438780000000  0.4829910000000 1.0
C      1  0.4784050000000  0.4401920000000  0.5249030000000 1.0
C      1  0.4585030000000  0.4690270000000  0.4971030000000 1.0
C      1  0.4989450000000  0.4360090000000  0.5073090000000 1.0
C      1  0.4323600000000  0.5318240000000  0.5139640000000 1.0
C      1  0.5013700000000  0.5578920000000  0.5094670000000 1.0
C      1  0.5161930000000  0.4918200000000  0.5327370000000 1.0
C      1  0.4567650000000  0.5017190000000  0.4650940000000 1.0
C      1  0.4930490000000  0.4416060000000  0.4782660000000 1.0
C      1  0.4421850000000  0.5471630000000  0.4952360000000 1.0
C      1  0.4607920000000  0.4885500000000  0.5389970000000 1.0
C      1  0.4644130000000  0.5467140000000  0.4776440000000 1.0
C      1  0.5235290000000  0.5376880000000  0.5110760000000 1.0
C      1  0.4909670000000  0.5543620000000  0.4838760000000 1.0
C      1  0.5471400000000  0.4862990000000  0.4637180000000 1.0
C      1  0.5039880000000  0.5129570000000  0.5166520000000 1.0
C      1  0.4901710000000  0.5527740000000  0.5360510000000 1.0
C      1  0.5212520000000  0.5254510000000  0.5582950000000 1.0
C      1  0.4804780000000  0.5254920000000  0.5325640000000 1.0
C      1  0.4731830000000  0.4806850000000  0.4548690000000 1.0
C      1  0.4977300000000  0.4921150000000  0.4467630000000 1.0
C      1  0.4610610000000  0.4619610000000  0.5249250000000 1.0
C      1  0.5515320000000  0.5129120000000  0.4767860000000 1.0
C      1  0.5178000000000  0.4483400000000  0.4648630000000 1.0
C      1  0.4546810000000  0.5119570000000  0.5195200000000 1.0
C      1  0.5100690000000  0.5392450000000  0.4670730000000 1.0
C      1  0.4675510000000  0.5265590000000  0.4576320000000 1.0
C      1  0.5130510000000  0.4821230000000  0.4905060000000 1.0
C      1  0.5332390000000  0.5333750000000  0.4821590000000 1.0
C      1  0.5125860000000  0.5508120000000  0.5546160000000 1.0
C      1  0.5202980000000  0.4773680000000  0.4576780000000 1.0
C      1  0.5095890000000  0.5000410000000  0.5595650000000 1.0
C      1  0.4805580000000  0.5034140000000  0.5537690000000 1.0
C      1  0.5342600000000  0.5406780000000  0.5389810000000 1.0
C      1  0.5307210000000  0.4733330000000  0.5156090000000 1.0
C      1  0.5597610000000  0.4790850000000  0.5059970000000 1.0
C      1  0.4618890000000  0.4974500000000  0.4945990000000 1.0
C      1  0.5577340000000  0.4660710000000  0.4806220000000 1.0
C      1  0.5649880000000  0.5056480000000  0.5003200000000 1.0
C      1  0.4947990000000  0.5211140000000  0.4508200000000 1.0
END
