TITL C-131271-6699-8 -253.360182273251 125000 -812.072013274272 0 0 117 (C1) n - 1
REM
REM in /rds/project/t2_vol4/rds-t2-cs072/BORA/CARBON/from-Arr/AIRSS/Generating-Clusters/GAP-ML-2020/Only-C1/SD-CG/HFTN-CG
REM
REM
REM
REM
REM
REM ./C.cell (11c1c37f851c82e70ff6c80c92926a4b)
REM AIRSS Version 0.9.1 bugfix July 2018 build 013d7b7c2542+ Fri, 06 Jul 2018 19:26:36 +0100
REM compiler GCC version 9.3.0
REM options -cpp -mtune=generic -march=x86-64 -g -O0
REM seed 1301986136 -1747570843 -66194698 -846716518 489890779 -628273572 -957224515 1918417044 1848710839 1355156922 -1033155672 1781353298 1363025372 390155463 1636487418 85754652 1325210576 96683 -2112506438 1895374848 1536236552 972000592 -418949717 -1679729468 830434541 1683219049 -82986213 1393959281 -1819669557 -1642812294 -1391991961 -1337774605 -112456130
REM
CELL 1.54180   50.00000   50.00000   50.00000   90.00000   90.00000   90.00000
LATT -1
SFAC C  
C      1  0.5091220000000  0.5689690000000  0.4495760000000 1.0
C      1  0.5609190000000  0.5496670000000  0.4523980000000 1.0
C      1  0.5220340000000  0.4620180000000  0.4188160000000 1.0
C      1  0.4539170000000  0.4598280000000  0.4238460000000 1.0
C      1  0.5263750000000  0.4973380000000  0.5823970000000 1.0
C      1  0.5039390000000  0.4962510000000  0.4564480000000 1.0
C      1  0.4226580000000  0.4710630000000  0.5414940000000 1.0
C      1  0.4562970000000  0.5634880000000  0.4515460000000 1.0
C      1  0.5569000000000  0.5669970000000  0.5297610000000 1.0
C      1  0.4634830000000  0.5339010000000  0.5034230000000 1.0
C      1  0.5213200000000  0.5102590000000  0.4084090000000 1.0
C      1  0.5688790000000  0.4974380000000  0.5597080000000 1.0
C      1  0.4775490000000  0.4989600000000  0.4373690000000 1.0
C      1  0.4626140000000  0.4213130000000  0.5174430000000 1.0
C      1  0.4245710000000  0.4555590000000  0.4639770000000 1.0
C      1  0.5604710000000  0.4740270000000  0.4869980000000 1.0
C      1  0.4977560000000  0.5231660000000  0.4676130000000 1.0
C      1  0.4947140000000  0.4211970000000  0.4702930000000 1.0
C      1  0.5035070000000  0.4982160000000  0.6019940000000 1.0
C      1  0.4705950000000  0.4894540000000  0.4870800000000 1.0
C      1  0.4994930000000  0.4813540000000  0.4847400000000 1.0
C      1  0.5718870000000  0.5056630000000  0.4369640000000 1.0
C      1  0.5333520000000  0.4951140000000  0.4512180000000 1.0
C      1  0.5528120000000  0.5710850000000  0.4707880000000 1.0
C      1  0.4606340000000  0.4462740000000  0.5334290000000 1.0
C      1  0.5503540000000  0.5147100000000  0.5758620000000 1.0
C      1  0.5260980000000  0.4398220000000  0.5044400000000 1.0
C      1  0.4757380000000  0.5529320000000  0.5694310000000 1.0
C      1  0.5777370000000  0.5225600000000  0.5113180000000 1.0
C      1  0.4806750000000  0.4804640000000  0.5950720000000 1.0
C      1  0.4295660000000  0.4953960000000  0.4525940000000 1.0
C      1  0.4546930000000  0.4890980000000  0.5119320000000 1.0
C      1  0.4801330000000  0.5789720000000  0.4859120000000 1.0
C      1  0.5169580000000  0.5465990000000  0.5893240000000 1.0
C      1  0.5298520000000  0.4412370000000  0.5354190000000 1.0
C      1  0.5757470000000  0.5257000000000  0.4581830000000 1.0
C      1  0.4869360000000  0.4811350000000  0.3930530000000 1.0
C      1  0.4223300000000  0.5185250000000  0.5351600000000 1.0
C      1  0.5181530000000  0.5534390000000  0.4255400000000 1.0
C      1  0.4990250000000  0.5259730000000  0.5985950000000 1.0
C      1  0.4946960000000  0.4799280000000  0.5486110000000 1.0
C      1  0.5018110000000  0.4314730000000  0.5422540000000 1.0
C      1  0.4581520000000  0.5646630000000  0.4993250000000 1.0
C      1  0.4737450000000  0.4422020000000  0.4343260000000 1.0
C      1  0.4057420000000  0.4951600000000  0.4991260000000 1.0
C      1  0.5959660000000  0.4459660000000  0.5068320000000 1.0
C      1  0.5138550000000  0.4308920000000  0.4520140000000 1.0
C      1  0.4528530000000  0.5404420000000  0.4340680000000 1.0
C      1  0.5149890000000  0.5442470000000  0.4710570000000 1.0
C      1  0.4640030000000  0.5722970000000  0.5288010000000 1.0
C      1  0.5071300000000  0.5068140000000  0.5589280000000 1.0
C      1  0.5028410000000  0.5774950000000  0.5027840000000 1.0
C      1  0.5440390000000  0.5431390000000  0.4306120000000 1.0
C      1  0.5590430000000  0.4446540000000  0.5463080000000 1.0
C      1  0.5047880000000  0.4194840000000  0.4971550000000 1.0
C      1  0.5355400000000  0.4727130000000  0.5715540000000 1.0
C      1  0.4436940000000  0.4360970000000  0.4733510000000 1.0
C      1  0.5131260000000  0.4838390000000  0.4015160000000 1.0
C      1  0.4392690000000  0.5610620000000  0.4750150000000 1.0
C      1  0.4434270000000  0.4339790000000  0.5010480000000 1.0
C      1  0.4687360000000  0.4300120000000  0.4594630000000 1.0
C      1  0.4398880000000  0.4614370000000  0.5195930000000 1.0
C      1  0.4858260000000  0.4365580000000  0.5674880000000 1.0
C      1  0.5393170000000  0.5641580000000  0.5517760000000 1.0
C      1  0.5619780000000  0.4689140000000  0.5650610000000 1.0
C      1  0.4900790000000  0.4142870000000  0.5204060000000 1.0
C      1  0.4388390000000  0.5176230000000  0.5105690000000 1.0
C      1  0.4758650000000  0.5263850000000  0.4232330000000 1.0
C      1  0.5762430000000  0.4514930000000  0.5257110000000 1.0
C      1  0.5703660000000  0.5154850000000  0.4840790000000 1.0
C      1  0.5000980000000  0.5653160000000  0.5745060000000 1.0
C      1  0.4158310000000  0.5217770000000  0.4931580000000 1.0
C      1  0.5255160000000  0.5154990000000  0.5374660000000 1.0
C      1  0.4549230000000  0.4869360000000  0.5799980000000 1.0
C      1  0.5451400000000  0.4473390000000  0.4845750000000 1.0
C      1  0.5027070000000  0.4434230000000  0.4293560000000 1.0
C      1  0.4925430000000  0.5796860000000  0.5292600000000 1.0
C      1  0.4215670000000  0.5386790000000  0.4708390000000 1.0
C      1  0.5716350000000  0.5503510000000  0.5141620000000 1.0
C      1  0.4888620000000  0.4571320000000  0.5285860000000 1.0
C      1  0.4303130000000  0.5253090000000  0.4466830000000 1.0
C      1  0.5651520000000  0.4779680000000  0.5162190000000 1.0
C      1  0.4320300000000  0.4679050000000  0.4393860000000 1.0
C      1  0.4697110000000  0.4811410000000  0.4137830000000 1.0
C      1  0.5246520000000  0.4702070000000  0.5439700000000 1.0
C      1  0.5365090000000  0.4887410000000  0.5247410000000 1.0
C      1  0.4543420000000  0.5564640000000  0.5509580000000 1.0
C      1  0.4726380000000  0.5188180000000  0.4802750000000 1.0
C      1  0.4392530000000  0.4665260000000  0.5667760000000 1.0
C      1  0.5226570000000  0.4979790000000  0.4992010000000 1.0
C      1  0.5723120000000  0.4769990000000  0.4416100000000 1.0
C      1  0.4814440000000  0.5756550000000  0.4581210000000 1.0
C      1  0.5755420000000  0.5009150000000  0.5305840000000 1.0
C      1  0.5407630000000  0.5432540000000  0.5747480000000 1.0
C      1  0.5492050000000  0.5634330000000  0.4992180000000 1.0
C      1  0.4586200000000  0.4986740000000  0.4606790000000 1.0
C      1  0.5376490000000  0.4439660000000  0.4581020000000 1.0
C      1  0.5026060000000  0.5325850000000  0.4137630000000 1.0
C      1  0.4394650000000  0.5312410000000  0.5533020000000 1.0
C      1  0.4590820000000  0.5106290000000  0.5624860000000 1.0
C      1  0.5996460000000  0.4541020000000  0.4822730000000 1.0
C      1  0.5447590000000  0.5143440000000  0.4263450000000 1.0
C      1  0.4879910000000  0.4629600000000  0.5749300000000 1.0
C      1  0.4146350000000  0.4813600000000  0.4755960000000 1.0
C      1  0.4733080000000  0.4990240000000  0.5348810000000 1.0
C      1  0.4093370000000  0.4933170000000  0.5297970000000 1.0
C      1  0.4841690000000  0.5239300000000  0.5213410000000 1.0
C      1  0.5825780000000  0.4691360000000  0.4668390000000 1.0
C      1  0.4584380000000  0.4441520000000  0.5618000000000 1.0
C      1  0.5453460000000  0.4981670000000  0.4794110000000 1.0
C      1  0.5116040000000  0.5749610000000  0.5509900000000 1.0
C      1  0.5430590000000  0.4665610000000  0.4395460000000 1.0
C      1  0.5014050000000  0.4577810000000  0.5020800000000 1.0
C      1  0.5303960000000  0.5842710000000  0.4607550000000 1.0
C      1  0.5202190000000  0.5527120000000  0.4983180000000 1.0
C      1  0.4825390000000  0.5253510000000  0.5732870000000 1.0
C      1  0.5121690000000  0.5252660000000  0.5136730000000 1.0
END
