TITL C-136413-9189-9 0.0199762258468738 125000 -365.345846510234 0 0 55 (C1) n - 1
REM
REM in /rds/project/t2_vol4/rds-t2-cs072/BORA/CARBON/from-Arr/AIRSS/Generating-Clusters/GAP-ML-2020/Only-C1/SD-CG/HFTN-CG
REM
REM
REM
REM
REM
REM ./C.cell (11c1c37f851c82e70ff6c80c92926a4b)
REM AIRSS Version 0.9.1 bugfix July 2018 build 013d7b7c2542+ Fri, 06 Jul 2018 19:26:36 +0100
REM compiler GCC version 9.3.0
REM options -cpp -mtune=generic -march=x86-64 -g -O0
REM seed 1833593063 -850325807 391658507 1926735415 283843873 2101358205 422386683 831499087 102007919 996204477 520272615 -1484491548 965836301 -510112447 -317076090 1817470010 1005057537 -1054475948 -367843093 -1519590243 390450083 973533183 -781847243 184872901 -265531677 -1518560183 1382645784 481410922 2070078860 1001485218 -218916765 208120746 -1036877950
REM
CELL 1.54180   50.00000   50.00000   50.00000   90.00000   90.00000   90.00000
LATT -1
SFAC C  
C      1  0.4979740000000  0.4815460000000  0.5616830000000 1.0
C      1  0.5562400000000  0.5338050000000  0.5035690000000 1.0
C      1  0.4587790000000  0.4565710000000  0.5435510000000 1.0
C      1  0.4725920000000  0.4624240000000  0.4363810000000 1.0
C      1  0.4667130000000  0.4582870000000  0.4828520000000 1.0
C      1  0.5531540000000  0.5123960000000  0.4559760000000 1.0
C      1  0.4859050000000  0.4435840000000  0.5034710000000 1.0
C      1  0.5291550000000  0.5570920000000  0.4827300000000 1.0
C      1  0.4559770000000  0.4947730000000  0.5587220000000 1.0
C      1  0.5137610000000  0.4852320000000  0.4843590000000 1.0
C      1  0.5201160000000  0.5603850000000  0.5276100000000 1.0
C      1  0.5619180000000  0.4872610000000  0.4984330000000 1.0
C      1  0.5122490000000  0.4894640000000  0.5162150000000 1.0
C      1  0.5159200000000  0.5138060000000  0.4760280000000 1.0
C      1  0.4971770000000  0.5254160000000  0.4950400000000 1.0
C      1  0.5538970000000  0.5022520000000  0.5422610000000 1.0
C      1  0.5403150000000  0.5215300000000  0.5562350000000 1.0
C      1  0.4604090000000  0.4484320000000  0.4566120000000 1.0
C      1  0.5186980000000  0.5354730000000  0.5441850000000 1.0
C      1  0.5087230000000  0.5258060000000  0.4468960000000 1.0
C      1  0.5566310000000  0.4863480000000  0.4702630000000 1.0
C      1  0.5339560000000  0.4662210000000  0.4701140000000 1.0
C      1  0.4891750000000  0.5478410000000  0.4588440000000 1.0
C      1  0.4491630000000  0.5399310000000  0.5261060000000 1.0
C      1  0.5360990000000  0.5228690000000  0.4372180000000 1.0
C      1  0.4940290000000  0.5626330000000  0.5140750000000 1.0
C      1  0.4720360000000  0.4906300000000  0.4495350000000 1.0
C      1  0.5521580000000  0.4650470000000  0.5131950000000 1.0
C      1  0.4994610000000  0.5547700000000  0.4857970000000 1.0
C      1  0.5429140000000  0.5310460000000  0.4770800000000 1.0
C      1  0.5407530000000  0.5575210000000  0.5088000000000 1.0
C      1  0.5456920000000  0.4744110000000  0.5404890000000 1.0
C      1  0.4702320000000  0.4707240000000  0.5659560000000 1.0
C      1  0.4843390000000  0.5135070000000  0.4363020000000 1.0
C      1  0.4835490000000  0.4900100000000  0.5204710000000 1.0
C      1  0.4397160000000  0.4700500000000  0.5248780000000 1.0
C      1  0.4376250000000  0.5172700000000  0.5165520000000 1.0
C      1  0.4507440000000  0.5087650000000  0.4619160000000 1.0
C      1  0.4745180000000  0.5485460000000  0.5310370000000 1.0
C      1  0.4819700000000  0.5035810000000  0.5484170000000 1.0
C      1  0.4374890000000  0.4955620000000  0.5363850000000 1.0
C      1  0.4667780000000  0.5313230000000  0.4520670000000 1.0
C      1  0.4435920000000  0.4736030000000  0.4967660000000 1.0
C      1  0.4900660000000  0.5304760000000  0.5475850000000 1.0
C      1  0.5140380000000  0.5181770000000  0.5177780000000 1.0
C      1  0.5197380000000  0.4588310000000  0.4455300000000 1.0
C      1  0.4999450000000  0.4562670000000  0.4297030000000 1.0
C      1  0.4848860000000  0.4832450000000  0.4764490000000 1.0
C      1  0.5359140000000  0.4487680000000  0.4954800000000 1.0
C      1  0.4455060000000  0.5030070000000  0.4906150000000 1.0
C      1  0.5176850000000  0.4738410000000  0.5431060000000 1.0
C      1  0.4753650000000  0.5039050000000  0.4954700000000 1.0
C      1  0.4791940000000  0.4582400000000  0.5256390000000 1.0
C      1  0.5121010000000  0.4374130000000  0.5015940000000 1.0
C      1  0.5632690000000  0.5100850000000  0.5159760000000 1.0
END
