TITL C-131271-6699-11 255.88259965238 125000 -563.938600701366 0 0 80 (C1) n - 1
REM
REM in /rds/project/t2_vol4/rds-t2-cs072/BORA/CARBON/from-Arr/AIRSS/Generating-Clusters/GAP-ML-2020/Only-C1/SD-CG/HFTN-CG
REM
REM
REM
REM
REM
REM ./C.cell (11c1c37f851c82e70ff6c80c92926a4b)
REM AIRSS Version 0.9.1 bugfix July 2018 build 013d7b7c2542+ Fri, 06 Jul 2018 19:26:36 +0100
REM compiler GCC version 9.3.0
REM options -cpp -mtune=generic -march=x86-64 -g -O0
REM seed -1345118160 -1009849966 -9021550 2090687434 -1399430005 1343966144 -399532182 -390642280 1222414899 -501319947 -2545536 872681490 -1720269656 1288679604 -1870940529 1619629565 -255560236 467431795 604525140 -2057244579 1609994318 461850236 1164203877 38470778 -691537452 1084593473 -714355719 281479751 954488945 2048497094 -1507539778 1681510239 1965820116
REM
CELL 1.54180   50.00000   50.00000   50.00000   90.00000   90.00000   90.00000
LATT -1
SFAC C  
C      1  0.4634270000000  0.5691430000000  0.4929150000000 1.0
C      1  0.5357050000000  0.4953580000000  0.4942030000000 1.0
C      1  0.4525810000000  0.5459720000000  0.4533330000000 1.0
C      1  0.4868130000000  0.5119650000000  0.4230480000000 1.0
C      1  0.4967840000000  0.4946630000000  0.4711090000000 1.0
C      1  0.5048120000000  0.4872240000000  0.5807100000000 1.0
C      1  0.5442720000000  0.4858890000000  0.5579150000000 1.0
C      1  0.4738450000000  0.5092480000000  0.5543500000000 1.0
C      1  0.5415530000000  0.5529820000000  0.4851750000000 1.0
C      1  0.4524730000000  0.4445470000000  0.5080960000000 1.0
C      1  0.4296130000000  0.4830770000000  0.4732320000000 1.0
C      1  0.5347270000000  0.4256730000000  0.5425030000000 1.0
C      1  0.4701770000000  0.5572640000000  0.5437330000000 1.0
C      1  0.4900450000000  0.4445520000000  0.5720130000000 1.0
C      1  0.5405510000000  0.5182800000000  0.4247360000000 1.0
C      1  0.5615300000000  0.5228620000000  0.4443520000000 1.0
C      1  0.5115630000000  0.5404480000000  0.5638300000000 1.0
C      1  0.4982570000000  0.5594600000000  0.5471620000000 1.0
C      1  0.5040670000000  0.4466840000000  0.4772340000000 1.0
C      1  0.4320610000000  0.5471900000000  0.5193900000000 1.0
C      1  0.5170130000000  0.5661660000000  0.5250010000000 1.0
C      1  0.5656380000000  0.4799170000000  0.5409440000000 1.0
C      1  0.4419170000000  0.5585040000000  0.4762250000000 1.0
C      1  0.5452880000000  0.5443380000000  0.4579680000000 1.0
C      1  0.4884940000000  0.5643450000000  0.4804460000000 1.0
C      1  0.4228820000000  0.5451380000000  0.4927620000000 1.0
C      1  0.5286120000000  0.4394100000000  0.4901800000000 1.0
C      1  0.5070530000000  0.4493290000000  0.4482920000000 1.0
C      1  0.5304780000000  0.4444360000000  0.5202560000000 1.0
C      1  0.5820430000000  0.5049500000000  0.4445370000000 1.0
C      1  0.5282800000000  0.4703280000000  0.5753740000000 1.0
C      1  0.4713340000000  0.4997530000000  0.5233630000000 1.0
C      1  0.5745590000000  0.4997520000000  0.5207270000000 1.0
C      1  0.4234980000000  0.4951440000000  0.5001350000000 1.0
C      1  0.5348380000000  0.4504720000000  0.4451110000000 1.0
C      1  0.5130470000000  0.5565140000000  0.4965740000000 1.0
C      1  0.4816590000000  0.5447040000000  0.4584170000000 1.0
C      1  0.5483350000000  0.4458980000000  0.4704280000000 1.0
C      1  0.4637220000000  0.4749940000000  0.4395520000000 1.0
C      1  0.4572410000000  0.5330810000000  0.5526950000000 1.0
C      1  0.4899350000000  0.4705740000000  0.4883440000000 1.0
C      1  0.5700660000000  0.4803540000000  0.4485300000000 1.0
C      1  0.4441990000000  0.4737930000000  0.5451670000000 1.0
C      1  0.5244370000000  0.4957580000000  0.4692980000000 1.0
C      1  0.5032710000000  0.4887960000000  0.4192630000000 1.0
C      1  0.4386290000000  0.4965660000000  0.5255130000000 1.0
C      1  0.4807310000000  0.5172770000000  0.4779440000000 1.0
C      1  0.5037790000000  0.4571500000000  0.5294640000000 1.0
C      1  0.4240970000000  0.5082940000000  0.4605140000000 1.0
C      1  0.4615770000000  0.4848710000000  0.5651420000000 1.0
C      1  0.4425290000000  0.5205490000000  0.4435430000000 1.0
C      1  0.5032780000000  0.5285110000000  0.5079230000000 1.0
C      1  0.4611750000000  0.5028240000000  0.4313520000000 1.0
C      1  0.4492500000000  0.4659800000000  0.4628100000000 1.0
C      1  0.5313080000000  0.4921350000000  0.4195760000000 1.0
C      1  0.4350950000000  0.5251580000000  0.5365190000000 1.0
C      1  0.5424200000000  0.5559200000000  0.5320990000000 1.0
C      1  0.5281280000000  0.5078880000000  0.5455750000000 1.0
C      1  0.5248000000000  0.5390920000000  0.4364860000000 1.0
C      1  0.5374920000000  0.5364180000000  0.5520340000000 1.0
C      1  0.5747790000000  0.5262780000000  0.5187380000000 1.0
C      1  0.5023150000000  0.5116480000000  0.5645270000000 1.0
C      1  0.4552360000000  0.5649870000000  0.5205230000000 1.0
C      1  0.5475430000000  0.4722000000000  0.4318760000000 1.0
C      1  0.4900910000000  0.4662660000000  0.4323380000000 1.0
C      1  0.4562990000000  0.4495460000000  0.5344900000000 1.0
C      1  0.5580120000000  0.5471290000000  0.5094790000000 1.0
C      1  0.4158210000000  0.5190430000000  0.4859540000000 1.0
C      1  0.4833000000000  0.4440050000000  0.5444170000000 1.0
C      1  0.5678970000000  0.4662980000000  0.4736200000000 1.0
C      1  0.5620200000000  0.4805930000000  0.4992770000000 1.0
C      1  0.5554970000000  0.4617580000000  0.5211500000000 1.0
C      1  0.4970690000000  0.5362490000000  0.4349680000000 1.0
C      1  0.5176590000000  0.5035990000000  0.5156100000000 1.0
C      1  0.4813770000000  0.4710820000000  0.5799540000000 1.0
C      1  0.5336070000000  0.4197830000000  0.5672620000000 1.0
C      1  0.4636100000000  0.4553300000000  0.4856540000000 1.0
C      1  0.4761700000000  0.5222230000000  0.5048850000000 1.0
C      1  0.5192700000000  0.4431460000000  0.5742470000000 1.0
C      1  0.4954490000000  0.4812760000000  0.5159100000000 1.0
END
