TITL C-134909-4532-5 0.0312832638249128 125000 -149.957701297001 0 0 24 (C1) n - 1
REM
REM in /rds/project/t2_vol4/rds-t2-cs072/BORA/CARBON/from-Arr/AIRSS/Generating-Clusters/GAP-ML-2020/Only-C1/SD-CG/HFTN-CG
REM
REM
REM
REM
REM
REM ./C.cell (11c1c37f851c82e70ff6c80c92926a4b)
REM AIRSS Version 0.9.1 bugfix July 2018 build 013d7b7c2542+ Fri, 06 Jul 2018 19:26:36 +0100
REM compiler GCC version 9.3.0
REM options -cpp -mtune=generic -march=x86-64 -g -O0
REM seed 1364356002 1156523495 1338614661 762206515 -140405999 1464074082 1790988191 -228434352 -623848516 -1754066846 -993190819 135758844 -5729044 1971605340 -1666616023 1506350478 1817026519 720586907 -1648780278 153200967 192976567 -1546023366 -112807953 251969915 307900524 2139952943 1201120636 -630749890 -2064172877 -321985846 -1627985485 2024370296 2006340565
REM
CELL 1.54180   50.00000   50.00000   50.00000   90.00000   90.00000   90.00000
LATT -1
SFAC C  
C      1  0.5001330000000  0.5032240000000  0.5130320000000 1.0
C      1  0.5596740000000  0.5010210000000  0.5011190000000 1.0
C      1  0.5070250000000  0.4691160000000  0.4637880000000 1.0
C      1  0.5142570000000  0.5270270000000  0.5151420000000 1.0
C      1  0.4714000000000  0.4729730000000  0.5298600000000 1.0
C      1  0.4834220000000  0.4578200000000  0.5062770000000 1.0
C      1  0.4566260000000  0.4956680000000  0.5256120000000 1.0
C      1  0.4719790000000  0.5123950000000  0.5059670000000 1.0
C      1  0.5399120000000  0.5050940000000  0.4804890000000 1.0
C      1  0.4938730000000  0.4855610000000  0.4443600000000 1.0
C      1  0.4979660000000  0.5386220000000  0.4759030000000 1.0
C      1  0.4944480000000  0.5487440000000  0.5189930000000 1.0
C      1  0.4830860000000  0.4688730000000  0.4812950000000 1.0
C      1  0.4996040000000  0.4815510000000  0.5331200000000 1.0
C      1  0.5338980000000  0.4647830000000  0.5029390000000 1.0
C      1  0.4764240000000  0.4940100000000  0.4641030000000 1.0
C      1  0.4918280000000  0.5601890000000  0.4933760000000 1.0
C      1  0.5295370000000  0.4776000000000  0.4778220000000 1.0
C      1  0.4767160000000  0.5188290000000  0.4783690000000 1.0
C      1  0.4706900000000  0.5345530000000  0.5263330000000 1.0
C      1  0.5109830000000  0.4595260000000  0.5175350000000 1.0
C      1  0.5569360000000  0.4780590000000  0.5134820000000 1.0
C      1  0.5219990000000  0.5261670000000  0.4867800000000 1.0
C      1  0.4575820000000  0.5185940000000  0.5443050000000 1.0
END
