TITL C-136387-9229-7 99.2039984499353 125000 -897.898082451942 0 0 129 (C1) n - 1
REM
REM in /rds/project/t2_vol4/rds-t2-cs072/BORA/CARBON/from-Arr/AIRSS/Generating-Clusters/GAP-ML-2020/Only-C1/SD-CG/HFTN-CG
REM
REM
REM
REM
REM
REM ./C.cell (11c1c37f851c82e70ff6c80c92926a4b)
REM AIRSS Version 0.9.1 bugfix July 2018 build 013d7b7c2542+ Fri, 06 Jul 2018 19:26:36 +0100
REM compiler GCC version 9.3.0
REM options -cpp -mtune=generic -march=x86-64 -g -O0
REM seed 304288537 -1799460750 1467523100 -1597391441 -744407560 -299653965 -865058337 -1675829948 -1572577944 1366183222 1771585193 -1779950125 -378018973 -1418892324 1762661606 248500970 -524234836 117113067 -583003604 -1781312093 1327823004 -1624764811 2089808880 -793247888 -1764177033 -2088783095 1404487721 -1897997792 -406608653 -648989494 821372285 -1340063177 37853851
REM
CELL 1.54180   50.00000   50.00000   50.00000   90.00000   90.00000   90.00000
LATT -1
SFAC C  
C      1  0.5626020000000  0.4784040000000  0.5195970000000 1.0
C      1  0.5486130000000  0.5291290000000  0.5192220000000 1.0
C      1  0.4799480000000  0.5358340000000  0.5772230000000 1.0
C      1  0.5094860000000  0.5023020000000  0.5465860000000 1.0
C      1  0.5090410000000  0.5468890000000  0.4172030000000 1.0
C      1  0.5446290000000  0.5560760000000  0.4282180000000 1.0
C      1  0.5146560000000  0.4415620000000  0.5801030000000 1.0
C      1  0.5154600000000  0.4119710000000  0.4894590000000 1.0
C      1  0.5657600000000  0.5007690000000  0.4305770000000 1.0
C      1  0.4764400000000  0.5750780000000  0.4556960000000 1.0
C      1  0.5316940000000  0.5778150000000  0.5454250000000 1.0
C      1  0.4254060000000  0.5071400000000  0.5117850000000 1.0
C      1  0.5044640000000  0.5443570000000  0.5208470000000 1.0
C      1  0.5342000000000  0.5329370000000  0.4142110000000 1.0
C      1  0.4800410000000  0.4141810000000  0.5202630000000 1.0
C      1  0.4769160000000  0.5344850000000  0.5169790000000 1.0
C      1  0.5167440000000  0.4589270000000  0.5326140000000 1.0
C      1  0.4919510000000  0.5177640000000  0.4843490000000 1.0
C      1  0.5253660000000  0.4082470000000  0.5157100000000 1.0
C      1  0.4832190000000  0.5871570000000  0.5459690000000 1.0
C      1  0.5341730000000  0.4386980000000  0.4437720000000 1.0
C      1  0.5134980000000  0.5365560000000  0.4775530000000 1.0
C      1  0.4580920000000  0.5862570000000  0.5049590000000 1.0
C      1  0.5234750000000  0.4785450000000  0.5565070000000 1.0
C      1  0.5187780000000  0.5690600000000  0.4327660000000 1.0
C      1  0.5600250000000  0.4240780000000  0.4867100000000 1.0
C      1  0.4708150000000  0.5106010000000  0.5328160000000 1.0
C      1  0.5637010000000  0.5501610000000  0.4472980000000 1.0
C      1  0.5384260000000  0.5126010000000  0.5828090000000 1.0
C      1  0.4136110000000  0.4682040000000  0.5391700000000 1.0
C      1  0.4703060000000  0.4373130000000  0.5601350000000 1.0
C      1  0.5723200000000  0.4731280000000  0.4388170000000 1.0
C      1  0.5846120000000  0.5457370000000  0.4853040000000 1.0
C      1  0.5411120000000  0.4346710000000  0.5745640000000 1.0
C      1  0.3962450000000  0.4496340000000  0.5280950000000 1.0
C      1  0.4168570000000  0.5398530000000  0.4792380000000 1.0
C      1  0.4638160000000  0.4320900000000  0.4448330000000 1.0
C      1  0.5315700000000  0.5410220000000  0.5758350000000 1.0
C      1  0.4440520000000  0.5070650000000  0.4859490000000 1.0
C      1  0.5593150000000  0.4345170000000  0.5568440000000 1.0
C      1  0.5768960000000  0.5239210000000  0.4452650000000 1.0
C      1  0.5082050000000  0.4717860000000  0.5810360000000 1.0
C      1  0.4553660000000  0.4585970000000  0.4915370000000 1.0
C      1  0.5049420000000  0.5527240000000  0.5756870000000 1.0
C      1  0.5401580000000  0.5052300000000  0.4177900000000 1.0
C      1  0.5388360000000  0.5017260000000  0.4831930000000 1.0
C      1  0.4597780000000  0.4842390000000  0.4764440000000 1.0
C      1  0.5037740000000  0.5063730000000  0.4454470000000 1.0
C      1  0.4733730000000  0.5124870000000  0.4114280000000 1.0
C      1  0.4384380000000  0.4440040000000  0.4484830000000 1.0
C      1  0.4420780000000  0.4160610000000  0.4808780000000 1.0
C      1  0.5931910000000  0.5245070000000  0.4686850000000 1.0
C      1  0.4469020000000  0.5064830000000  0.4187090000000 1.0
C      1  0.5281600000000  0.5191140000000  0.4614500000000 1.0
C      1  0.5136790000000  0.4866010000000  0.4243670000000 1.0
C      1  0.4574190000000  0.4570070000000  0.5222770000000 1.0
C      1  0.5881130000000  0.5159560000000  0.4960640000000 1.0
C      1  0.5796170000000  0.4542630000000  0.5133740000000 1.0
C      1  0.4848180000000  0.4496770000000  0.4900290000000 1.0
C      1  0.4609110000000  0.4304610000000  0.5338820000000 1.0
C      1  0.5292660000000  0.4584840000000  0.4842710000000 1.0
C      1  0.4132660000000  0.4825760000000  0.4587060000000 1.0
C      1  0.5538070000000  0.4152150000000  0.5132430000000 1.0
C      1  0.4832340000000  0.5951600000000  0.5178430000000 1.0
C      1  0.4793230000000  0.4832230000000  0.5780190000000 1.0
C      1  0.5090040000000  0.5977010000000  0.5049520000000 1.0
C      1  0.4423070000000  0.4744610000000  0.5445380000000 1.0
C      1  0.4427360000000  0.5745350000000  0.5270190000000 1.0
C      1  0.5023480000000  0.4649250000000  0.4707370000000 1.0
C      1  0.5926170000000  0.5042280000000  0.5431140000000 1.0
C      1  0.5047260000000  0.5831970000000  0.4540760000000 1.0
C      1  0.4663770000000  0.4140830000000  0.4686570000000 1.0
C      1  0.4868370000000  0.4187540000000  0.4906760000000 1.0
C      1  0.4078280000000  0.4619780000000  0.4783420000000 1.0
C      1  0.5185700000000  0.5901890000000  0.4785270000000 1.0
C      1  0.5465070000000  0.4768530000000  0.4719450000000 1.0
C      1  0.4875790000000  0.5319870000000  0.4283150000000 1.0
C      1  0.4278610000000  0.4678480000000  0.4380320000000 1.0
C      1  0.4553790000000  0.5777690000000  0.4767160000000 1.0
C      1  0.4711200000000  0.4669940000000  0.4131660000000 1.0
C      1  0.4664790000000  0.5269110000000  0.4920300000000 1.0
C      1  0.4164910000000  0.5358610000000  0.5070960000000 1.0
C      1  0.4845610000000  0.5096730000000  0.5598050000000 1.0
C      1  0.4418590000000  0.5055140000000  0.5371430000000 1.0
C      1  0.5647790000000  0.5434450000000  0.5385370000000 1.0
C      1  0.4366810000000  0.5339690000000  0.5497340000000 1.0
C      1  0.5492930000000  0.4912360000000  0.5652550000000 1.0
C      1  0.4873000000000  0.4920240000000  0.4675290000000 1.0
C      1  0.5705400000000  0.4874340000000  0.5473180000000 1.0
C      1  0.4886790000000  0.4884860000000  0.4082220000000 1.0
C      1  0.4912720000000  0.4908250000000  0.5213510000000 1.0
C      1  0.5206910000000  0.5206670000000  0.5269390000000 1.0
C      1  0.5787570000000  0.4460170000000  0.4859460000000 1.0
C      1  0.5346650000000  0.4289200000000  0.4731220000000 1.0
C      1  0.4338650000000  0.5594630000000  0.4675960000000 1.0
C      1  0.5739290000000  0.4671020000000  0.4676030000000 1.0
C      1  0.4691650000000  0.5538320000000  0.4384590000000 1.0
C      1  0.4053800000000  0.4876330000000  0.5173780000000 1.0
C      1  0.4586950000000  0.5737890000000  0.5513770000000 1.0
C      1  0.4966510000000  0.4270250000000  0.5625020000000 1.0
C      1  0.5275820000000  0.5495500000000  0.4995500000000 1.0
C      1  0.6025210000000  0.5178580000000  0.5208780000000 1.0
C      1  0.5695090000000  0.4315230000000  0.5312000000000 1.0
C      1  0.4560420000000  0.5489620000000  0.5651990000000 1.0
C      1  0.4448910000000  0.4781890000000  0.4186900000000 1.0
C      1  0.4828230000000  0.4468420000000  0.4292520000000 1.0
C      1  0.5094420000000  0.4568410000000  0.4398640000000 1.0
C      1  0.5330340000000  0.5877820000000  0.5186680000000 1.0
C      1  0.4894800000000  0.4626310000000  0.5187940000000 1.0
C      1  0.5032280000000  0.4117320000000  0.5356660000000 1.0
C      1  0.4795780000000  0.5098740000000  0.5959500000000 1.0
C      1  0.5184990000000  0.4973850000000  0.5962590000000 1.0
C      1  0.5608250000000  0.5059930000000  0.5039680000000 1.0
C      1  0.4221610000000  0.5124910000000  0.4633220000000 1.0
C      1  0.5416430000000  0.5745520000000  0.4906710000000 1.0
C      1  0.4329920000000  0.5220820000000  0.4379530000000 1.0
C      1  0.4266700000000  0.5507060000000  0.5283650000000 1.0
C      1  0.5060340000000  0.5765500000000  0.5590350000000 1.0
C      1  0.5573790000000  0.4499530000000  0.4355300000000 1.0
C      1  0.5471930000000  0.5566330000000  0.5564490000000 1.0
C      1  0.5360800000000  0.4628280000000  0.5133190000000 1.0
C      1  0.5649090000000  0.5621470000000  0.4746540000000 1.0
C      1  0.5113480000000  0.5044700000000  0.5033060000000 1.0
C      1  0.4425800000000  0.5477520000000  0.4433530000000 1.0
C      1  0.5005000000000  0.5074640000000  0.6140960000000 1.0
C      1  0.4314620000000  0.4428060000000  0.4770570000000 1.0
C      1  0.5909750000000  0.5323750000000  0.5415430000000 1.0
C      1  0.4600990000000  0.4644640000000  0.5668770000000 1.0
C      1  0.3940050000000  0.4655420000000  0.5026550000000 1.0
END
