TITL C-136392-9307-1 -60.8744047449297 125000 -503.898471019234 0 0 73 (C1) n - 1
REM
REM in /rds/project/t2_vol4/rds-t2-cs072/BORA/CARBON/from-Arr/AIRSS/Generating-Clusters/GAP-ML-2020/Only-C1/SD-CG/HFTN-CG
REM
REM
REM
REM
REM
REM ./C.cell (11c1c37f851c82e70ff6c80c92926a4b)
REM AIRSS Version 0.9.1 bugfix July 2018 build 013d7b7c2542+ Fri, 06 Jul 2018 19:26:36 +0100
REM compiler GCC version 9.3.0
REM options -cpp -mtune=generic -march=x86-64 -g -O0
REM seed -1369513895 -204924221 -1346465563 -1861790744 -1723775449 -1039118141 1033885591 -2112142688 1236575992 1432444863 -983969344 -238534456 -1221249529 -1465199651 1035128966 -59517622 -679965806 -1038008207 1810087046 937026571 2075887126 701969546 -566245768 -1083325663 1847168515 2146756390 2046173665 1633173440 1990461360 603989071 775178869 -781970758 1142554306
REM
CELL 1.54180   50.00000   50.00000   50.00000   90.00000   90.00000   90.00000
LATT -1
SFAC C  
C      1  0.4747320000000  0.5094930000000  0.4338080000000 1.0
C      1  0.5283220000000  0.5197960000000  0.5166790000000 1.0
C      1  0.4932040000000  0.4992020000000  0.5400670000000 1.0
C      1  0.5130010000000  0.4862150000000  0.4906050000000 1.0
C      1  0.5537490000000  0.4629540000000  0.5248080000000 1.0
C      1  0.5413320000000  0.4823690000000  0.5485380000000 1.0
C      1  0.4802390000000  0.4367620000000  0.4677650000000 1.0
C      1  0.4550900000000  0.4708780000000  0.4467310000000 1.0
C      1  0.5771910000000  0.5160330000000  0.4781100000000 1.0
C      1  0.4700800000000  0.4769970000000  0.5683950000000 1.0
C      1  0.5373830000000  0.4486540000000  0.5055710000000 1.0
C      1  0.4741030000000  0.4808640000000  0.5272470000000 1.0
C      1  0.4898650000000  0.4554820000000  0.5304230000000 1.0
C      1  0.5096910000000  0.5742990000000  0.4812150000000 1.0
C      1  0.4873980000000  0.4533220000000  0.5613140000000 1.0
C      1  0.4341000000000  0.4510600000000  0.5129580000000 1.0
C      1  0.5148060000000  0.4688790000000  0.5143630000000 1.0
C      1  0.5195320000000  0.4272760000000  0.4931170000000 1.0
C      1  0.5619650000000  0.4919660000000  0.4820980000000 1.0
C      1  0.5461360000000  0.5293900000000  0.5603140000000 1.0
C      1  0.5457520000000  0.4524920000000  0.4745380000000 1.0
C      1  0.5369930000000  0.5391830000000  0.4539080000000 1.0
C      1  0.4922640000000  0.5279770000000  0.4833870000000 1.0
C      1  0.4504880000000  0.4862260000000  0.5456380000000 1.0
C      1  0.5348640000000  0.5058950000000  0.4919270000000 1.0
C      1  0.4495710000000  0.5399440000000  0.4655190000000 1.0
C      1  0.4686930000000  0.4870650000000  0.4995520000000 1.0
C      1  0.5049390000000  0.4705550000000  0.4388160000000 1.0
C      1  0.5812810000000  0.5253000000000  0.5049680000000 1.0
C      1  0.4510070000000  0.5162610000000  0.5400760000000 1.0
C      1  0.4837690000000  0.5479310000000  0.5255910000000 1.0
C      1  0.4930030000000  0.5522270000000  0.4422110000000 1.0
C      1  0.4789440000000  0.4815090000000  0.4346700000000 1.0
C      1  0.4936420000000  0.4941340000000  0.5696930000000 1.0
C      1  0.4773020000000  0.4319090000000  0.5169470000000 1.0
C      1  0.5699960000000  0.4813130000000  0.5103270000000 1.0
C      1  0.4779930000000  0.5274810000000  0.5446920000000 1.0
C      1  0.5261470000000  0.4348620000000  0.4658250000000 1.0
C      1  0.4504460000000  0.4314460000000  0.5216840000000 1.0
C      1  0.4503840000000  0.5165760000000  0.4496850000000 1.0
C      1  0.4809020000000  0.5752400000000  0.4869180000000 1.0
C      1  0.5477830000000  0.5593260000000  0.5142860000000 1.0
C      1  0.5218920000000  0.5292340000000  0.5724880000000 1.0
C      1  0.4290220000000  0.4759060000000  0.5274230000000 1.0
C      1  0.5242810000000  0.5160890000000  0.4401870000000 1.0
C      1  0.5428430000000  0.5391400000000  0.5343100000000 1.0
C      1  0.4253660000000  0.4833500000000  0.4810290000000 1.0
C      1  0.5162080000000  0.5598480000000  0.4565400000000 1.0
C      1  0.4461480000000  0.5415640000000  0.4958340000000 1.0
C      1  0.4910980000000  0.4262370000000  0.4928900000000 1.0
C      1  0.5199200000000  0.4946690000000  0.5305980000000 1.0
C      1  0.5067190000000  0.5399360000000  0.5082400000000 1.0
C      1  0.5098810000000  0.4505490000000  0.5775680000000 1.0
C      1  0.5283900000000  0.4876010000000  0.4433920000000 1.0
C      1  0.5498680000000  0.4759980000000  0.4606150000000 1.0
C      1  0.4892010000000  0.5005280000000  0.4880300000000 1.0
C      1  0.4659840000000  0.5598310000000  0.5070640000000 1.0
C      1  0.4953480000000  0.5243830000000  0.5703590000000 1.0
C      1  0.4340100000000  0.4561180000000  0.4846830000000 1.0
C      1  0.5667870000000  0.5490460000000  0.4960960000000 1.0
C      1  0.5226760000000  0.5648940000000  0.5031510000000 1.0
C      1  0.4545590000000  0.4492550000000  0.4647790000000 1.0
C      1  0.5033070000000  0.4453780000000  0.4523530000000 1.0
C      1  0.4371870000000  0.5212830000000  0.5143950000000 1.0
C      1  0.4974040000000  0.5258070000000  0.4332290000000 1.0
C      1  0.5602770000000  0.5051240000000  0.5502260000000 1.0
C      1  0.4239980000000  0.4958320000000  0.5074830000000 1.0
C      1  0.4674760000000  0.5600380000000  0.4547290000000 1.0
C      1  0.4381340000000  0.4920430000000  0.4565530000000 1.0
C      1  0.5209210000000  0.4747490000000  0.5702100000000 1.0
C      1  0.4664940000000  0.5842680000000  0.4667850000000 1.0
C      1  0.5615520000000  0.5392240000000  0.4688150000000 1.0
C      1  0.5749660000000  0.5053330000000  0.5249600000000 1.0
END
