TITL C-134173-9882-2 -0.0658392894742681 125000 -535.395770440679 0 0 78 (C1) n - 1
REM
REM in /rds/project/t2_vol4/rds-t2-cs072/BORA/CARBON/from-Arr/AIRSS/Generating-Clusters/GAP-ML-2020/Only-C1/SD-CG/HFTN-CG
REM
REM
REM
REM
REM
REM ./C.cell (11c1c37f851c82e70ff6c80c92926a4b)
REM AIRSS Version 0.9.1 bugfix July 2018 build 013d7b7c2542+ Fri, 06 Jul 2018 19:26:36 +0100
REM compiler GCC version 9.3.0
REM options -cpp -mtune=generic -march=x86-64 -g -O0
REM seed 516698988 -1719921204 -697965930 448610798 -1952691012 1640035703 -921535878 -1505320492 -82520567 1719486076 -1974833574 -153073456 106261287 -282531646 1451733802 -242598315 867689184 -202224017 670804707 -1808364852 1464392360 360370111 -2066088843 924582849 -2053965552 -769577473 -1491821770 793828752 -1915009603 630176246 -905824393 2021137103 1744511078
REM
CELL 1.54180   50.00000   50.00000   50.00000   90.00000   90.00000   90.00000
LATT -1
SFAC C  
C      1  0.4535030000000  0.4493520000000  0.5407090000000 1.0
C      1  0.5483640000000  0.5377440000000  0.5298430000000 1.0
C      1  0.4372990000000  0.5251910000000  0.4892300000000 1.0
C      1  0.4558770000000  0.5090990000000  0.4485240000000 1.0
C      1  0.4599870000000  0.5715430000000  0.5233550000000 1.0
C      1  0.5668760000000  0.5375620000000  0.5085800000000 1.0
C      1  0.5109240000000  0.4966290000000  0.5274590000000 1.0
C      1  0.5686670000000  0.5215440000000  0.4737580000000 1.0
C      1  0.5461290000000  0.5060720000000  0.4360320000000 1.0
C      1  0.5032510000000  0.5335240000000  0.5614110000000 1.0
C      1  0.4564290000000  0.5101260000000  0.5605630000000 1.0
C      1  0.5204780000000  0.5008330000000  0.4775880000000 1.0
C      1  0.5571610000000  0.4727690000000  0.4598800000000 1.0
C      1  0.5145610000000  0.4689800000000  0.4390430000000 1.0
C      1  0.5083550000000  0.4275860000000  0.5440540000000 1.0
C      1  0.4619760000000  0.5744920000000  0.4966830000000 1.0
C      1  0.4860660000000  0.4157370000000  0.5333400000000 1.0
C      1  0.4558720000000  0.4723410000000  0.5014920000000 1.0
C      1  0.4825700000000  0.5725240000000  0.4787270000000 1.0
C      1  0.4366470000000  0.4679720000000  0.4574320000000 1.0
C      1  0.4783480000000  0.4938320000000  0.4921650000000 1.0
C      1  0.5028200000000  0.4952200000000  0.4528840000000 1.0
C      1  0.4746430000000  0.4894820000000  0.5685350000000 1.0
C      1  0.4659460000000  0.4294820000000  0.5215670000000 1.0
C      1  0.5525080000000  0.4525210000000  0.5317050000000 1.0
C      1  0.4825830000000  0.5232690000000  0.4896020000000 1.0
C      1  0.4739940000000  0.4474240000000  0.4974140000000 1.0
C      1  0.5538990000000  0.5300660000000  0.5548460000000 1.0
C      1  0.5079200000000  0.5657460000000  0.5172650000000 1.0
C      1  0.5652830000000  0.4633710000000  0.5068010000000 1.0
C      1  0.4239240000000  0.5025450000000  0.4792880000000 1.0
C      1  0.5000580000000  0.5223410000000  0.5330270000000 1.0
C      1  0.5801730000000  0.5126070000000  0.5000850000000 1.0
C      1  0.4827700000000  0.5525730000000  0.5595350000000 1.0
C      1  0.5455390000000  0.5130240000000  0.5739470000000 1.0
C      1  0.4305440000000  0.4958260000000  0.4521320000000 1.0
C      1  0.5133310000000  0.5277460000000  0.4882220000000 1.0
C      1  0.5001800000000  0.4556940000000  0.5097360000000 1.0
C      1  0.4962560000000  0.5430870000000  0.4396570000000 1.0
C      1  0.5414090000000  0.5314360000000  0.4311020000000 1.0
C      1  0.5239810000000  0.5477590000000  0.4453640000000 1.0
C      1  0.4722030000000  0.4744130000000  0.4230120000000 1.0
C      1  0.4600900000000  0.5318130000000  0.4684760000000 1.0
C      1  0.5302210000000  0.4393920000000  0.4777490000000 1.0
C      1  0.4762410000000  0.4888930000000  0.4630920000000 1.0
C      1  0.5454610000000  0.4713680000000  0.5541810000000 1.0
C      1  0.4937900000000  0.5157720000000  0.4309980000000 1.0
C      1  0.4994810000000  0.4560310000000  0.5430420000000 1.0
C      1  0.4962140000000  0.4656670000000  0.4163450000000 1.0
C      1  0.4323350000000  0.4750980000000  0.4847860000000 1.0
C      1  0.5061110000000  0.4853060000000  0.5014380000000 1.0
C      1  0.4859250000000  0.5700300000000  0.5355430000000 1.0
C      1  0.4472820000000  0.4739430000000  0.5289730000000 1.0
C      1  0.5090600000000  0.4467690000000  0.4599980000000 1.0
C      1  0.4436720000000  0.5011830000000  0.5373400000000 1.0
C      1  0.5498670000000  0.5010600000000  0.4663080000000 1.0
C      1  0.5546850000000  0.4538760000000  0.4801620000000 1.0
C      1  0.4445970000000  0.5252360000000  0.5183730000000 1.0
C      1  0.5568510000000  0.4870090000000  0.5732300000000 1.0
C      1  0.5340880000000  0.4309520000000  0.5276820000000 1.0
C      1  0.4443870000000  0.5489600000000  0.5355960000000 1.0
C      1  0.5023240000000  0.4934740000000  0.5732480000000 1.0
C      1  0.4577160000000  0.5394530000000  0.5586870000000 1.0
C      1  0.4690650000000  0.5031870000000  0.4232640000000 1.0
C      1  0.4729770000000  0.4641400000000  0.5538760000000 1.0
C      1  0.5563320000000  0.5459300000000  0.4828420000000 1.0
C      1  0.5194540000000  0.5382440000000  0.5181580000000 1.0
C      1  0.5203920000000  0.4344460000000  0.5031530000000 1.0
C      1  0.5427620000000  0.4774760000000  0.4356790000000 1.0
C      1  0.5812420000000  0.4863830000000  0.5060130000000 1.0
C      1  0.5089070000000  0.5718760000000  0.4895150000000 1.0
C      1  0.4754220000000  0.5264150000000  0.5162340000000 1.0
C      1  0.5169230000000  0.5167710000000  0.5787290000000 1.0
C      1  0.4764060000000  0.5540370000000  0.4572200000000 1.0
C      1  0.4643590000000  0.4627570000000  0.4508890000000 1.0
C      1  0.5163720000000  0.4785480000000  0.5509460000000 1.0
C      1  0.4816410000000  0.4451220000000  0.4679830000000 1.0
C      1  0.5280440000000  0.5523000000000  0.4746550000000 1.0
END
