TITL C-131258-6716-1 -252.537016735956 125000 -587.46564405153 0 0 83 (C1) n - 1
REM
REM in /rds/project/t2_vol4/rds-t2-cs072/BORA/CARBON/from-Arr/AIRSS/Generating-Clusters/GAP-ML-2020/Only-C1/SD-CG/HFTN-CG
REM
REM
REM
REM
REM
REM ./C.cell (11c1c37f851c82e70ff6c80c92926a4b)
REM AIRSS Version 0.9.1 bugfix July 2018 build 013d7b7c2542+ Fri, 06 Jul 2018 19:26:36 +0100
REM compiler GCC version 9.3.0
REM options -cpp -mtune=generic -march=x86-64 -g -O0
REM seed -1160311091 877024275 -1591253074 78269412 -89670014 956055571 -984610941 -1060694907 1657209682 409236440 1915044936 23091007 155918353 -727760057 -213745533 -1549089045 -890181251 -1774248503 -1362862174 2016014023 -1379529174 1300225958 -1326669634 -666049529 -1489809297 1761086514 1453988376 -177790037 720602734 300615346 570037438 2070720741 1143739756
REM
CELL 1.54180   50.00000   50.00000   50.00000   90.00000   90.00000   90.00000
LATT -1
SFAC C  
C      1  0.4863050000000  0.4543030000000  0.5613960000000 1.0
C      1  0.4452190000000  0.5499940000000  0.4759190000000 1.0
C      1  0.5150140000000  0.5070870000000  0.4434120000000 1.0
C      1  0.5749290000000  0.4832540000000  0.4923420000000 1.0
C      1  0.4681870000000  0.4736090000000  0.4392760000000 1.0
C      1  0.5159820000000  0.4828330000000  0.4253530000000 1.0
C      1  0.5100600000000  0.4932530000000  0.4723000000000 1.0
C      1  0.4413710000000  0.5131380000000  0.5608840000000 1.0
C      1  0.5398330000000  0.5452390000000  0.5225470000000 1.0
C      1  0.5045970000000  0.4933770000000  0.5245450000000 1.0
C      1  0.4953630000000  0.5179150000000  0.5104620000000 1.0
C      1  0.4709610000000  0.4820060000000  0.4987330000000 1.0
C      1  0.5400930000000  0.5484340000000  0.4575040000000 1.0
C      1  0.5599970000000  0.4768830000000  0.4474360000000 1.0
C      1  0.4676420000000  0.4271130000000  0.4941270000000 1.0
C      1  0.5082730000000  0.4501730000000  0.4969580000000 1.0
C      1  0.4749970000000  0.5361310000000  0.4416710000000 1.0
C      1  0.4296450000000  0.5369550000000  0.4956420000000 1.0
C      1  0.5517830000000  0.5105420000000  0.5558870000000 1.0
C      1  0.4369340000000  0.4595620000000  0.4705020000000 1.0
C      1  0.5857650000000  0.5282410000000  0.5308580000000 1.0
C      1  0.5098030000000  0.5417910000000  0.5591460000000 1.0
C      1  0.5097360000000  0.5746610000000  0.4976800000000 1.0
C      1  0.4794250000000  0.4461800000000  0.5354290000000 1.0
C      1  0.4909200000000  0.4987350000000  0.5779000000000 1.0
C      1  0.5696120000000  0.5493290000000  0.4623620000000 1.0
C      1  0.4242510000000  0.4635880000000  0.4949570000000 1.0
C      1  0.5351870000000  0.5329480000000  0.5494440000000 1.0
C      1  0.4773420000000  0.5808410000000  0.4560620000000 1.0
C      1  0.5223790000000  0.5694570000000  0.5229250000000 1.0
C      1  0.4614980000000  0.5332270000000  0.5614770000000 1.0
C      1  0.4300710000000  0.4726440000000  0.5403590000000 1.0
C      1  0.5373790000000  0.4468020000000  0.5056020000000 1.0
C      1  0.5628570000000  0.5075580000000  0.4814420000000 1.0
C      1  0.5369420000000  0.4653590000000  0.4336860000000 1.0
C      1  0.4871330000000  0.4876020000000  0.4228110000000 1.0
C      1  0.4349720000000  0.4528550000000  0.5198440000000 1.0
C      1  0.4659740000000  0.5702790000000  0.4793660000000 1.0
C      1  0.4349200000000  0.5077900000000  0.4584420000000 1.0
C      1  0.4428760000000  0.4811230000000  0.4518070000000 1.0
C      1  0.4144760000000  0.4899830000000  0.4998870000000 1.0
C      1  0.4966250000000  0.4229450000000  0.4921230000000 1.0
C      1  0.5382940000000  0.5234160000000  0.4432990000000 1.0
C      1  0.5207680000000  0.5308170000000  0.4993160000000 1.0
C      1  0.5064400000000  0.4620690000000  0.4688410000000 1.0
C      1  0.5168230000000  0.5547850000000  0.4749150000000 1.0
C      1  0.4720690000000  0.4780630000000  0.5706660000000 1.0
C      1  0.5520690000000  0.4410840000000  0.4817670000000 1.0
C      1  0.4332620000000  0.5401580000000  0.5240380000000 1.0
C      1  0.5153810000000  0.4094190000000  0.4788780000000 1.0
C      1  0.5737010000000  0.5046530000000  0.5372820000000 1.0
C      1  0.5676890000000  0.4638390000000  0.4729890000000 1.0
C      1  0.4461350000000  0.4850110000000  0.5616830000000 1.0
C      1  0.4212200000000  0.5116880000000  0.4834720000000 1.0
C      1  0.5396580000000  0.4624840000000  0.5546540000000 1.0
C      1  0.4799300000000  0.4546930000000  0.4564760000000 1.0
C      1  0.4847040000000  0.5036740000000  0.4880700000000 1.0
C      1  0.4577090000000  0.4353470000000  0.5197870000000 1.0
C      1  0.5259620000000  0.4471470000000  0.4523240000000 1.0
C      1  0.4910280000000  0.4672500000000  0.5154600000000 1.0
C      1  0.4916260000000  0.5571020000000  0.4556980000000 1.0
C      1  0.4891650000000  0.5153770000000  0.4303200000000 1.0
C      1  0.5311490000000  0.4907920000000  0.5160250000000 1.0
C      1  0.5330600000000  0.5045450000000  0.4902740000000 1.0
C      1  0.4555780000000  0.5517520000000  0.5397000000000 1.0
C      1  0.4766860000000  0.5682990000000  0.5307190000000 1.0
C      1  0.5419170000000  0.4884200000000  0.5688200000000 1.0
C      1  0.5138850000000  0.4583500000000  0.5677440000000 1.0
C      1  0.4159550000000  0.4941900000000  0.5276550000000 1.0
C      1  0.5694260000000  0.5426530000000  0.5142810000000 1.0
C      1  0.5718000000000  0.4810890000000  0.5206610000000 1.0
C      1  0.5159560000000  0.4853270000000  0.5798780000000 1.0
C      1  0.5470250000000  0.4652400000000  0.5259480000000 1.0
C      1  0.5027420000000  0.5647820000000  0.5429420000000 1.0
C      1  0.4495000000000  0.5325580000000  0.4539140000000 1.0
C      1  0.4234540000000  0.5184180000000  0.5392240000000 1.0
C      1  0.5351320000000  0.4244860000000  0.4654580000000 1.0
C      1  0.5628850000000  0.5064650000000  0.4498450000000 1.0
C      1  0.4819160000000  0.5757830000000  0.5029480000000 1.0
C      1  0.4878240000000  0.5263880000000  0.5703380000000 1.0
C      1  0.5727340000000  0.5356770000000  0.4870390000000 1.0
C      1  0.4595750000000  0.4423130000000  0.4719400000000 1.0
C      1  0.5808390000000  0.5286590000000  0.4442050000000 1.0
END
