TITL C-134177-9810-7 -3.10963718484399 125000 -615.764646935521 0 0 90 (C1) n - 1
REM
REM in /rds/project/t2_vol4/rds-t2-cs072/BORA/CARBON/from-Arr/AIRSS/Generating-Clusters/GAP-ML-2020/Only-C1/SD-CG/HFTN-CG
REM
REM
REM
REM
REM
REM ./C.cell (11c1c37f851c82e70ff6c80c92926a4b)
REM AIRSS Version 0.9.1 bugfix July 2018 build 013d7b7c2542+ Fri, 06 Jul 2018 19:26:36 +0100
REM compiler GCC version 9.3.0
REM options -cpp -mtune=generic -march=x86-64 -g -O0
REM seed 493077832 1444977797 -754322012 -157527037 -1360391060 401638821 1034065214 973057409 1147380625 1048513758 1814269876 1520718108 -830012133 -1575723258 -1646170609 2146692228 1924094618 -1667256832 -634763537 -1394718047 1385946437 -2029258713 223155611 2003246593 2024487622 -1345474582 2139587929 89886030 1057877052 -1587724900 1932255533 1580442742 -2133624022
REM
CELL 1.54180   50.00000   50.00000   50.00000   90.00000   90.00000   90.00000
LATT -1
SFAC C  
C      1  0.4578130000000  0.4909870000000  0.4830910000000 1.0
C      1  0.4942540000000  0.4540180000000  0.4760630000000 1.0
C      1  0.4317870000000  0.5126920000000  0.5528520000000 1.0
C      1  0.4356020000000  0.4694050000000  0.4801030000000 1.0
C      1  0.5197170000000  0.4508730000000  0.5647050000000 1.0
C      1  0.4934780000000  0.4420690000000  0.5556010000000 1.0
C      1  0.5308320000000  0.4734860000000  0.4565220000000 1.0
C      1  0.4661940000000  0.4798540000000  0.5292000000000 1.0
C      1  0.4449720000000  0.5452390000000  0.4940740000000 1.0
C      1  0.4887400000000  0.4297480000000  0.5295380000000 1.0
C      1  0.4669270000000  0.5256740000000  0.5041770000000 1.0
C      1  0.5583140000000  0.4741590000000  0.5515670000000 1.0
C      1  0.4214990000000  0.5052340000000  0.5082090000000 1.0
C      1  0.4671340000000  0.5099450000000  0.4240520000000 1.0
C      1  0.4536100000000  0.5000640000000  0.5099630000000 1.0
C      1  0.5666120000000  0.5424410000000  0.5017860000000 1.0
C      1  0.5803910000000  0.4929460000000  0.5003770000000 1.0
C      1  0.5546900000000  0.5714350000000  0.4628520000000 1.0
C      1  0.4914990000000  0.5220180000000  0.4855040000000 1.0
C      1  0.4383150000000  0.5077780000000  0.4633690000000 1.0
C      1  0.5651180000000  0.5157940000000  0.4859530000000 1.0
C      1  0.5284060000000  0.5678940000000  0.4513440000000 1.0
C      1  0.5718810000000  0.4604460000000  0.4663490000000 1.0
C      1  0.5153150000000  0.5285910000000  0.5011460000000 1.0
C      1  0.4658300000000  0.4828060000000  0.5596480000000 1.0
C      1  0.4696000000000  0.5536930000000  0.5695400000000 1.0
C      1  0.5138440000000  0.4230990000000  0.5164680000000 1.0
C      1  0.5577410000000  0.4802280000000  0.4508710000000 1.0
C      1  0.5603640000000  0.5403050000000  0.5308800000000 1.0
C      1  0.5620600000000  0.5091000000000  0.4552520000000 1.0
C      1  0.4490650000000  0.4548960000000  0.5250300000000 1.0
C      1  0.4802250000000  0.5687140000000  0.4736700000000 1.0
C      1  0.5019710000000  0.4757920000000  0.4929930000000 1.0
C      1  0.5417070000000  0.4515520000000  0.5477680000000 1.0
C      1  0.4705340000000  0.4361620000000  0.4816840000000 1.0
C      1  0.4589530000000  0.4673070000000  0.4413840000000 1.0
C      1  0.5304590000000  0.4783190000000  0.4869200000000 1.0
C      1  0.4482850000000  0.4947170000000  0.4389410000000 1.0
C      1  0.4765710000000  0.5273130000000  0.5772050000000 1.0
C      1  0.5893030000000  0.4730780000000  0.4842690000000 1.0
C      1  0.5277930000000  0.5772520000000  0.4932070000000 1.0
C      1  0.4495620000000  0.5577590000000  0.5484640000000 1.0
C      1  0.5121840000000  0.4254320000000  0.4517880000000 1.0
C      1  0.5103960000000  0.4741630000000  0.5791230000000 1.0
C      1  0.4925610000000  0.4166690000000  0.4724340000000 1.0
C      1  0.5146750000000  0.4117450000000  0.4903390000000 1.0
C      1  0.5495630000000  0.4988310000000  0.5658110000000 1.0
C      1  0.5138490000000  0.5454690000000  0.5541790000000 1.0
C      1  0.4860640000000  0.4666520000000  0.4303360000000 1.0
C      1  0.5375590000000  0.5076370000000  0.4957190000000 1.0
C      1  0.4183960000000  0.4931270000000  0.4809480000000 1.0
C      1  0.4662310000000  0.5504710000000  0.4534920000000 1.0
C      1  0.5455530000000  0.4527510000000  0.4993130000000 1.0
C      1  0.4441460000000  0.5370550000000  0.4660830000000 1.0
C      1  0.5059370000000  0.5240220000000  0.5744720000000 1.0
C      1  0.5687100000000  0.4910550000000  0.5286160000000 1.0
C      1  0.4509310000000  0.4517540000000  0.4642660000000 1.0
C      1  0.5044230000000  0.5235840000000  0.5308020000000 1.0
C      1  0.4306970000000  0.5380430000000  0.5402490000000 1.0
C      1  0.4950660000000  0.4782350000000  0.5212720000000 1.0
C      1  0.5545320000000  0.4385370000000  0.4766570000000 1.0
C      1  0.4872300000000  0.4952080000000  0.4774490000000 1.0
C      1  0.5224800000000  0.5582150000000  0.5118230000000 1.0
C      1  0.5280170000000  0.5455790000000  0.4341510000000 1.0
C      1  0.5359130000000  0.4396440000000  0.5225410000000 1.0
C      1  0.4560500000000  0.5073440000000  0.5684570000000 1.0
C      1  0.5351170000000  0.4198920000000  0.4696790000000 1.0
C      1  0.4238030000000  0.4644580000000  0.5329840000000 1.0
C      1  0.4241090000000  0.5347260000000  0.5125220000000 1.0
C      1  0.5397800000000  0.4964260000000  0.5212860000000 1.0
C      1  0.4836520000000  0.4650310000000  0.5715070000000 1.0
C      1  0.4656150000000  0.4351190000000  0.5121440000000 1.0
C      1  0.5130440000000  0.4954660000000  0.5340140000000 1.0
C      1  0.4769070000000  0.5364730000000  0.4304690000000 1.0
C      1  0.4649170000000  0.5679250000000  0.4983790000000 1.0
C      1  0.5084330000000  0.5759100000000  0.4710680000000 1.0
C      1  0.5232120000000  0.5005210000000  0.5783770000000 1.0
C      1  0.4909870000000  0.5651660000000  0.5537700000000 1.0
C      1  0.5043880000000  0.5355730000000  0.4221600000000 1.0
C      1  0.4774650000000  0.5337790000000  0.5282200000000 1.0
C      1  0.5639770000000  0.5155310000000  0.5451720000000 1.0
C      1  0.5362910000000  0.5536910000000  0.5370830000000 1.0
C      1  0.5075340000000  0.4552530000000  0.4486990000000 1.0
C      1  0.4192470000000  0.4918610000000  0.5344760000000 1.0
C      1  0.5112050000000  0.5088050000000  0.4118870000000 1.0
C      1  0.4713720000000  0.5654390000000  0.5289640000000 1.0
C      1  0.5552090000000  0.5660820000000  0.4892970000000 1.0
C      1  0.5476720000000  0.5229270000000  0.4348270000000 1.0
C      1  0.4889960000000  0.4920840000000  0.4168350000000 1.0
C      1  0.5389350000000  0.5057550000000  0.4132720000000 1.0
END
