TITL C-134174-9842-9 -21.5868366671829 125000 -324.723870824846 0 0 50 (C1) n - 1
REM
REM in /rds/project/t2_vol4/rds-t2-cs072/BORA/CARBON/from-Arr/AIRSS/Generating-Clusters/GAP-ML-2020/Only-C1/SD-CG/HFTN-CG
REM
REM
REM
REM
REM
REM ./C.cell (11c1c37f851c82e70ff6c80c92926a4b)
REM AIRSS Version 0.9.1 bugfix July 2018 build 013d7b7c2542+ Fri, 06 Jul 2018 19:26:36 +0100
REM compiler GCC version 9.3.0
REM options -cpp -mtune=generic -march=x86-64 -g -O0
REM seed 321234460 1603468149 -1497848436 1958632241 -578075093 1658554436 -1534422848 -12559838 1031913680 1709455500 -1773155582 -2085303491 -272631238 121219632 -736867706 -554323378 1168236416 2068167589 1368770840 935395989 1224921895 -112577051 -1454889007 -87337027 -1038932562 -515019302 -797816152 -1974900335 -1986783317 -744930355 1814803772 -847839958 -542378095
REM
CELL 1.54180   50.00000   50.00000   50.00000   90.00000   90.00000   90.00000
LATT -1
SFAC C  
C      1  0.4393950000000  0.5160990000000  0.4994440000000 1.0
C      1  0.5268060000000  0.4941550000000  0.5639340000000 1.0
C      1  0.4792550000000  0.5084730000000  0.5307790000000 1.0
C      1  0.5143820000000  0.4665460000000  0.4968800000000 1.0
C      1  0.5208840000000  0.4767280000000  0.4279170000000 1.0
C      1  0.5665680000000  0.5306490000000  0.4943080000000 1.0
C      1  0.5508030000000  0.5217300000000  0.5326350000000 1.0
C      1  0.4282500000000  0.4917720000000  0.5052280000000 1.0
C      1  0.5436040000000  0.4606910000000  0.4987520000000 1.0
C      1  0.5523480000000  0.4711150000000  0.5227630000000 1.0
C      1  0.5054790000000  0.5426490000000  0.5123480000000 1.0
C      1  0.4489970000000  0.4484370000000  0.5086660000000 1.0
C      1  0.5619490000000  0.4812550000000  0.4980610000000 1.0
C      1  0.4545510000000  0.5010090000000  0.4555860000000 1.0
C      1  0.5171080000000  0.4954620000000  0.4917110000000 1.0
C      1  0.4449710000000  0.5188600000000  0.4725320000000 1.0
C      1  0.4623410000000  0.4569620000000  0.5327460000000 1.0
C      1  0.4899220000000  0.5036520000000  0.4836220000000 1.0
C      1  0.5533460000000  0.5432310000000  0.5150220000000 1.0
C      1  0.4491390000000  0.4745710000000  0.4664270000000 1.0
C      1  0.4845020000000  0.5034710000000  0.4528000000000 1.0
C      1  0.4748040000000  0.4372170000000  0.5008700000000 1.0
C      1  0.4611200000000  0.5283210000000  0.5141590000000 1.0
C      1  0.4571830000000  0.4529420000000  0.4517920000000 1.0
C      1  0.4841750000000  0.5337110000000  0.4942370000000 1.0
C      1  0.5351360000000  0.4882900000000  0.4457130000000 1.0
C      1  0.4791280000000  0.4800670000000  0.5347880000000 1.0
C      1  0.5176830000000  0.5301980000000  0.5583710000000 1.0
C      1  0.4898640000000  0.4551050000000  0.4834610000000 1.0
C      1  0.5068100000000  0.5224160000000  0.5308510000000 1.0
C      1  0.4887490000000  0.5482990000000  0.4692630000000 1.0
C      1  0.4620980000000  0.5289970000000  0.5450650000000 1.0
C      1  0.5289040000000  0.5579030000000  0.5082170000000 1.0
C      1  0.4958020000000  0.5292400000000  0.4487450000000 1.0
C      1  0.5355590000000  0.5066110000000  0.4683670000000 1.0
C      1  0.5275540000000  0.5045800000000  0.5201220000000 1.0
C      1  0.5273850000000  0.4797700000000  0.5382200000000 1.0
C      1  0.4866230000000  0.4417010000000  0.5269570000000 1.0
C      1  0.5618730000000  0.5062050000000  0.4835560000000 1.0
C      1  0.5027100000000  0.5098360000000  0.5719990000000 1.0
C      1  0.5227760000000  0.5320240000000  0.4584610000000 1.0
C      1  0.5179000000000  0.5583000000000  0.4695340000000 1.0
C      1  0.4732870000000  0.4797030000000  0.4881290000000 1.0
C      1  0.5287100000000  0.5755080000000  0.4866890000000 1.0
C      1  0.5042600000000  0.4665920000000  0.5264460000000 1.0
C      1  0.4844170000000  0.4551580000000  0.4546070000000 1.0
C      1  0.5434360000000  0.5186120000000  0.5592010000000 1.0
C      1  0.4959740000000  0.4784970000000  0.4418730000000 1.0
C      1  0.4747870000000  0.5179760000000  0.5656930000000 1.0
C      1  0.4366930000000  0.4687060000000  0.4924530000000 1.0
END
