TITL C-131256-6717-4 0.107990927652795 125000 -417.825760858296 0 0 61 (C1) n - 1
REM
REM in /rds/project/t2_vol4/rds-t2-cs072/BORA/CARBON/from-Arr/AIRSS/Generating-Clusters/GAP-ML-2020/Only-C1/SD-CG/HFTN-CG
REM
REM
REM
REM
REM
REM ./C.cell (11c1c37f851c82e70ff6c80c92926a4b)
REM AIRSS Version 0.9.1 bugfix July 2018 build 013d7b7c2542+ Fri, 06 Jul 2018 19:26:36 +0100
REM compiler GCC version 9.3.0
REM options -cpp -mtune=generic -march=x86-64 -g -O0
REM seed -80452380 1310240138 1104062999 -1474689310 -668345617 -729779639 130652221 -117406837 1911885578 1390008277 1881007933 2147079224 -1654825726 -2082260010 1328072344 -1964961862 -1516675801 -1231176971 1659599111 -224793376 2113360879 -133810747 2101749082 1397584698 -824695034 -2036661057 -1120225710 1342644694 -57693724 829814978 -1931414980 241207868 2111556830
REM
CELL 1.54180   50.00000   50.00000   50.00000   90.00000   90.00000   90.00000
LATT -1
SFAC C  
C      1  0.5321590000000  0.4433380000000  0.4870290000000 1.0
C      1  0.4488510000000  0.4294690000000  0.5292820000000 1.0
C      1  0.4854530000000  0.5779490000000  0.5041730000000 1.0
C      1  0.4779300000000  0.4738530000000  0.5575810000000 1.0
C      1  0.4774420000000  0.5584390000000  0.5253220000000 1.0
C      1  0.5014080000000  0.5033600000000  0.5029250000000 1.0
C      1  0.4615790000000  0.5061830000000  0.4393360000000 1.0
C      1  0.5277920000000  0.4955540000000  0.4890620000000 1.0
C      1  0.5365220000000  0.4761500000000  0.5433020000000 1.0
C      1  0.5191740000000  0.4384380000000  0.5121160000000 1.0
C      1  0.5033250000000  0.4781630000000  0.4473100000000 1.0
C      1  0.4347140000000  0.4817870000000  0.4804020000000 1.0
C      1  0.5056550000000  0.5783160000000  0.4826580000000 1.0
C      1  0.5718160000000  0.5348920000000  0.5397570000000 1.0
C      1  0.4598160000000  0.5167360000000  0.5479810000000 1.0
C      1  0.4862000000000  0.5578480000000  0.4859730000000 1.0
C      1  0.5015750000000  0.5539760000000  0.5395380000000 1.0
C      1  0.5136340000000  0.4513780000000  0.4435600000000 1.0
C      1  0.4856090000000  0.4707580000000  0.4723110000000 1.0
C      1  0.5427940000000  0.5200480000000  0.4497250000000 1.0
C      1  0.5707970000000  0.5041700000000  0.4830470000000 1.0
C      1  0.5298880000000  0.5633510000000  0.4752390000000 1.0
C      1  0.5625710000000  0.5141290000000  0.5246170000000 1.0
C      1  0.4762080000000  0.4338960000000  0.5285080000000 1.0
C      1  0.5279300000000  0.5236390000000  0.5626000000000 1.0
C      1  0.5303920000000  0.5434170000000  0.4981200000000 1.0
C      1  0.5202560000000  0.5020420000000  0.4606740000000 1.0
C      1  0.5670090000000  0.4784020000000  0.4995560000000 1.0
C      1  0.4878400000000  0.4276890000000  0.4788610000000 1.0
C      1  0.4862490000000  0.4967000000000  0.4272720000000 1.0
C      1  0.5481460000000  0.5180110000000  0.4986980000000 1.0
C      1  0.4463190000000  0.5242590000000  0.4751530000000 1.0
C      1  0.4955690000000  0.4930490000000  0.5676730000000 1.0
C      1  0.5678420000000  0.5105260000000  0.4573030000000 1.0
C      1  0.4567260000000  0.5358920000000  0.5259270000000 1.0
C      1  0.5451920000000  0.5386970000000  0.5453790000000 1.0
C      1  0.5024970000000  0.5332690000000  0.4901620000000 1.0
C      1  0.5188740000000  0.4542260000000  0.5363950000000 1.0
C      1  0.4318190000000  0.4962800000000  0.5055150000000 1.0
C      1  0.5024890000000  0.5369060000000  0.5617880000000 1.0
C      1  0.4421880000000  0.5232970000000  0.5038930000000 1.0
C      1  0.5437460000000  0.4689760000000  0.4875130000000 1.0
C      1  0.4380060000000  0.4780440000000  0.5265770000000 1.0
C      1  0.4547350000000  0.4882430000000  0.5465390000000 1.0
C      1  0.4680320000000  0.5280340000000  0.4570370000000 1.0
C      1  0.5593660000000  0.4855890000000  0.5272180000000 1.0
C      1  0.4685260000000  0.4473450000000  0.4734840000000 1.0
C      1  0.4912340000000  0.4520330000000  0.5452840000000 1.0
C      1  0.4406600000000  0.4998960000000  0.4595400000000 1.0
C      1  0.4824410000000  0.4864350000000  0.4951300000000 1.0
C      1  0.4440480000000  0.4549900000000  0.4860470000000 1.0
C      1  0.5139190000000  0.4355310000000  0.4655380000000 1.0
C      1  0.5004890000000  0.5196450000000  0.4196160000000 1.0
C      1  0.4987050000000  0.5254520000000  0.4626590000000 1.0
C      1  0.4417120000000  0.4517010000000  0.5148950000000 1.0
C      1  0.4822860000000  0.5184890000000  0.5655840000000 1.0
C      1  0.5272010000000  0.5519570000000  0.5266120000000 1.0
C      1  0.5236080000000  0.4952710000000  0.5614800000000 1.0
C      1  0.4936750000000  0.4265760000000  0.5069590000000 1.0
C      1  0.5310730000000  0.5470690000000  0.4500450000000 1.0
C      1  0.5062890000000  0.5402440000000  0.4365200000000 1.0
END
