TITL C-130732-6831-11 238.103708752034 125000 -798.631563282065 0 0 116 (C1) n - 1
REM
REM in /rds/project/t2_vol4/rds-t2-cs072/BORA/CARBON/from-Arr/AIRSS/Generating-Clusters/GAP-ML-2020/Only-C1/SD-CG/HFTN-CG
REM
REM
REM
REM
REM
REM ./C.cell (11c1c37f851c82e70ff6c80c92926a4b)
REM AIRSS Version 0.9.1 bugfix July 2018 build 013d7b7c2542+ Fri, 06 Jul 2018 19:26:36 +0100
REM compiler GCC version 9.3.0
REM options -cpp -mtune=generic -march=x86-64 -g -O0
REM seed -1287656494 -1247159972 -514362438 2062115995 -1867170366 -964534675 2121079345 679621300 40056329 -1502687682 -1969637737 -809877655 1824415068 1899180495 -635203837 1063639361 358596648 -438379137 826403211 -634046368 -1505802978 693464179 -1306029111 1059186774 -1240852447 1083799434 144805267 1252591399 -1852335 -1610485164 1190681574 -1263684695 -1701753194
REM
CELL 1.54180   50.00000   50.00000   50.00000   90.00000   90.00000   90.00000
LATT -1
SFAC C  
C      1  0.4517710000000  0.5530340000000  0.4557430000000 1.0
C      1  0.5029370000000  0.4651910000000  0.4534930000000 1.0
C      1  0.4910830000000  0.5587530000000  0.5448470000000 1.0
C      1  0.5416460000000  0.4341430000000  0.5127350000000 1.0
C      1  0.5820630000000  0.5131660000000  0.4594490000000 1.0
C      1  0.5182580000000  0.4192530000000  0.4475580000000 1.0
C      1  0.4456520000000  0.4311800000000  0.4852250000000 1.0
C      1  0.5740690000000  0.4644470000000  0.4680820000000 1.0
C      1  0.4199840000000  0.4451920000000  0.5283860000000 1.0
C      1  0.4802870000000  0.4434330000000  0.4530640000000 1.0
C      1  0.4722630000000  0.5405370000000  0.4978560000000 1.0
C      1  0.4331630000000  0.5670280000000  0.5053250000000 1.0
C      1  0.5180260000000  0.5934650000000  0.4930810000000 1.0
C      1  0.5093020000000  0.5056660000000  0.4810950000000 1.0
C      1  0.4163360000000  0.5153720000000  0.4522660000000 1.0
C      1  0.5788990000000  0.5074870000000  0.5484440000000 1.0
C      1  0.5196750000000  0.4631360000000  0.4273510000000 1.0
C      1  0.5188500000000  0.4344090000000  0.5568130000000 1.0
C      1  0.4935720000000  0.4189050000000  0.5192620000000 1.0
C      1  0.5755810000000  0.4738420000000  0.4953290000000 1.0
C      1  0.4197970000000  0.5465170000000  0.5213240000000 1.0
C      1  0.4545120000000  0.4782250000000  0.4272370000000 1.0
C      1  0.5484370000000  0.4921470000000  0.5810130000000 1.0
C      1  0.5014180000000  0.5594730000000  0.4364800000000 1.0
C      1  0.5524710000000  0.4987560000000  0.4933970000000 1.0
C      1  0.5189330000000  0.5356140000000  0.5789040000000 1.0
C      1  0.4913800000000  0.5558490000000  0.4826730000000 1.0
C      1  0.5387960000000  0.5304250000000  0.5291230000000 1.0
C      1  0.5456800000000  0.5859850000000  0.5010460000000 1.0
C      1  0.5028100000000  0.4671380000000  0.5866200000000 1.0
C      1  0.5428490000000  0.5418140000000  0.4791960000000 1.0
C      1  0.5279830000000  0.4667540000000  0.4683840000000 1.0
C      1  0.4913550000000  0.5098590000000  0.4350460000000 1.0
C      1  0.4141680000000  0.4956070000000  0.5397950000000 1.0
C      1  0.4344610000000  0.5548250000000  0.5448760000000 1.0
C      1  0.5574800000000  0.5731030000000  0.5235830000000 1.0
C      1  0.5953950000000  0.5157900000000  0.4836730000000 1.0
C      1  0.4368000000000  0.4787570000000  0.4771670000000 1.0
C      1  0.4791540000000  0.5786880000000  0.5281790000000 1.0
C      1  0.4121010000000  0.4971280000000  0.4722370000000 1.0
C      1  0.5498250000000  0.4473360000000  0.4636010000000 1.0
C      1  0.5022010000000  0.5025520000000  0.5534340000000 1.0
C      1  0.4602080000000  0.4895550000000  0.5790760000000 1.0
C      1  0.4186260000000  0.5114300000000  0.5629010000000 1.0
C      1  0.3944680000000  0.4544470000000  0.5227170000000 1.0
C      1  0.5766300000000  0.4864690000000  0.4490410000000 1.0
C      1  0.4682580000000  0.4339560000000  0.5278600000000 1.0
C      1  0.5969680000000  0.4929550000000  0.5019080000000 1.0
C      1  0.5191970000000  0.4252890000000  0.5301600000000 1.0
C      1  0.5460150000000  0.5740440000000  0.4262410000000 1.0
C      1  0.5363740000000  0.5139120000000  0.4427990000000 1.0
C      1  0.4010110000000  0.5008080000000  0.4987700000000 1.0
C      1  0.4839470000000  0.5341970000000  0.5278760000000 1.0
C      1  0.5390400000000  0.5565080000000  0.5409310000000 1.0
C      1  0.4944480000000  0.4170280000000  0.4913810000000 1.0
C      1  0.4367130000000  0.4516250000000  0.4655900000000 1.0
C      1  0.5105610000000  0.4944050000000  0.5094930000000 1.0
C      1  0.5611540000000  0.4856990000000  0.4264800000000 1.0
C      1  0.5342860000000  0.4953570000000  0.4699030000000 1.0
C      1  0.5104980000000  0.5175730000000  0.5293750000000 1.0
C      1  0.5926000000000  0.5099820000000  0.5248030000000 1.0
C      1  0.5313200000000  0.4693740000000  0.5841120000000 1.0
C      1  0.3945570000000  0.4819210000000  0.5188630000000 1.0
C      1  0.4939280000000  0.5804770000000  0.5016700000000 1.0
C      1  0.4480580000000  0.5057490000000  0.5130760000000 1.0
C      1  0.4639630000000  0.5125010000000  0.5372560000000 1.0
C      1  0.4509630000000  0.5737070000000  0.5290800000000 1.0
C      1  0.4715560000000  0.4676180000000  0.4089780000000 1.0
C      1  0.4861250000000  0.4909800000000  0.5909560000000 1.0
C      1  0.4950960000000  0.4448930000000  0.5696440000000 1.0
C      1  0.5483510000000  0.5725570000000  0.4734130000000 1.0
C      1  0.5555560000000  0.4594490000000  0.5191250000000 1.0
C      1  0.5612980000000  0.4599710000000  0.5491080000000 1.0
C      1  0.4576800000000  0.4701480000000  0.5563890000000 1.0
C      1  0.4706360000000  0.4443210000000  0.5556230000000 1.0
C      1  0.5686520000000  0.4846410000000  0.5619160000000 1.0
C      1  0.4708060000000  0.4590320000000  0.5062820000000 1.0
C      1  0.4903510000000  0.4759240000000  0.5180950000000 1.0
C      1  0.4404800000000  0.4296680000000  0.5144290000000 1.0
C      1  0.5838830000000  0.5331640000000  0.5072420000000 1.0
C      1  0.4594810000000  0.5061240000000  0.4386850000000 1.0
C      1  0.5062990000000  0.4974890000000  0.4118570000000 1.0
C      1  0.4615950000000  0.4971750000000  0.4679120000000 1.0
C      1  0.5430370000000  0.5200660000000  0.5768270000000 1.0
C      1  0.4791260000000  0.5605470000000  0.4543400000000 1.0
C      1  0.5817000000000  0.5596210000000  0.5174730000000 1.0
C      1  0.4456500000000  0.4766570000000  0.5075110000000 1.0
C      1  0.4497490000000  0.5135170000000  0.5655120000000 1.0
C      1  0.5160080000000  0.5566220000000  0.5592490000000 1.0
C      1  0.4979590000000  0.4700360000000  0.4075050000000 1.0
C      1  0.4537550000000  0.4541080000000  0.4436640000000 1.0
C      1  0.5376640000000  0.4842920000000  0.5135510000000 1.0
C      1  0.5256610000000  0.5894300000000  0.4646000000000 1.0
C      1  0.5341950000000  0.4914290000000  0.4217810000000 1.0
C      1  0.5588160000000  0.5315740000000  0.4534780000000 1.0
C      1  0.4997210000000  0.5144370000000  0.5794720000000 1.0
C      1  0.5199660000000  0.5804690000000  0.4378300000000 1.0
C      1  0.4387580000000  0.5283790000000  0.4425100000000 1.0
C      1  0.5360930000000  0.4392170000000  0.4383940000000 1.0
C      1  0.4796830000000  0.4877900000000  0.5422160000000 1.0
C      1  0.4911240000000  0.4914750000000  0.4609050000000 1.0
C      1  0.5595430000000  0.5607090000000  0.4449700000000 1.0
C      1  0.5136700000000  0.5354880000000  0.4747360000000 1.0
C      1  0.4195820000000  0.5163480000000  0.5166910000000 1.0
C      1  0.4625350000000  0.5150190000000  0.4906840000000 1.0
C      1  0.5410220000000  0.4279510000000  0.4851090000000 1.0
C      1  0.4313560000000  0.5358970000000  0.5657750000000 1.0
C      1  0.4479660000000  0.5581580000000  0.4841210000000 1.0
C      1  0.5186250000000  0.4139300000000  0.4756050000000 1.0
C      1  0.4938760000000  0.4231580000000  0.4374320000000 1.0
C      1  0.5102150000000  0.5316430000000  0.4438470000000 1.0
C      1  0.4743900000000  0.4356870000000  0.4816400000000 1.0
C      1  0.5538490000000  0.5275650000000  0.5030520000000 1.0
C      1  0.5567900000000  0.5258030000000  0.5527860000000 1.0
C      1  0.5409170000000  0.4495030000000  0.5658010000000 1.0
C      1  0.4339390000000  0.4713730000000  0.5375240000000 1.0
END
