TITL C-134185-9837-11 -0.00305615738003941 125000 -40.5000966775596 0 0 7 (Cs) n - 1
REM
REM in /rds/project/t2_vol4/rds-t2-cs072/BORA/CARBON/from-Arr/AIRSS/Generating-Clusters/GAP-ML-2020/Only-C1/SD-CG/HFTN-CG
REM
REM
REM
REM
REM
REM ./C.cell (11c1c37f851c82e70ff6c80c92926a4b)
REM AIRSS Version 0.9.1 bugfix July 2018 build 013d7b7c2542+ Fri, 06 Jul 2018 19:26:36 +0100
REM compiler GCC version 9.3.0
REM options -cpp -mtune=generic -march=x86-64 -g -O0
REM seed 1708311170 82431112 270043403 1429259597 1778110810 -2079556336 1952423480 413801632 -1752528637 -492080130 330481202 1541466695 1577388976 -1691854988 185057255 -1646311299 1068625983 -1191601890 2020355938 1888919253 67598390 722577799 1179170617 16539397 -964354406 -460027057 1230567929 1860553732 684949904 -824034457 -1367418346 -2069081 -313146179
REM
CELL 1.54180   50.00000   50.00000   50.00000   90.00000   90.00000   90.00000
LATT -1
SFAC C  
C      1  0.5196700000000  0.4804720000000  0.4946670000000 1.0
C      1  0.4753250000000  0.4845060000000  0.5046980000000 1.0
C      1  0.4964650000000  0.4701050000000  0.4992940000000 1.0
C      1  0.4996210000000  0.5276010000000  0.5150690000000 1.0
C      1  0.4938840000000  0.5288910000000  0.4891860000000 1.0
C      1  0.4765550000000  0.5106880000000  0.5057290000000 1.0
C      1  0.5384790000000  0.4977360000000  0.4913580000000 1.0
END
