TITL C-136403-9141-8 11.1413381813348 125000 -277.943892674226 0 0 42 (C1) n - 1
REM
REM in /rds/project/t2_vol4/rds-t2-cs072/BORA/CARBON/from-Arr/AIRSS/Generating-Clusters/GAP-ML-2020/Only-C1/SD-CG/HFTN-CG
REM
REM
REM
REM
REM
REM ./C.cell (11c1c37f851c82e70ff6c80c92926a4b)
REM AIRSS Version 0.9.1 bugfix July 2018 build 013d7b7c2542+ Fri, 06 Jul 2018 19:26:36 +0100
REM compiler GCC version 9.3.0
REM options -cpp -mtune=generic -march=x86-64 -g -O0
REM seed 175126655 -736430032 587837782 1166146361 -282693919 1962370584 -1674555414 1011729314 -37025422 -1853042479 1064687052 -949080998 189897122 1622196860 -1113729755 -1632858367 864696283 118234433 -360900837 -1920927525 -634456601 -396795027 -1132969776 212580122 1015704026 1173720755 -1974348551 -264549204 2095919361 1525556375 1524921774 -2103616704 717462998
REM
CELL 1.54180   50.00000   50.00000   50.00000   90.00000   90.00000   90.00000
LATT -1
SFAC C  
C      1  0.5166780000000  0.5486680000000  0.5249340000000 1.0
C      1  0.5309730000000  0.5550160000000  0.4691320000000 1.0
C      1  0.4917630000000  0.4522890000000  0.4658070000000 1.0
C      1  0.4801700000000  0.4746600000000  0.4525980000000 1.0
C      1  0.5339660000000  0.4927720000000  0.5517010000000 1.0
C      1  0.4488750000000  0.5070540000000  0.4651520000000 1.0
C      1  0.4538590000000  0.4793140000000  0.4651730000000 1.0
C      1  0.5417500000000  0.4806010000000  0.5072650000000 1.0
C      1  0.5372470000000  0.5279880000000  0.5184780000000 1.0
C      1  0.5225000000000  0.5038530000000  0.5077920000000 1.0
C      1  0.5097930000000  0.4794120000000  0.5607870000000 1.0
C      1  0.5150380000000  0.4570530000000  0.5428940000000 1.0
C      1  0.5187170000000  0.5056190000000  0.4568970000000 1.0
C      1  0.5387360000000  0.4693560000000  0.5331800000000 1.0
C      1  0.5026160000000  0.5605060000000  0.5036190000000 1.0
C      1  0.4505410000000  0.4764330000000  0.5165660000000 1.0
C      1  0.5509450000000  0.5293890000000  0.4878930000000 1.0
C      1  0.4729460000000  0.4456770000000  0.4870920000000 1.0
C      1  0.4902740000000  0.5392210000000  0.5361220000000 1.0
C      1  0.4781070000000  0.5418400000000  0.4682220000000 1.0
C      1  0.4944470000000  0.4400920000000  0.5048500000000 1.0
C      1  0.5462510000000  0.5054330000000  0.4671030000000 1.0
C      1  0.4439900000000  0.5191750000000  0.4917730000000 1.0
C      1  0.4833690000000  0.4887230000000  0.5542890000000 1.0
C      1  0.4718870000000  0.5194660000000  0.4526310000000 1.0
C      1  0.5555740000000  0.5548200000000  0.4783380000000 1.0
C      1  0.5398270000000  0.4577780000000  0.4858540000000 1.0
C      1  0.4844780000000  0.5128400000000  0.5393680000000 1.0
C      1  0.4528940000000  0.4644980000000  0.4902050000000 1.0
C      1  0.5149010000000  0.4457640000000  0.4843150000000 1.0
C      1  0.4762420000000  0.5525360000000  0.5139240000000 1.0
C      1  0.4695800000000  0.4680860000000  0.5373810000000 1.0
C      1  0.5534110000000  0.4803920000000  0.4797040000000 1.0
C      1  0.4906790000000  0.4490850000000  0.5308790000000 1.0
C      1  0.4436150000000  0.5028810000000  0.5136580000000 1.0
C      1  0.4619570000000  0.5421560000000  0.4922190000000 1.0
C      1  0.5080420000000  0.5137800000000  0.4835280000000 1.0
C      1  0.5057380000000  0.5456760000000  0.4780170000000 1.0
C      1  0.4846320000000  0.4994180000000  0.4931210000000 1.0
C      1  0.4927120000000  0.5000050000000  0.4451890000000 1.0
C      1  0.5434490000000  0.5158520000000  0.5439100000000 1.0
C      1  0.4968300000000  0.4948220000000  0.5184390000000 1.0
END
