TITL C-130721-6930-6 3.50405350294698 125000 -695.511388859822 0 0 100 (C1) n - 1
REM
REM in /rds/project/t2_vol4/rds-t2-cs072/BORA/CARBON/from-Arr/AIRSS/Generating-Clusters/GAP-ML-2020/Only-C1/SD-CG/HFTN-CG
REM
REM
REM
REM
REM
REM ./C.cell (11c1c37f851c82e70ff6c80c92926a4b)
REM AIRSS Version 0.9.1 bugfix July 2018 build 013d7b7c2542+ Fri, 06 Jul 2018 19:26:36 +0100
REM compiler GCC version 9.3.0
REM options -cpp -mtune=generic -march=x86-64 -g -O0
REM seed -735145154 -2030595358 370958120 -1728766147 -703423317 -605403042 -2054067003 -2087172454 2122600517 -259704247 1484650477 95919115 1214349761 1540221749 936846331 -1370466381 2108523100 -2091225419 1953244108 -1975884747 670405691 -478900119 694389405 1337372738 1153213724 879869834 -321790032 -910725912 -781253673 1063847641 765861950 1802105354 1623719161
REM
CELL 1.54180   50.00000   50.00000   50.00000   90.00000   90.00000   90.00000
LATT -1
SFAC C  
C      1  0.5478740000000  0.4482810000000  0.5107090000000 1.0
C      1  0.5340110000000  0.5443600000000  0.5507960000000 1.0
C      1  0.4570990000000  0.5357470000000  0.4359600000000 1.0
C      1  0.4373780000000  0.4452930000000  0.4978210000000 1.0
C      1  0.5066780000000  0.5373900000000  0.5113030000000 1.0
C      1  0.4204460000000  0.5291710000000  0.5344830000000 1.0
C      1  0.5808280000000  0.4954690000000  0.5109320000000 1.0
C      1  0.4508030000000  0.4426450000000  0.4517890000000 1.0
C      1  0.5773120000000  0.4588510000000  0.5597580000000 1.0
C      1  0.5187770000000  0.5815700000000  0.5184890000000 1.0
C      1  0.4479250000000  0.5095710000000  0.4247600000000 1.0
C      1  0.5545200000000  0.5029040000000  0.5731770000000 1.0
C      1  0.5410300000000  0.4497160000000  0.5858430000000 1.0
C      1  0.4664050000000  0.4228540000000  0.4664700000000 1.0
C      1  0.4832070000000  0.5410750000000  0.4248720000000 1.0
C      1  0.5484560000000  0.5165530000000  0.5465980000000 1.0
C      1  0.4055620000000  0.5232200000000  0.5116950000000 1.0
C      1  0.5058090000000  0.5387000000000  0.5402260000000 1.0
C      1  0.5438030000000  0.5368200000000  0.4335880000000 1.0
C      1  0.4617620000000  0.5468070000000  0.5495380000000 1.0
C      1  0.5144750000000  0.5004100000000  0.4135620000000 1.0
C      1  0.4555630000000  0.4238050000000  0.4936830000000 1.0
C      1  0.5090570000000  0.4395150000000  0.5445820000000 1.0
C      1  0.5365620000000  0.5801520000000  0.4959710000000 1.0
C      1  0.4552120000000  0.5495830000000  0.4613510000000 1.0
C      1  0.4532180000000  0.4762700000000  0.5786740000000 1.0
C      1  0.4872860000000  0.5619030000000  0.5473130000000 1.0
C      1  0.4694100000000  0.5001040000000  0.4092040000000 1.0
C      1  0.5551150000000  0.4428510000000  0.4649920000000 1.0
C      1  0.4218250000000  0.4817920000000  0.5275600000000 1.0
C      1  0.5731860000000  0.4674320000000  0.5012200000000 1.0
C      1  0.5806800000000  0.5131940000000  0.4640590000000 1.0
C      1  0.5308120000000  0.4378300000000  0.4480600000000 1.0
C      1  0.5081860000000  0.5179950000000  0.4712870000000 1.0
C      1  0.5727430000000  0.4874050000000  0.4564310000000 1.0
C      1  0.5342000000000  0.5059230000000  0.4743000000000 1.0
C      1  0.4401880000000  0.5498570000000  0.5319960000000 1.0
C      1  0.5016880000000  0.4632280000000  0.5631670000000 1.0
C      1  0.5218070000000  0.5475640000000  0.5789470000000 1.0
C      1  0.5615660000000  0.5538650000000  0.4701480000000 1.0
C      1  0.4721780000000  0.5715720000000  0.5001240000000 1.0
C      1  0.5376650000000  0.4378330000000  0.5381130000000 1.0
C      1  0.4909310000000  0.5787760000000  0.5214980000000 1.0
C      1  0.5721310000000  0.5460990000000  0.4953730000000 1.0
C      1  0.4541510000000  0.4622380000000  0.4304880000000 1.0
C      1  0.5196670000000  0.4213320000000  0.4709370000000 1.0
C      1  0.4066430000000  0.4945660000000  0.5068170000000 1.0
C      1  0.5017010000000  0.5121250000000  0.5018040000000 1.0
C      1  0.5744210000000  0.4855790000000  0.5600260000000 1.0
C      1  0.5275840000000  0.4954530000000  0.5023160000000 1.0
C      1  0.4521040000000  0.5128120000000  0.5057640000000 1.0
C      1  0.5436440000000  0.4288690000000  0.4871440000000 1.0
C      1  0.4135280000000  0.5290550000000  0.4852250000000 1.0
C      1  0.5004740000000  0.4630960000000  0.5014860000000 1.0
C      1  0.4884810000000  0.5036580000000  0.4570610000000 1.0
C      1  0.4914790000000  0.5172850000000  0.4101840000000 1.0
C      1  0.4848800000000  0.4316240000000  0.5310360000000 1.0
C      1  0.4760080000000  0.4726190000000  0.4141910000000 1.0
C      1  0.5012500000000  0.5660950000000  0.5722200000000 1.0
C      1  0.5196510000000  0.4506160000000  0.4266710000000 1.0
C      1  0.5028880000000  0.4886100000000  0.5444660000000 1.0
C      1  0.4975420000000  0.5593080000000  0.4402710000000 1.0
C      1  0.5672570000000  0.5356090000000  0.4504060000000 1.0
C      1  0.5072330000000  0.5469240000000  0.4819140000000 1.0
C      1  0.4845890000000  0.4780000000000  0.5230340000000 1.0
C      1  0.4350590000000  0.5486420000000  0.4817150000000 1.0
C      1  0.4746060000000  0.4995540000000  0.5034500000000 1.0
C      1  0.4931860000000  0.4152560000000  0.4784220000000 1.0
C      1  0.5309200000000  0.4979350000000  0.5874990000000 1.0
C      1  0.5537510000000  0.4434840000000  0.5617130000000 1.0
C      1  0.4384560000000  0.4586390000000  0.5229800000000 1.0
C      1  0.5818120000000  0.5182390000000  0.4924080000000 1.0
C      1  0.4659420000000  0.4559540000000  0.5359950000000 1.0
C      1  0.4277490000000  0.5032830000000  0.5459320000000 1.0
C      1  0.4219810000000  0.4802870000000  0.4609130000000 1.0
C      1  0.4670780000000  0.5219590000000  0.5619460000000 1.0
C      1  0.5138170000000  0.5198990000000  0.5829840000000 1.0
C      1  0.4477600000000  0.5012240000000  0.5658820000000 1.0
C      1  0.5339330000000  0.5647460000000  0.4710250000000 1.0
C      1  0.5372010000000  0.5101100000000  0.4265290000000 1.0
C      1  0.5752370000000  0.5029870000000  0.5372790000000 1.0
C      1  0.4110530000000  0.4992190000000  0.4786320000000 1.0
C      1  0.4325990000000  0.4552140000000  0.4709920000000 1.0
C      1  0.4804560000000  0.4178200000000  0.5061900000000 1.0
C      1  0.5569900000000  0.5648900000000  0.5116330000000 1.0
C      1  0.5052690000000  0.4715270000000  0.4163300000000 1.0
C      1  0.5725870000000  0.4642690000000  0.4730490000000 1.0
C      1  0.4464850000000  0.5608510000000  0.5056120000000 1.0
C      1  0.4748540000000  0.4879880000000  0.4744460000000 1.0
C      1  0.5222900000000  0.4693550000000  0.5841730000000 1.0
C      1  0.4954230000000  0.5156400000000  0.5583700000000 1.0
C      1  0.4852970000000  0.4632050000000  0.4784930000000 1.0
C      1  0.4710160000000  0.4615000000000  0.5651360000000 1.0
C      1  0.5300820000000  0.4959720000000  0.5331690000000 1.0
C      1  0.5401100000000  0.5669120000000  0.5341390000000 1.0
C      1  0.5255380000000  0.5590930000000  0.4427610000000 1.0
C      1  0.5272040000000  0.4674840000000  0.4987540000000 1.0
C      1  0.5457420000000  0.4937080000000  0.4496730000000 1.0
C      1  0.4366550000000  0.4853180000000  0.4362860000000 1.0
C      1  0.4813200000000  0.5604090000000  0.4716050000000 1.0
END
