TITL C-131281-6759-6 1.15862514068122 125000 -475.670926811401 0 0 71 (C1) n - 1
REM
REM in /rds/project/t2_vol4/rds-t2-cs072/BORA/CARBON/from-Arr/AIRSS/Generating-Clusters/GAP-ML-2020/Only-C1/SD-CG/HFTN-CG
REM
REM
REM
REM
REM
REM ./C.cell (11c1c37f851c82e70ff6c80c92926a4b)
REM AIRSS Version 0.9.1 bugfix July 2018 build 013d7b7c2542+ Fri, 06 Jul 2018 19:26:36 +0100
REM compiler GCC version 9.3.0
REM options -cpp -mtune=generic -march=x86-64 -g -O0
REM seed 1528472728 -1786542719 1238207245 -960275660 702667409 -22717929 82887822 -1671697372 -591899563 -1638641696 150261629 169681981 -125981561 400712625 -1460170161 -1577764422 1737852911 569865861 -1667074837 -2108615540 -38147421 -1992862853 -1749563018 2125242312 -137416987 -1721933370 1264913610 -1008837357 791688818 -1285501826 -931950079 999426289 1519085339
REM
CELL 1.54180   50.00000   50.00000   50.00000   90.00000   90.00000   90.00000
LATT -1
SFAC C  
C      1  0.4917800000000  0.5216480000000  0.5696960000000 1.0
C      1  0.4933050000000  0.5176840000000  0.5132800000000 1.0
C      1  0.4873370000000  0.5218190000000  0.4181130000000 1.0
C      1  0.5273680000000  0.4259080000000  0.4976280000000 1.0
C      1  0.5533450000000  0.4371360000000  0.4987050000000 1.0
C      1  0.5332110000000  0.4941540000000  0.4303320000000 1.0
C      1  0.5057260000000  0.5016390000000  0.4242110000000 1.0
C      1  0.4555910000000  0.5511910000000  0.5245840000000 1.0
C      1  0.5169280000000  0.4465360000000  0.4822920000000 1.0
C      1  0.4412130000000  0.5401370000000  0.4757130000000 1.0
C      1  0.5277370000000  0.4921030000000  0.4856390000000 1.0
C      1  0.5241530000000  0.5690180000000  0.5152840000000 1.0
C      1  0.4542150000000  0.5570880000000  0.4963830000000 1.0
C      1  0.5260060000000  0.4663300000000  0.5305180000000 1.0
C      1  0.4335180000000  0.4723850000000  0.4960440000000 1.0
C      1  0.4832730000000  0.4752420000000  0.5664780000000 1.0
C      1  0.4434340000000  0.5314450000000  0.5413430000000 1.0
C      1  0.5738390000000  0.4748750000000  0.5117980000000 1.0
C      1  0.4770020000000  0.4978920000000  0.5252130000000 1.0
C      1  0.4827670000000  0.4725790000000  0.5120840000000 1.0
C      1  0.5206660000000  0.5177540000000  0.5253700000000 1.0
C      1  0.5654860000000  0.5236930000000  0.5085160000000 1.0
C      1  0.4742480000000  0.4487940000000  0.5285410000000 1.0
C      1  0.4360930000000  0.5113120000000  0.4855370000000 1.0
C      1  0.4871090000000  0.4503380000000  0.5539260000000 1.0
C      1  0.5356170000000  0.5611290000000  0.4906980000000 1.0
C      1  0.4886850000000  0.5156790000000  0.4853840000000 1.0
C      1  0.4444010000000  0.5345240000000  0.5686680000000 1.0
C      1  0.5530190000000  0.5055200000000  0.4478940000000 1.0
C      1  0.5366140000000  0.4687770000000  0.4442330000000 1.0
C      1  0.4475080000000  0.5392630000000  0.4486830000000 1.0
C      1  0.5173370000000  0.4514400000000  0.4539460000000 1.0
C      1  0.4793270000000  0.4273470000000  0.5095480000000 1.0
C      1  0.4640310000000  0.5164490000000  0.5748120000000 1.0
C      1  0.5074610000000  0.4243330000000  0.5184380000000 1.0
C      1  0.4946060000000  0.5753970000000  0.4686720000000 1.0
C      1  0.4906750000000  0.4585850000000  0.4487540000000 1.0
C      1  0.5259300000000  0.4936200000000  0.5449030000000 1.0
C      1  0.4631810000000  0.4954710000000  0.4483730000000 1.0
C      1  0.5524250000000  0.5378050000000  0.4870840000000 1.0
C      1  0.4439460000000  0.4724620000000  0.4520570000000 1.0
C      1  0.4795150000000  0.5721170000000  0.4910290000000 1.0
C      1  0.4625560000000  0.5217330000000  0.4332810000000 1.0
C      1  0.4663400000000  0.4528130000000  0.4655340000000 1.0
C      1  0.4980860000000  0.5442940000000  0.5543900000000 1.0
C      1  0.5073140000000  0.5031560000000  0.4690300000000 1.0
C      1  0.5132030000000  0.4704710000000  0.5017800000000 1.0
C      1  0.4255960000000  0.4831220000000  0.4707900000000 1.0
C      1  0.5337590000000  0.5489780000000  0.4479850000000 1.0
C      1  0.5245830000000  0.5426780000000  0.5429310000000 1.0
C      1  0.5646090000000  0.4634640000000  0.4875570000000 1.0
C      1  0.4642720000000  0.4733220000000  0.4897050000000 1.0
C      1  0.4679020000000  0.4315550000000  0.4846770000000 1.0
C      1  0.4951980000000  0.5724110000000  0.5152680000000 1.0
C      1  0.4587220000000  0.4904750000000  0.5629050000000 1.0
C      1  0.5566580000000  0.4628960000000  0.5346140000000 1.0
C      1  0.5560750000000  0.4904910000000  0.5460870000000 1.0
C      1  0.5386970000000  0.5660580000000  0.5389680000000 1.0
C      1  0.4312500000000  0.4956130000000  0.5122130000000 1.0
C      1  0.5623010000000  0.4372190000000  0.5253120000000 1.0
C      1  0.5514330000000  0.4808340000000  0.4670440000000 1.0
C      1  0.4483470000000  0.5016320000000  0.5342620000000 1.0
C      1  0.5521950000000  0.5314590000000  0.4577740000000 1.0
C      1  0.4640640000000  0.5015870000000  0.4780240000000 1.0
C      1  0.5200940000000  0.5650820000000  0.4663210000000 1.0
C      1  0.5047290000000  0.4959620000000  0.5661860000000 1.0
C      1  0.4812960000000  0.5596720000000  0.5358970000000 1.0
C      1  0.4903020000000  0.4862580000000  0.4444380000000 1.0
C      1  0.5712630000000  0.5013970000000  0.5231820000000 1.0
C      1  0.5111860000000  0.4422190000000  0.5409710000000 1.0
C      1  0.5383360000000  0.5145300000000  0.5024690000000 1.0
END
