TITL C-134198-9924-9 -0.0249743031839962 125000 -198.617674849282 0 0 31 (C1) n - 1
REM
REM in /rds/project/t2_vol4/rds-t2-cs072/BORA/CARBON/from-Arr/AIRSS/Generating-Clusters/GAP-ML-2020/Only-C1/SD-CG/HFTN-CG
REM
REM
REM
REM
REM
REM ./C.cell (11c1c37f851c82e70ff6c80c92926a4b)
REM AIRSS Version 0.9.1 bugfix July 2018 build 013d7b7c2542+ Fri, 06 Jul 2018 19:26:36 +0100
REM compiler GCC version 9.3.0
REM options -cpp -mtune=generic -march=x86-64 -g -O0
REM seed -1731595691 1214905941 1543178780 -736849720 -1911497315 -1982318678 1968690125 -841644456 188524703 851744762 -1031575434 -1007590982 -1305206408 -529696308 1087355765 -1833855024 -1430451766 1479932838 931933453 700844935 -1413411753 -568527000 -2039361273 -237791224 1752169421 531972027 1112124062 -971981808 -2033822459 1108887805 -2089677288 1713382790 -1616533811
REM
CELL 1.54180   50.00000   50.00000   50.00000   90.00000   90.00000   90.00000
LATT -1
SFAC C  
C      1  0.5405900000000  0.4736860000000  0.5055950000000 1.0
C      1  0.4567590000000  0.4258250000000  0.4585710000000 1.0
C      1  0.5089350000000  0.4899950000000  0.4673240000000 1.0
C      1  0.5104050000000  0.5562350000000  0.5285000000000 1.0
C      1  0.5224050000000  0.4843220000000  0.5263720000000 1.0
C      1  0.4670830000000  0.5176990000000  0.4586200000000 1.0
C      1  0.4812510000000  0.5400310000000  0.4683780000000 1.0
C      1  0.5133190000000  0.4659320000000  0.5499800000000 1.0
C      1  0.4918560000000  0.5602760000000  0.4798540000000 1.0
C      1  0.5297870000000  0.5137880000000  0.5229400000000 1.0
C      1  0.5244040000000  0.5149540000000  0.4691620000000 1.0
C      1  0.4449000000000  0.5148930000000  0.4433950000000 1.0
C      1  0.4587270000000  0.5179480000000  0.5367760000000 1.0
C      1  0.4937420000000  0.4902040000000  0.5203900000000 1.0
C      1  0.4628820000000  0.4714390000000  0.4837490000000 1.0
C      1  0.5672720000000  0.5079020000000  0.4895970000000 1.0
C      1  0.5498370000000  0.5015310000000  0.4688020000000 1.0
C      1  0.5092570000000  0.5307380000000  0.5384990000000 1.0
C      1  0.4865950000000  0.5141760000000  0.5372050000000 1.0
C      1  0.5582070000000  0.5143880000000  0.5175290000000 1.0
C      1  0.4807690000000  0.4940520000000  0.4745420000000 1.0
C      1  0.4765900000000  0.4679800000000  0.5244230000000 1.0
C      1  0.5149290000000  0.5227460000000  0.4965450000000 1.0
C      1  0.4536340000000  0.4765810000000  0.5105430000000 1.0
C      1  0.4893080000000  0.4561280000000  0.5471270000000 1.0
C      1  0.4488210000000  0.5026060000000  0.5186170000000 1.0
C      1  0.4903830000000  0.5074190000000  0.4982050000000 1.0
C      1  0.4592190000000  0.4475950000000  0.4716240000000 1.0
C      1  0.5090820000000  0.5528380000000  0.5010420000000 1.0
C      1  0.5660050000000  0.4881820000000  0.5087380000000 1.0
C      1  0.5330470000000  0.4779120000000  0.4773570000000 1.0
END
