TITL C-134885-4831-6 -107.203078672878 125000 -665.986028677788 0 0 97 (C1) n - 1
REM
REM in /rds/project/t2_vol4/rds-t2-cs072/BORA/CARBON/from-Arr/AIRSS/Generating-Clusters/GAP-ML-2020/Only-C1/SD-CG/HFTN-CG
REM
REM
REM
REM
REM
REM ./C.cell (11c1c37f851c82e70ff6c80c92926a4b)
REM AIRSS Version 0.9.1 bugfix July 2018 build 013d7b7c2542+ Fri, 06 Jul 2018 19:26:36 +0100
REM compiler GCC version 9.3.0
REM options -cpp -mtune=generic -march=x86-64 -g -O0
REM seed 509370316 404673464 -220514767 1590291832 -1275040810 -45340947 316145386 5551929 1753039856 2082702510 -1802325303 2080822523 1459771401 -1688822585 999107443 2066216005 -217996671 -1442542743 -1827784943 739007868 213875601 2124944518 -902526255 592504103 1205883431 -126180819 1841964544 -918190905 1832027137 -1919427741 -760827412 1273786662 1506947521
REM
CELL 1.54180   50.00000   50.00000   50.00000   90.00000   90.00000   90.00000
LATT -1
SFAC C  
C      1  0.5215520000000  0.4533520000000  0.5780760000000 1.0
C      1  0.4292510000000  0.4881650000000  0.5304370000000 1.0
C      1  0.4772990000000  0.5149050000000  0.4751550000000 1.0
C      1  0.5521290000000  0.4777190000000  0.4270480000000 1.0
C      1  0.4936520000000  0.4733500000000  0.4896840000000 1.0
C      1  0.4391730000000  0.5351830000000  0.5290640000000 1.0
C      1  0.4401490000000  0.5543250000000  0.4654170000000 1.0
C      1  0.5620220000000  0.4644210000000  0.5538260000000 1.0
C      1  0.5813390000000  0.4827970000000  0.4658650000000 1.0
C      1  0.5327440000000  0.5612290000000  0.5511380000000 1.0
C      1  0.5355030000000  0.5346640000000  0.5594530000000 1.0
C      1  0.5392090000000  0.5740040000000  0.4674680000000 1.0
C      1  0.5582230000000  0.5508320000000  0.5155120000000 1.0
C      1  0.5016650000000  0.4255150000000  0.5458340000000 1.0
C      1  0.5813520000000  0.5126990000000  0.4983500000000 1.0
C      1  0.5137260000000  0.5807830000000  0.4724330000000 1.0
C      1  0.5093520000000  0.5001710000000  0.5806080000000 1.0
C      1  0.4814400000000  0.4359470000000  0.5628570000000 1.0
C      1  0.4449100000000  0.4435310000000  0.4819500000000 1.0
C      1  0.5026320000000  0.5908860000000  0.4968240000000 1.0
C      1  0.4815800000000  0.5415590000000  0.4866830000000 1.0
C      1  0.5505620000000  0.5128390000000  0.5450770000000 1.0
C      1  0.5511070000000  0.4478420000000  0.5140080000000 1.0
C      1  0.5033880000000  0.5100360000000  0.4602030000000 1.0
C      1  0.5399130000000  0.4826480000000  0.4812180000000 1.0
C      1  0.4403080000000  0.4424200000000  0.5099180000000 1.0
C      1  0.5533950000000  0.4769000000000  0.5075650000000 1.0
C      1  0.5194700000000  0.4163820000000  0.4800790000000 1.0
C      1  0.5180790000000  0.5364870000000  0.4565720000000 1.0
C      1  0.5800170000000  0.4839230000000  0.4954940000000 1.0
C      1  0.4917480000000  0.5288900000000  0.5164580000000 1.0
C      1  0.4853570000000  0.5515330000000  0.5399290000000 1.0
C      1  0.4902950000000  0.4280910000000  0.5176770000000 1.0
C      1  0.5440180000000  0.5448320000000  0.4698530000000 1.0
C      1  0.5121750000000  0.5269290000000  0.5737290000000 1.0
C      1  0.5295610000000  0.4405360000000  0.4961010000000 1.0
C      1  0.5068170000000  0.5719280000000  0.5428480000000 1.0
C      1  0.5396700000000  0.5372950000000  0.4980630000000 1.0
C      1  0.5796890000000  0.5115880000000  0.4680440000000 1.0
C      1  0.5272960000000  0.4352700000000  0.5560360000000 1.0
C      1  0.4923670000000  0.4160360000000  0.4899520000000 1.0
C      1  0.4818030000000  0.4908270000000  0.5732190000000 1.0
C      1  0.5131750000000  0.4489290000000  0.4502800000000 1.0
C      1  0.4734720000000  0.5380960000000  0.4260520000000 1.0
C      1  0.5543510000000  0.4410350000000  0.4554070000000 1.0
C      1  0.4342460000000  0.4658390000000  0.4665490000000 1.0
C      1  0.4846780000000  0.4807310000000  0.5428760000000 1.0
C      1  0.4937210000000  0.4491720000000  0.5845870000000 1.0
C      1  0.5698230000000  0.5259680000000  0.5221750000000 1.0
C      1  0.4626180000000  0.4327000000000  0.5247440000000 1.0
C      1  0.4728760000000  0.4593180000000  0.4397830000000 1.0
C      1  0.4867820000000  0.4518210000000  0.4650020000000 1.0
C      1  0.5059640000000  0.4557230000000  0.5102030000000 1.0
C      1  0.4482240000000  0.5100080000000  0.5411320000000 1.0
C      1  0.5617340000000  0.5282800000000  0.4531860000000 1.0
C      1  0.4749030000000  0.5882840000000  0.4980120000000 1.0
C      1  0.4222250000000  0.5357930000000  0.4786210000000 1.0
C      1  0.5303540000000  0.4810900000000  0.5786830000000 1.0
C      1  0.4706900000000  0.4299020000000  0.4747210000000 1.0
C      1  0.4544880000000  0.5759810000000  0.5109090000000 1.0
C      1  0.4985160000000  0.4661170000000  0.4302090000000 1.0
C      1  0.5031480000000  0.4948950000000  0.4300620000000 1.0
C      1  0.4799300000000  0.4700910000000  0.5931710000000 1.0
C      1  0.5228640000000  0.5433590000000  0.4284450000000 1.0
C      1  0.4964390000000  0.5542040000000  0.4306310000000 1.0
C      1  0.4630360000000  0.4539280000000  0.5455140000000 1.0
C      1  0.5299420000000  0.4235400000000  0.4525350000000 1.0
C      1  0.5148910000000  0.4957430000000  0.4831000000000 1.0
C      1  0.4750560000000  0.5031410000000  0.5242840000000 1.0
C      1  0.5507620000000  0.4428820000000  0.5417990000000 1.0
C      1  0.5340010000000  0.4974980000000  0.4242430000000 1.0
C      1  0.5116240000000  0.4740950000000  0.5331570000000 1.0
C      1  0.4340670000000  0.5168340000000  0.4384560000000 1.0
C      1  0.4560410000000  0.5574770000000  0.5321790000000 1.0
C      1  0.4479670000000  0.5422590000000  0.4397050000000 1.0
C      1  0.4590480000000  0.5639770000000  0.4851540000000 1.0
C      1  0.4980380000000  0.5581890000000  0.4615950000000 1.0
C      1  0.4633050000000  0.5364000000000  0.5807240000000 1.0
C      1  0.4769020000000  0.5095130000000  0.4210810000000 1.0
C      1  0.5443370000000  0.5236780000000  0.4297400000000 1.0
C      1  0.4872010000000  0.5406010000000  0.5670020000000 1.0
C      1  0.4485450000000  0.4719690000000  0.4415080000000 1.0
C      1  0.4192060000000  0.4988880000000  0.5059570000000 1.0
C      1  0.5443810000000  0.5721070000000  0.5269710000000 1.0
C      1  0.4192520000000  0.5123010000000  0.4623990000000 1.0
C      1  0.4730750000000  0.4937000000000  0.4956900000000 1.0
C      1  0.5185980000000  0.5166600000000  0.5068320000000 1.0
C      1  0.5537440000000  0.4879720000000  0.5631810000000 1.0
C      1  0.5681060000000  0.4646940000000  0.4452990000000 1.0
C      1  0.4609620000000  0.5122150000000  0.5685470000000 1.0
C      1  0.4194140000000  0.4885610000000  0.4781730000000 1.0
C      1  0.5188330000000  0.5857340000000  0.5201990000000 1.0
C      1  0.4228660000000  0.5273480000000  0.5062300000000 1.0
C      1  0.5358690000000  0.4567830000000  0.4714230000000 1.0
C      1  0.5319410000000  0.4963000000000  0.5255630000000 1.0
C      1  0.4515220000000  0.4972580000000  0.4284720000000 1.0
C      1  0.4363090000000  0.4611470000000  0.5321230000000 1.0
END
