TITL C-134193-174-6 -0.10973049573429 125000 -814.354624734993 0 0 117 (C1) n - 1
REM
REM in /rds/project/t2_vol4/rds-t2-cs072/BORA/CARBON/from-Arr/AIRSS/Generating-Clusters/GAP-ML-2020/Only-C1/SD-CG/HFTN-CG
REM
REM
REM
REM
REM
REM ./C.cell (11c1c37f851c82e70ff6c80c92926a4b)
REM AIRSS Version 0.9.1 bugfix July 2018 build 013d7b7c2542+ Fri, 06 Jul 2018 19:26:36 +0100
REM compiler GCC version 9.3.0
REM options -cpp -mtune=generic -march=x86-64 -g -O0
REM seed -1118075743 427046302 1896562248 509662198 -372453957 -16425908 -4311678 1285639278 971218189 -1281415337 -1861798687 225809230 809263992 -186078010 151665768 -463231208 -881284452 1430808075 -1871094923 1570641118 544707233 1661280118 1912741160 -1388062847 -596977491 1255195337 643980091 -771547602 1119477332 -1449955450 852970351 -1811236006 -1074867484
REM
CELL 1.54180   50.00000   50.00000   50.00000   90.00000   90.00000   90.00000
LATT -1
SFAC C  
C      1  0.5628880000000  0.4171020000000  0.5232090000000 1.0
C      1  0.5906280000000  0.5306880000000  0.5034960000000 1.0
C      1  0.4985600000000  0.4053960000000  0.4922830000000 1.0
C      1  0.5649450000000  0.4628810000000  0.5416740000000 1.0
C      1  0.4899080000000  0.4605300000000  0.5452370000000 1.0
C      1  0.4077000000000  0.5262980000000  0.4893770000000 1.0
C      1  0.5472340000000  0.5586370000000  0.5028710000000 1.0
C      1  0.4358820000000  0.5107390000000  0.5738820000000 1.0
C      1  0.5049070000000  0.4570560000000  0.4123270000000 1.0
C      1  0.5607170000000  0.5287660000000  0.5046700000000 1.0
C      1  0.5740550000000  0.4713440000000  0.5143520000000 1.0
C      1  0.5419460000000  0.5535690000000  0.5590440000000 1.0
C      1  0.5287560000000  0.5774310000000  0.4602040000000 1.0
C      1  0.4072380000000  0.5165480000000  0.5364870000000 1.0
C      1  0.5480360000000  0.4848310000000  0.5266930000000 1.0
C      1  0.4946830000000  0.4223410000000  0.4699270000000 1.0
C      1  0.4458510000000  0.4358550000000  0.5346980000000 1.0
C      1  0.5973620000000  0.4868950000000  0.5167980000000 1.0
C      1  0.5240110000000  0.5659180000000  0.4339150000000 1.0
C      1  0.4589350000000  0.4683220000000  0.4293480000000 1.0
C      1  0.4911760000000  0.5160780000000  0.4997520000000 1.0
C      1  0.5177250000000  0.5251530000000  0.4854320000000 1.0
C      1  0.4403420000000  0.5602940000000  0.5297190000000 1.0
C      1  0.5521000000000  0.5136090000000  0.5292440000000 1.0
C      1  0.4571840000000  0.5855060000000  0.4878890000000 1.0
C      1  0.4971190000000  0.5579300000000  0.4260050000000 1.0
C      1  0.5074130000000  0.5832950000000  0.5547600000000 1.0
C      1  0.5963680000000  0.5121770000000  0.5253120000000 1.0
C      1  0.5374570000000  0.5823180000000  0.5189630000000 1.0
C      1  0.5477230000000  0.4145190000000  0.4997370000000 1.0
C      1  0.4742620000000  0.5612420000000  0.4435530000000 1.0
C      1  0.5673530000000  0.4857700000000  0.4463880000000 1.0
C      1  0.4225630000000  0.5409230000000  0.5417380000000 1.0
C      1  0.4141440000000  0.5176630000000  0.4626120000000 1.0
C      1  0.4921670000000  0.5589700000000  0.5483330000000 1.0
C      1  0.5615190000000  0.5325560000000  0.5664880000000 1.0
C      1  0.4911430000000  0.5137060000000  0.4417960000000 1.0
C      1  0.5031310000000  0.4591190000000  0.5162290000000 1.0
C      1  0.4613530000000  0.5549680000000  0.5503780000000 1.0
C      1  0.4471690000000  0.4300080000000  0.4845880000000 1.0
C      1  0.5190350000000  0.5210400000000  0.5826480000000 1.0
C      1  0.5229930000000  0.4721140000000  0.4594150000000 1.0
C      1  0.4530740000000  0.5414880000000  0.4422750000000 1.0
C      1  0.5530480000000  0.4355710000000  0.5414370000000 1.0
C      1  0.5501740000000  0.4877820000000  0.5808310000000 1.0
C      1  0.5772860000000  0.4653510000000  0.4635430000000 1.0
C      1  0.4205460000000  0.4497430000000  0.5353290000000 1.0
C      1  0.4208260000000  0.4695440000000  0.5564860000000 1.0
C      1  0.4937280000000  0.4570600000000  0.4901600000000 1.0
C      1  0.5428720000000  0.5453620000000  0.4255110000000 1.0
C      1  0.4004280000000  0.5080840000000  0.5097200000000 1.0
C      1  0.5450360000000  0.5124310000000  0.4821420000000 1.0
C      1  0.5599780000000  0.5113050000000  0.4547830000000 1.0
C      1  0.5600300000000  0.4445440000000  0.4541930000000 1.0
C      1  0.5216940000000  0.5442140000000  0.5096180000000 1.0
C      1  0.5330550000000  0.4976340000000  0.4041020000000 1.0
C      1  0.5069350000000  0.5856610000000  0.4774550000000 1.0
C      1  0.4705930000000  0.4996670000000  0.4878690000000 1.0
C      1  0.5450570000000  0.4365470000000  0.4787010000000 1.0
C      1  0.4538510000000  0.4902710000000  0.5822410000000 1.0
C      1  0.4824150000000  0.4109550000000  0.5158690000000 1.0
C      1  0.4155070000000  0.4982680000000  0.5569120000000 1.0
C      1  0.5947280000000  0.5460150000000  0.4817910000000 1.0
C      1  0.4425440000000  0.5365400000000  0.5632730000000 1.0
C      1  0.5090750000000  0.4130990000000  0.5319160000000 1.0
C      1  0.5467620000000  0.5159020000000  0.5842590000000 1.0
C      1  0.5045600000000  0.5033840000000  0.5246400000000 1.0
C      1  0.5698420000000  0.4842480000000  0.5613010000000 1.0
C      1  0.4837080000000  0.4910270000000  0.5446580000000 1.0
C      1  0.5222300000000  0.4809220000000  0.5131110000000 1.0
C      1  0.4569120000000  0.4226660000000  0.5119430000000 1.0
C      1  0.4847990000000  0.5530500000000  0.4716950000000 1.0
C      1  0.5042220000000  0.5335280000000  0.4624570000000 1.0
C      1  0.4017440000000  0.4811050000000  0.4996060000000 1.0
C      1  0.5013780000000  0.5303480000000  0.4181610000000 1.0
C      1  0.5752540000000  0.5125920000000  0.5488160000000 1.0
C      1  0.5604130000000  0.4643610000000  0.4885820000000 1.0
C      1  0.4976040000000  0.4856800000000  0.4498730000000 1.0
C      1  0.4862680000000  0.4747440000000  0.4249110000000 1.0
C      1  0.5739170000000  0.5538430000000  0.4642420000000 1.0
C      1  0.4797670000000  0.5438840000000  0.4999120000000 1.0
C      1  0.4581900000000  0.4956040000000  0.5329970000000 1.0
C      1  0.4205860000000  0.4917080000000  0.4538820000000 1.0
C      1  0.4238870000000  0.4474430000000  0.4856720000000 1.0
C      1  0.5056630000000  0.4962490000000  0.5860190000000 1.0
C      1  0.5110390000000  0.5847840000000  0.5054650000000 1.0
C      1  0.5155830000000  0.4447360000000  0.4718470000000 1.0
C      1  0.4392030000000  0.5694680000000  0.5015190000000 1.0
C      1  0.5370130000000  0.4836930000000  0.4855430000000 1.0
C      1  0.4133820000000  0.4727670000000  0.4739690000000 1.0
C      1  0.5342640000000  0.5779190000000  0.5462690000000 1.0
C      1  0.4656210000000  0.4400280000000  0.4363780000000 1.0
C      1  0.5132940000000  0.4533160000000  0.5628360000000 1.0
C      1  0.4900580000000  0.4364890000000  0.4211740000000 1.0
C      1  0.4787860000000  0.5822240000000  0.4705250000000 1.0
C      1  0.4098670000000  0.4551770000000  0.5103090000000 1.0
C      1  0.4445760000000  0.4909580000000  0.4373470000000 1.0
C      1  0.5224790000000  0.4041230000000  0.5076710000000 1.0
C      1  0.5448350000000  0.4669950000000  0.4393440000000 1.0
C      1  0.5238090000000  0.5247170000000  0.5328680000000 1.0
C      1  0.5313920000000  0.4712870000000  0.4130830000000 1.0
C      1  0.4532330000000  0.4967750000000  0.5078650000000 1.0
C      1  0.4625660000000  0.4487530000000  0.5537340000000 1.0
C      1  0.5250920000000  0.4306800000000  0.5500050000000 1.0
C      1  0.5512250000000  0.5672560000000  0.4749950000000 1.0
C      1  0.4802780000000  0.4950810000000  0.5758850000000 1.0
C      1  0.4611970000000  0.5149820000000  0.4369320000000 1.0
C      1  0.4660970000000  0.4277860000000  0.4622580000000 1.0
C      1  0.5279940000000  0.5239860000000  0.4104740000000 1.0
C      1  0.4453920000000  0.4657280000000  0.5698300000000 1.0
C      1  0.4241430000000  0.5502680000000  0.4855700000000 1.0
C      1  0.5154170000000  0.5388680000000  0.5589530000000 1.0
C      1  0.4968460000000  0.5604690000000  0.5172460000000 1.0
C      1  0.4302140000000  0.5412350000000  0.4586620000000 1.0
C      1  0.4819860000000  0.4783370000000  0.4744960000000 1.0
C      1  0.5633160000000  0.5370310000000  0.4432180000000 1.0
C      1  0.5239340000000  0.4745510000000  0.5793590000000 1.0
END
