TITL C-131262-6778-3 31.5836442066332 125000 -261.867196169912 0 0 39 (C1) n - 1
REM
REM in /rds/project/t2_vol4/rds-t2-cs072/BORA/CARBON/from-Arr/AIRSS/Generating-Clusters/GAP-ML-2020/Only-C1/SD-CG/HFTN-CG
REM
REM
REM
REM
REM
REM ./C.cell (11c1c37f851c82e70ff6c80c92926a4b)
REM AIRSS Version 0.9.1 bugfix July 2018 build 013d7b7c2542+ Fri, 06 Jul 2018 19:26:36 +0100
REM compiler GCC version 9.3.0
REM options -cpp -mtune=generic -march=x86-64 -g -O0
REM seed 1514870959 213953749 44832341 -1553408844 1794158594 1855943470 -841654471 -1486536462 -584467198 -1560142431 -118285126 1382984192 1316957008 -1284995016 1967345611 -529118719 -1274890674 -850103017 721767643 -347802065 1003561508 1092794062 1711203648 -1330652838 -2090467839 -1586032151 -1513352047 1516504224 1797648214 -253506603 1413324551 -1189681362 -1894427084
REM
CELL 1.54180   50.00000   50.00000   50.00000   90.00000   90.00000   90.00000
LATT -1
SFAC C  
C      1  0.5309510000000  0.4945280000000  0.5625540000000 1.0
C      1  0.4527630000000  0.5210520000000  0.5445660000000 1.0
C      1  0.5111970000000  0.4696780000000  0.4423780000000 1.0
C      1  0.5132410000000  0.4834000000000  0.5169650000000 1.0
C      1  0.4926220000000  0.4520820000000  0.4782260000000 1.0
C      1  0.5388980000000  0.4714370000000  0.4822050000000 1.0
C      1  0.4657850000000  0.5415490000000  0.4779310000000 1.0
C      1  0.4710420000000  0.4693730000000  0.5317290000000 1.0
C      1  0.5327350000000  0.5509990000000  0.5117340000000 1.0
C      1  0.5210310000000  0.5125350000000  0.4318630000000 1.0
C      1  0.5407290000000  0.5048420000000  0.4494390000000 1.0
C      1  0.4676920000000  0.4641540000000  0.4821440000000 1.0
C      1  0.5485570000000  0.5171590000000  0.4750000000000 1.0
C      1  0.5242950000000  0.5381400000000  0.5361290000000 1.0
C      1  0.4983470000000  0.4479330000000  0.4512480000000 1.0
C      1  0.4781060000000  0.5525830000000  0.5216610000000 1.0
C      1  0.4700090000000  0.5312530000000  0.4533710000000 1.0
C      1  0.4484880000000  0.4985590000000  0.4920740000000 1.0
C      1  0.4961120000000  0.5394850000000  0.5397870000000 1.0
C      1  0.4806170000000  0.5157350000000  0.5482520000000 1.0
C      1  0.5369110000000  0.4754960000000  0.4542380000000 1.0
C      1  0.5378790000000  0.4960700000000  0.5201510000000 1.0
C      1  0.4741460000000  0.5037830000000  0.4482750000000 1.0
C      1  0.4583330000000  0.4755070000000  0.5074950000000 1.0
C      1  0.4902820000000  0.4887370000000  0.5429160000000 1.0
C      1  0.4486890000000  0.5264090000000  0.4962220000000 1.0
C      1  0.5484600000000  0.4956000000000  0.4941850000000 1.0
C      1  0.4533800000000  0.5365170000000  0.5223790000000 1.0
C      1  0.5126240000000  0.4442820000000  0.5230270000000 1.0
C      1  0.5156470000000  0.4596700000000  0.4978970000000 1.0
C      1  0.4869280000000  0.4452870000000  0.5350400000000 1.0
C      1  0.4854650000000  0.5566740000000  0.4945400000000 1.0
C      1  0.5374750000000  0.5132400000000  0.5431790000000 1.0
C      1  0.4594830000000  0.4876410000000  0.4671390000000 1.0
C      1  0.5103160000000  0.4495220000000  0.5506980000000 1.0
C      1  0.4987650000000  0.4949860000000  0.4353070000000 1.0
C      1  0.5377300000000  0.5418030000000  0.4853470000000 1.0
C      1  0.5139240000000  0.5562580000000  0.4911570000000 1.0
C      1  0.5103450000000  0.4760450000000  0.5615540000000 1.0
END
