TITL C-136395-9186-5 -0.296252784214904 125000 -905.83872457623 0 0 128 (C1) n - 1
REM
REM in /rds/project/t2_vol4/rds-t2-cs072/BORA/CARBON/from-Arr/AIRSS/Generating-Clusters/GAP-ML-2020/Only-C1/SD-CG/HFTN-CG
REM
REM
REM
REM
REM
REM ./C.cell (11c1c37f851c82e70ff6c80c92926a4b)
REM AIRSS Version 0.9.1 bugfix July 2018 build 013d7b7c2542+ Fri, 06 Jul 2018 19:26:36 +0100
REM compiler GCC version 9.3.0
REM options -cpp -mtune=generic -march=x86-64 -g -O0
REM seed -826415140 695068165 -1268226110 623867254 -1091156136 -909444822 -1683835671 702226043 25101291 -2071189955 303752052 -1884595032 -1841933568 1628429101 -508374625 -354191131 -842550078 -832686799 870464052 526857365 964292986 293813534 -241180461 -761112439 887429193 -776480901 -1397340063 -510980221 1689817449 687567566 -347105157 -1027639514 150799894
REM
CELL 1.54180   50.00000   50.00000   50.00000   90.00000   90.00000   90.00000
LATT -1
SFAC C  
C      1  0.5731570000000  0.5600720000000  0.5000010000000 1.0
C      1  0.5638910000000  0.4273070000000  0.4892380000000 1.0
C      1  0.4160670000000  0.5090130000000  0.4774660000000 1.0
C      1  0.4456550000000  0.4232480000000  0.4603490000000 1.0
C      1  0.5357020000000  0.4599120000000  0.5035350000000 1.0
C      1  0.5129390000000  0.4094900000000  0.5093640000000 1.0
C      1  0.4060290000000  0.5061110000000  0.5260370000000 1.0
C      1  0.4734930000000  0.4491950000000  0.4296200000000 1.0
C      1  0.4909040000000  0.5675110000000  0.5037480000000 1.0
C      1  0.5155300000000  0.4204010000000  0.4815960000000 1.0
C      1  0.5113790000000  0.4697880000000  0.4168350000000 1.0
C      1  0.5325770000000  0.4183920000000  0.5280230000000 1.0
C      1  0.5902640000000  0.5221480000000  0.5407350000000 1.0
C      1  0.5845320000000  0.4658790000000  0.5053780000000 1.0
C      1  0.5331330000000  0.5460650000000  0.5686830000000 1.0
C      1  0.4729740000000  0.5854810000000  0.4863460000000 1.0
C      1  0.5152700000000  0.4708560000000  0.4679100000000 1.0
C      1  0.4273370000000  0.5353790000000  0.5546820000000 1.0
C      1  0.5095940000000  0.4505640000000  0.4897150000000 1.0
C      1  0.5254930000000  0.4467260000000  0.5705990000000 1.0
C      1  0.4775060000000  0.4502100000000  0.5793660000000 1.0
C      1  0.4150100000000  0.4911880000000  0.5488440000000 1.0
C      1  0.4133170000000  0.5329320000000  0.5298450000000 1.0
C      1  0.4622740000000  0.5111650000000  0.5244340000000 1.0
C      1  0.4775320000000  0.5211680000000  0.5465240000000 1.0
C      1  0.5454780000000  0.5509340000000  0.4249800000000 1.0
C      1  0.4814540000000  0.5779700000000  0.4405210000000 1.0
C      1  0.4931990000000  0.4171670000000  0.4627960000000 1.0
C      1  0.5478420000000  0.4647440000000  0.5710290000000 1.0
C      1  0.5196730000000  0.4245600000000  0.5526520000000 1.0
C      1  0.4241440000000  0.4942450000000  0.4547360000000 1.0
C      1  0.4876790000000  0.5925620000000  0.4645520000000 1.0
C      1  0.5643850000000  0.4620190000000  0.4583610000000 1.0
C      1  0.4188220000000  0.4631570000000  0.5433570000000 1.0
C      1  0.4046460000000  0.4948820000000  0.4997770000000 1.0
C      1  0.4440710000000  0.5546790000000  0.4640530000000 1.0
C      1  0.4826090000000  0.4755290000000  0.4200490000000 1.0
C      1  0.4916540000000  0.5563770000000  0.5834930000000 1.0
C      1  0.5141980000000  0.5129760000000  0.4035900000000 1.0
C      1  0.4831100000000  0.4526000000000  0.5026170000000 1.0
C      1  0.4470960000000  0.4403990000000  0.4364980000000 1.0
C      1  0.5579660000000  0.5578030000000  0.5249970000000 1.0
C      1  0.5680450000000  0.5124120000000  0.4561680000000 1.0
C      1  0.4160450000000  0.4492060000000  0.5187490000000 1.0
C      1  0.4048960000000  0.4657420000000  0.4979390000000 1.0
C      1  0.4817320000000  0.5050820000000  0.5920160000000 1.0
C      1  0.5054130000000  0.5410670000000  0.4689600000000 1.0
C      1  0.5747680000000  0.4523220000000  0.5287270000000 1.0
C      1  0.4225500000000  0.5476110000000  0.5078950000000 1.0
C      1  0.4890210000000  0.5363390000000  0.4943080000000 1.0
C      1  0.4731350000000  0.5318410000000  0.4228910000000 1.0
C      1  0.5439190000000  0.5262560000000  0.5252490000000 1.0
C      1  0.5102370000000  0.5773410000000  0.5433430000000 1.0
C      1  0.5546620000000  0.4335420000000  0.5163380000000 1.0
C      1  0.4872900000000  0.4699490000000  0.5263660000000 1.0
C      1  0.5769140000000  0.4947680000000  0.5050140000000 1.0
C      1  0.5282380000000  0.5865820000000  0.4479040000000 1.0
C      1  0.4141450000000  0.4677690000000  0.4499250000000 1.0
C      1  0.5703470000000  0.4855390000000  0.4414080000000 1.0
C      1  0.4387540000000  0.5702790000000  0.5108880000000 1.0
C      1  0.5078240000000  0.5104530000000  0.5001990000000 1.0
C      1  0.4550970000000  0.4952880000000  0.5815380000000 1.0
C      1  0.4554380000000  0.5722760000000  0.5345780000000 1.0
C      1  0.4758830000000  0.4245240000000  0.5691430000000 1.0
C      1  0.5237740000000  0.5291980000000  0.5463580000000 1.0
C      1  0.5187400000000  0.4524120000000  0.4398360000000 1.0
C      1  0.5748450000000  0.4971060000000  0.5532270000000 1.0
C      1  0.5565350000000  0.4981770000000  0.5280240000000 1.0
C      1  0.5386640000000  0.4899690000000  0.5813220000000 1.0
C      1  0.4996120000000  0.4956390000000  0.4733330000000 1.0
C      1  0.5328270000000  0.5751350000000  0.5238210000000 1.0
C      1  0.4623210000000  0.4730670000000  0.4954930000000 1.0
C      1  0.5234270000000  0.5152750000000  0.4320710000000 1.0
C      1  0.5518770000000  0.5223720000000  0.4314430000000 1.0
C      1  0.4342970000000  0.4295420000000  0.5058620000000 1.0
C      1  0.5351680000000  0.5218280000000  0.4974960000000 1.0
C      1  0.4699400000000  0.5434580000000  0.5680590000000 1.0
C      1  0.4090330000000  0.4526940000000  0.4734950000000 1.0
C      1  0.4461710000000  0.4655910000000  0.5472840000000 1.0
C      1  0.4687570000000  0.4950280000000  0.4771810000000 1.0
C      1  0.5039300000000  0.5083710000000  0.5500150000000 1.0
C      1  0.4328980000000  0.5331520000000  0.4833940000000 1.0
C      1  0.4313810000000  0.5083620000000  0.5660840000000 1.0
C      1  0.5177200000000  0.5567500000000  0.4143050000000 1.0
C      1  0.5557620000000  0.4948410000000  0.4187490000000 1.0
C      1  0.5075310000000  0.4909060000000  0.5260600000000 1.0
C      1  0.4919260000000  0.4159440000000  0.5493370000000 1.0
C      1  0.4684970000000  0.5021030000000  0.4268620000000 1.0
C      1  0.5076950000000  0.5783140000000  0.4285300000000 1.0
C      1  0.5439380000000  0.4753420000000  0.4781030000000 1.0
C      1  0.4683470000000  0.4157470000000  0.4749500000000 1.0
C      1  0.5451090000000  0.4406700000000  0.4489060000000 1.0
C      1  0.5710790000000  0.4674340000000  0.5533310000000 1.0
C      1  0.4663550000000  0.4240660000000  0.5043430000000 1.0
C      1  0.4984310000000  0.5358720000000  0.4075500000000 1.0
C      1  0.4467720000000  0.5558820000000  0.5564630000000 1.0
C      1  0.4253660000000  0.4296200000000  0.4789020000000 1.0
C      1  0.4566620000000  0.4686410000000  0.5735770000000 1.0
C      1  0.5157840000000  0.5922720000000  0.4721110000000 1.0
C      1  0.5334440000000  0.4797410000000  0.5239770000000 1.0
C      1  0.5552550000000  0.5022170000000  0.4827550000000 1.0
C      1  0.4844390000000  0.5761490000000  0.5305260000000 1.0
C      1  0.4631940000000  0.5209780000000  0.4960000000000 1.0
C      1  0.4950380000000  0.4351150000000  0.4410180000000 1.0
C      1  0.5593950000000  0.5372270000000  0.5711850000000 1.0
C      1  0.4241500000000  0.4534080000000  0.4281730000000 1.0
C      1  0.5428020000000  0.4229670000000  0.4705150000000 1.0
C      1  0.5944880000000  0.5177740000000  0.5128460000000 1.0
C      1  0.5034370000000  0.4616370000000  0.5806540000000 1.0
C      1  0.5792480000000  0.4505500000000  0.4814240000000 1.0
C      1  0.5593970000000  0.5086370000000  0.5753290000000 1.0
C      1  0.5747630000000  0.5445670000000  0.5479960000000 1.0
C      1  0.4869940000000  0.4097480000000  0.5212960000000 1.0
C      1  0.4630240000000  0.5542550000000  0.4407330000000 1.0
C      1  0.5810790000000  0.5355700000000  0.4679440000000 1.0
C      1  0.4474240000000  0.5760220000000  0.4839410000000 1.0
C      1  0.5073090000000  0.4908510000000  0.5799970000000 1.0
C      1  0.4602750000000  0.4820190000000  0.5244210000000 1.0
C      1  0.5065690000000  0.5170500000000  0.4551150000000 1.0
C      1  0.4526770000000  0.4980780000000  0.4504190000000 1.0
C      1  0.5145730000000  0.5667610000000  0.5704300000000 1.0
C      1  0.5601890000000  0.5571240000000  0.4721050000000 1.0
C      1  0.5207550000000  0.5739260000000  0.4969340000000 1.0
C      1  0.5508940000000  0.5697830000000  0.4464820000000 1.0
C      1  0.4816920000000  0.5330210000000  0.5936000000000 1.0
C      1  0.5291660000000  0.4885910000000  0.4049570000000 1.0
C      1  0.5317170000000  0.5479270000000  0.4822320000000 1.0
C      1  0.5915020000000  0.5385340000000  0.4946450000000 1.0
END
