TITL C-130747-6820-4 0.108501940412184 125000 -809.627006299647 0 0 115 (C1) n - 1
REM
REM in /rds/project/t2_vol4/rds-t2-cs072/BORA/CARBON/from-Arr/AIRSS/Generating-Clusters/GAP-ML-2020/Only-C1/SD-CG/HFTN-CG
REM
REM
REM
REM
REM
REM ./C.cell (11c1c37f851c82e70ff6c80c92926a4b)
REM AIRSS Version 0.9.1 bugfix July 2018 build 013d7b7c2542+ Fri, 06 Jul 2018 19:26:36 +0100
REM compiler GCC version 9.3.0
REM options -cpp -mtune=generic -march=x86-64 -g -O0
REM seed -1496905477 -1423365716 1994021217 270411701 -308991066 1990794656 -1778737218 -384148704 -102151930 -1500408723 -958005264 1766961820 -2136686410 841176986 38956516 776641093 139189059 -871885422 -739399187 2018785215 -2036952151 -1905978355 -243730801 1210838130 -121492514 959841299 1276739395 2073300198 1380834944 512203888 818714922 -595153419 -2090008212
REM
CELL 1.54180   50.00000   50.00000   50.00000   90.00000   90.00000   90.00000
LATT -1
SFAC C  
C      1  0.4499200000000  0.4271910000000  0.4813300000000 1.0
C      1  0.4799510000000  0.5828810000000  0.5367630000000 1.0
C      1  0.4286690000000  0.5421150000000  0.4557140000000 1.0
C      1  0.4866750000000  0.5709380000000  0.5608510000000 1.0
C      1  0.5074380000000  0.4978360000000  0.4046520000000 1.0
C      1  0.4706890000000  0.5585440000000  0.4215570000000 1.0
C      1  0.5129670000000  0.4161380000000  0.5210770000000 1.0
C      1  0.4086730000000  0.4844950000000  0.4855200000000 1.0
C      1  0.5794730000000  0.4645000000000  0.5185990000000 1.0
C      1  0.5862050000000  0.5091190000000  0.5354580000000 1.0
C      1  0.4391120000000  0.4938760000000  0.5397730000000 1.0
C      1  0.5168750000000  0.5573260000000  0.4294080000000 1.0
C      1  0.4739610000000  0.4183120000000  0.4948400000000 1.0
C      1  0.4949940000000  0.4607490000000  0.4351470000000 1.0
C      1  0.4912640000000  0.4734390000000  0.4860220000000 1.0
C      1  0.4900950000000  0.4266860000000  0.4622360000000 1.0
C      1  0.5488710000000  0.4902090000000  0.5983530000000 1.0
C      1  0.5379010000000  0.4707330000000  0.4159470000000 1.0
C      1  0.4284720000000  0.5420660000000  0.5279870000000 1.0
C      1  0.5135140000000  0.5772890000000  0.4502730000000 1.0
C      1  0.5266560000000  0.5279490000000  0.5026580000000 1.0
C      1  0.5090310000000  0.4366660000000  0.4444500000000 1.0
C      1  0.4531500000000  0.5045200000000  0.4852670000000 1.0
C      1  0.5223620000000  0.5816480000000  0.5147260000000 1.0
C      1  0.5701040000000  0.4817940000000  0.5406510000000 1.0
C      1  0.4481050000000  0.5735660000000  0.4863890000000 1.0
C      1  0.5491980000000  0.5178680000000  0.4254990000000 1.0
C      1  0.4661080000000  0.5733690000000  0.4434560000000 1.0
C      1  0.5378470000000  0.4855720000000  0.4902710000000 1.0
C      1  0.5348640000000  0.5648710000000  0.5352200000000 1.0
C      1  0.4914330000000  0.5320820000000  0.5877370000000 1.0
C      1  0.4637330000000  0.4803420000000  0.5809690000000 1.0
C      1  0.5894100000000  0.4768970000000  0.4698100000000 1.0
C      1  0.4604070000000  0.5693660000000  0.5521910000000 1.0
C      1  0.5063670000000  0.5079980000000  0.5867920000000 1.0
C      1  0.5095990000000  0.4697620000000  0.4116740000000 1.0
C      1  0.4838300000000  0.5079480000000  0.4498650000000 1.0
C      1  0.5551200000000  0.4232130000000  0.4990680000000 1.0
C      1  0.4240660000000  0.5144600000000  0.5239150000000 1.0
C      1  0.4645920000000  0.5350180000000  0.5949310000000 1.0
C      1  0.5431600000000  0.5447990000000  0.4330020000000 1.0
C      1  0.4685070000000  0.4843980000000  0.4994930000000 1.0
C      1  0.5651750000000  0.4395230000000  0.5198000000000 1.0
C      1  0.4247080000000  0.4917890000000  0.4397480000000 1.0
C      1  0.4738880000000  0.5243560000000  0.4927780000000 1.0
C      1  0.5364660000000  0.4369660000000  0.4504320000000 1.0
C      1  0.5936110000000  0.5072400000000  0.5080430000000 1.0
C      1  0.4165680000000  0.4640340000000  0.5041200000000 1.0
C      1  0.5087540000000  0.5230450000000  0.5253870000000 1.0
C      1  0.4917510000000  0.4415900000000  0.4880170000000 1.0
C      1  0.5534720000000  0.5013110000000  0.4483210000000 1.0
C      1  0.4701460000000  0.4950930000000  0.5277080000000 1.0
C      1  0.5254860000000  0.4244990000000  0.5466730000000 1.0
C      1  0.4625770000000  0.4344140000000  0.4554020000000 1.0
C      1  0.4936990000000  0.4838370000000  0.5766150000000 1.0
C      1  0.5452460000000  0.4990050000000  0.5351910000000 1.0
C      1  0.5753650000000  0.5221230000000  0.4922350000000 1.0
C      1  0.5502540000000  0.4388550000000  0.5444760000000 1.0
C      1  0.4807030000000  0.5228550000000  0.5197530000000 1.0
C      1  0.4914910000000  0.4813860000000  0.5439190000000 1.0
C      1  0.5057070000000  0.4391240000000  0.5621920000000 1.0
C      1  0.4913080000000  0.5272790000000  0.4711300000000 1.0
C      1  0.4326210000000  0.4389870000000  0.5011100000000 1.0
C      1  0.5377950000000  0.5772530000000  0.4655840000000 1.0
C      1  0.5360980000000  0.4994840000000  0.4089000000000 1.0
C      1  0.4452910000000  0.4998380000000  0.5684470000000 1.0
C      1  0.4434620000000  0.5660760000000  0.4588970000000 1.0
C      1  0.4224200000000  0.5094140000000  0.4951320000000 1.0
C      1  0.5561260000000  0.5568600000000  0.4564050000000 1.0
C      1  0.4931960000000  0.5445970000000  0.4174090000000 1.0
C      1  0.5155670000000  0.4919370000000  0.5298760000000 1.0
C      1  0.5492570000000  0.5093360000000  0.5052640000000 1.0
C      1  0.5923860000000  0.4795310000000  0.4973690000000 1.0
C      1  0.5453470000000  0.5222980000000  0.5563480000000 1.0
C      1  0.4829470000000  0.4117330000000  0.5204270000000 1.0
C      1  0.4762410000000  0.5843600000000  0.4879170000000 1.0
C      1  0.4472400000000  0.5276810000000  0.5736600000000 1.0
C      1  0.4427260000000  0.4416420000000  0.5281270000000 1.0
C      1  0.4866490000000  0.5147210000000  0.4174560000000 1.0
C      1  0.4869430000000  0.5829670000000  0.4606220000000 1.0
C      1  0.5227040000000  0.5416520000000  0.5495160000000 1.0
C      1  0.5176200000000  0.5231880000000  0.4771970000000 1.0
C      1  0.5568440000000  0.4615600000000  0.5592850000000 1.0
C      1  0.4760260000000  0.4335030000000  0.5665840000000 1.0
C      1  0.4416730000000  0.5481250000000  0.5527700000000 1.0
C      1  0.4619510000000  0.4536220000000  0.5783020000000 1.0
C      1  0.5518190000000  0.4583360000000  0.4372090000000 1.0
C      1  0.5032850000000  0.5508220000000  0.5700750000000 1.0
C      1  0.5643610000000  0.5652300000000  0.5018340000000 1.0
C      1  0.5408310000000  0.4695590000000  0.5816380000000 1.0
C      1  0.5718170000000  0.5481770000000  0.4803530000000 1.0
C      1  0.5416910000000  0.5811020000000  0.4938100000000 1.0
C      1  0.4556650000000  0.5045320000000  0.4566510000000 1.0
C      1  0.5423210000000  0.4222150000000  0.4743350000000 1.0
C      1  0.4999610000000  0.4837000000000  0.4584670000000 1.0
C      1  0.5162860000000  0.4749070000000  0.5056100000000 1.0
C      1  0.4292490000000  0.5552940000000  0.5014650000000 1.0
C      1  0.4198380000000  0.5362940000000  0.4825430000000 1.0
C      1  0.5277080000000  0.4967470000000  0.4655200000000 1.0
C      1  0.5357710000000  0.5092390000000  0.5830370000000 1.0
C      1  0.4648150000000  0.4556580000000  0.4354680000000 1.0
C      1  0.5710930000000  0.4777190000000  0.4498540000000 1.0
C      1  0.5134950000000  0.4610040000000  0.5790710000000 1.0
C      1  0.5703980000000  0.5328460000000  0.5439820000000 1.0
C      1  0.4686640000000  0.4306220000000  0.5377620000000 1.0
C      1  0.4931900000000  0.5862110000000  0.5118540000000 1.0
C      1  0.4578450000000  0.5051150000000  0.4152130000000 1.0
C      1  0.4488180000000  0.4790720000000  0.4275430000000 1.0
C      1  0.4915090000000  0.4526090000000  0.5370770000000 1.0
C      1  0.5298270000000  0.4106930000000  0.4977050000000 1.0
C      1  0.4379020000000  0.5192660000000  0.4377120000000 1.0
C      1  0.5613300000000  0.5562560000000  0.5291900000000 1.0
C      1  0.4052930000000  0.4851930000000  0.4576460000000 1.0
C      1  0.4285420000000  0.4673940000000  0.5302520000000 1.0
C      1  0.5078040000000  0.4469460000000  0.5130400000000 1.0
END
