TITL C-136393-9236-8 0.693826127704136 125000 -276.207402376788 0 0 41 (C1) n - 1
REM
REM in /rds/project/t2_vol4/rds-t2-cs072/BORA/CARBON/from-Arr/AIRSS/Generating-Clusters/GAP-ML-2020/Only-C1/SD-CG/HFTN-CG
REM
REM
REM
REM
REM
REM ./C.cell (11c1c37f851c82e70ff6c80c92926a4b)
REM AIRSS Version 0.9.1 bugfix July 2018 build 013d7b7c2542+ Fri, 06 Jul 2018 19:26:36 +0100
REM compiler GCC version 9.3.0
REM options -cpp -mtune=generic -march=x86-64 -g -O0
REM seed 1126895569 -1291230246 2042759997 2075538245 -56324630 1196486467 804637969 77616604 -1714552676 -1721603519 847499460 -679537456 -1335627739 -1370718975 -486444197 -2048835120 -293878319 1674563786 1336042192 2115475560 1067861997 -641149016 -1482198256 820061375 110706251 -2136763986 93112068 247007903 1499439023 1411367598 -972154402 -1878622372 -456082854
REM
CELL 1.54180   50.00000   50.00000   50.00000   90.00000   90.00000   90.00000
LATT -1
SFAC C  
C      1  0.5207010000000  0.4810940000000  0.4541280000000 1.0
C      1  0.5438890000000  0.5600090000000  0.4947780000000 1.0
C      1  0.5313780000000  0.5536710000000  0.5173670000000 1.0
C      1  0.4627440000000  0.4761960000000  0.5305540000000 1.0
C      1  0.4973640000000  0.5525560000000  0.4821430000000 1.0
C      1  0.5041450000000  0.5244870000000  0.5504270000000 1.0
C      1  0.5107000000000  0.5118490000000  0.5017810000000 1.0
C      1  0.4887240000000  0.5159440000000  0.4519580000000 1.0
C      1  0.5432270000000  0.5119530000000  0.4957510000000 1.0
C      1  0.4543580000000  0.4612830000000  0.5072540000000 1.0
C      1  0.5098200000000  0.5509770000000  0.5544420000000 1.0
C      1  0.5343500000000  0.5245300000000  0.4690750000000 1.0
C      1  0.4753720000000  0.4428240000000  0.5034920000000 1.0
C      1  0.4733630000000  0.4993840000000  0.5143930000000 1.0
C      1  0.4947690000000  0.4876270000000  0.4947150000000 1.0
C      1  0.4874360000000  0.5515550000000  0.5119160000000 1.0
C      1  0.4471890000000  0.4797790000000  0.4856880000000 1.0
C      1  0.4753610000000  0.4922710000000  0.4461370000000 1.0
C      1  0.5293350000000  0.4786670000000  0.5489020000000 1.0
C      1  0.4796670000000  0.4532860000000  0.4582240000000 1.0
C      1  0.4932230000000  0.5220040000000  0.5223920000000 1.0
C      1  0.4909800000000  0.4410020000000  0.4798390000000 1.0
C      1  0.5081900000000  0.5634630000000  0.5293200000000 1.0
C      1  0.5339750000000  0.4676490000000  0.4757740000000 1.0
C      1  0.5518780000000  0.5361540000000  0.5099510000000 1.0
C      1  0.4785620000000  0.5366400000000  0.4682910000000 1.0
C      1  0.5145190000000  0.5001290000000  0.5628060000000 1.0
C      1  0.5173600000000  0.5092760000000  0.4542950000000 1.0
C      1  0.5038500000000  0.4741860000000  0.5605970000000 1.0
C      1  0.5200780000000  0.4472740000000  0.5147930000000 1.0
C      1  0.4939400000000  0.4446650000000  0.5251970000000 1.0
C      1  0.4593170000000  0.5529700000000  0.5063590000000 1.0
C      1  0.5366810000000  0.4688290000000  0.5228210000000 1.0
C      1  0.4837870000000  0.4619650000000  0.5450300000000 1.0
C      1  0.4585270000000  0.4739210000000  0.4612150000000 1.0
C      1  0.4511630000000  0.5065980000000  0.4960070000000 1.0
C      1  0.5246690000000  0.5503140000000  0.4766000000000 1.0
C      1  0.5454500000000  0.4828720000000  0.4982010000000 1.0
C      1  0.4962740000000  0.4712920000000  0.4449540000000 1.0
C      1  0.5188200000000  0.4456440000000  0.4861000000000 1.0
C      1  0.4548650000000  0.5332110000000  0.4863340000000 1.0
END
