TITL C-131270-6736-1 0.0208434414639477 125000 -85.2045036408796 0 0 14 (C1) n - 1
REM
REM in /rds/project/t2_vol4/rds-t2-cs072/BORA/CARBON/from-Arr/AIRSS/Generating-Clusters/GAP-ML-2020/Only-C1/SD-CG/HFTN-CG
REM
REM
REM
REM
REM
REM ./C.cell (11c1c37f851c82e70ff6c80c92926a4b)
REM AIRSS Version 0.9.1 bugfix July 2018 build 013d7b7c2542+ Fri, 06 Jul 2018 19:26:36 +0100
REM compiler GCC version 9.3.0
REM options -cpp -mtune=generic -march=x86-64 -g -O0
REM seed 2019641799 298847635 -898816335 -1974418429 -1366861223 -665547801 -1788874063 738246308 1124788550 -806503920 2143874083 -236459961 1895131774 -1043211618 -262303601 -521418260 -1827384981 -1555345917 16115796 38900934 -2047508666 -1998829802 1361458374 1728562504 1853307419 -432975490 412982653 -1872396390 -1393296838 -203600361 -2040280125 -448091243 -2100653777
REM
CELL 1.54180   50.00000   50.00000   50.00000   90.00000   90.00000   90.00000
LATT -1
SFAC C  
C      1  0.4779900000000  0.5177170000000  0.4803220000000 1.0
C      1  0.4579370000000  0.4955080000000  0.4803600000000 1.0
C      1  0.4869440000000  0.5150200000000  0.5076000000000 1.0
C      1  0.4902050000000  0.5075200000000  0.4573450000000 1.0
C      1  0.4764530000000  0.4814050000000  0.4619710000000 1.0
C      1  0.5403420000000  0.4812570000000  0.5188920000000 1.0
C      1  0.5107420000000  0.5237200000000  0.5171200000000 1.0
C      1  0.5347540000000  0.5077500000000  0.5200490000000 1.0
C      1  0.4720530000000  0.4927890000000  0.5160100000000 1.0
C      1  0.5253990000000  0.5462200000000  0.5249050000000 1.0
C      1  0.5483440000000  0.5323050000000  0.5266410000000 1.0
C      1  0.4495730000000  0.4858380000000  0.5042710000000 1.0
C      1  0.5431540000000  0.4558300000000  0.5194980000000 1.0
C      1  0.4861100000000  0.4571220000000  0.4650160000000 1.0
END
