TITL C-134883-4620-7 0.0936853704635897 125000 -760.275447021444 0 0 108 (C1) n - 1
REM
REM in /rds/project/t2_vol4/rds-t2-cs072/BORA/CARBON/from-Arr/AIRSS/Generating-Clusters/GAP-ML-2020/Only-C1/SD-CG/HFTN-CG
REM
REM
REM
REM
REM
REM ./C.cell (11c1c37f851c82e70ff6c80c92926a4b)
REM AIRSS Version 0.9.1 bugfix July 2018 build 013d7b7c2542+ Fri, 06 Jul 2018 19:26:36 +0100
REM compiler GCC version 9.3.0
REM options -cpp -mtune=generic -march=x86-64 -g -O0
REM seed -760213838 539855168 1548173747 -1449811453 -81419644 -1082345036 -840303977 -1086088840 -907677369 483072910 -403551007 224354951 379396305 -1387491135 -1186751583 2129154129 -2070532977 60490077 -977045922 -1334004498 -1819466663 1077979325 1379767882 -250190465 734179457 1703907702 1982898329 -1283514575 1634073127 -76495232 -313529827 1702817199 1561699686
REM
CELL 1.54180   50.00000   50.00000   50.00000   90.00000   90.00000   90.00000
LATT -1
SFAC C  
C      1  0.4828560000000  0.5756670000000  0.4618750000000 1.0
C      1  0.4715230000000  0.5341020000000  0.4316200000000 1.0
C      1  0.4285730000000  0.5263230000000  0.4552050000000 1.0
C      1  0.4914410000000  0.5796840000000  0.5459830000000 1.0
C      1  0.5310250000000  0.4230580000000  0.5087660000000 1.0
C      1  0.5216930000000  0.5781420000000  0.5030990000000 1.0
C      1  0.4931790000000  0.5011870000000  0.5328980000000 1.0
C      1  0.4536880000000  0.4207080000000  0.4961070000000 1.0
C      1  0.4790210000000  0.5273930000000  0.5300670000000 1.0
C      1  0.5306940000000  0.5314160000000  0.5720440000000 1.0
C      1  0.4546480000000  0.5203720000000  0.5114930000000 1.0
C      1  0.5444390000000  0.5121820000000  0.4224970000000 1.0
C      1  0.5181420000000  0.4893390000000  0.4659310000000 1.0
C      1  0.4591320000000  0.4654900000000  0.4280480000000 1.0
C      1  0.4706990000000  0.5095210000000  0.4181020000000 1.0
C      1  0.4219480000000  0.4547470000000  0.5124650000000 1.0
C      1  0.5620960000000  0.5067240000000  0.4464670000000 1.0
C      1  0.5399470000000  0.5198690000000  0.5036580000000 1.0
C      1  0.4990920000000  0.5363930000000  0.4401790000000 1.0
C      1  0.4188140000000  0.5242500000000  0.4823560000000 1.0
C      1  0.4290100000000  0.4996910000000  0.4436890000000 1.0
C      1  0.4439240000000  0.4954060000000  0.5226970000000 1.0
C      1  0.4496660000000  0.5668180000000  0.5376620000000 1.0
C      1  0.6055450000000  0.4935770000000  0.4670470000000 1.0
C      1  0.4346700000000  0.5240490000000  0.5557600000000 1.0
C      1  0.5132060000000  0.4786240000000  0.4933310000000 1.0
C      1  0.5582610000000  0.5312010000000  0.5269330000000 1.0
C      1  0.4323730000000  0.5408230000000  0.5037060000000 1.0
C      1  0.4768570000000  0.4721450000000  0.4970120000000 1.0
C      1  0.5281140000000  0.4667750000000  0.5403810000000 1.0
C      1  0.5182490000000  0.5553410000000  0.4319410000000 1.0
C      1  0.4317910000000  0.4402160000000  0.4906020000000 1.0
C      1  0.4975400000000  0.4529870000000  0.4927800000000 1.0
C      1  0.4611460000000  0.4954940000000  0.5849610000000 1.0
C      1  0.5091340000000  0.5701920000000  0.4552860000000 1.0
C      1  0.4634030000000  0.4082120000000  0.4734390000000 1.0
C      1  0.5663260000000  0.4641090000000  0.4589800000000 1.0
C      1  0.4524430000000  0.4463760000000  0.4473650000000 1.0
C      1  0.4834950000000  0.4842510000000  0.5950170000000 1.0
C      1  0.5445170000000  0.5750610000000  0.5201270000000 1.0
C      1  0.5678100000000  0.5571880000000  0.5152790000000 1.0
C      1  0.4135620000000  0.4960770000000  0.4859100000000 1.0
C      1  0.5122140000000  0.5054630000000  0.5085920000000 1.0
C      1  0.4277990000000  0.4717940000000  0.5577430000000 1.0
C      1  0.5488270000000  0.4890650000000  0.4676400000000 1.0
C      1  0.5265530000000  0.5664770000000  0.4775970000000 1.0
C      1  0.6060680000000  0.5335330000000  0.4992980000000 1.0
C      1  0.4495080000000  0.4699720000000  0.5751980000000 1.0
C      1  0.5546540000000  0.4944860000000  0.4967170000000 1.0
C      1  0.5467020000000  0.4505310000000  0.4423320000000 1.0
C      1  0.5088650000000  0.4442960000000  0.5423210000000 1.0
C      1  0.5470360000000  0.5432710000000  0.5525160000000 1.0
C      1  0.4316540000000  0.4538420000000  0.4654440000000 1.0
C      1  0.5752070000000  0.5069650000000  0.5339450000000 1.0
C      1  0.4761440000000  0.5452980000000  0.5749010000000 1.0
C      1  0.5011340000000  0.4727120000000  0.5779310000000 1.0
C      1  0.4716640000000  0.4815730000000  0.5242310000000 1.0
C      1  0.4466140000000  0.5649890000000  0.4922350000000 1.0
C      1  0.4617810000000  0.5754810000000  0.5130990000000 1.0
C      1  0.4580700000000  0.5648080000000  0.4657150000000 1.0
C      1  0.5014460000000  0.4415350000000  0.4630080000000 1.0
C      1  0.6030610000000  0.5061800000000  0.4925450000000 1.0
C      1  0.5808270000000  0.4606760000000  0.5070590000000 1.0
C      1  0.5457830000000  0.4305650000000  0.4844450000000 1.0
C      1  0.4497390000000  0.5439310000000  0.4473950000000 1.0
C      1  0.4683880000000  0.4892700000000  0.4766890000000 1.0
C      1  0.4694870000000  0.4236140000000  0.5205700000000 1.0
C      1  0.4299990000000  0.4494530000000  0.5388750000000 1.0
C      1  0.4737310000000  0.4279070000000  0.4570720000000 1.0
C      1  0.4205180000000  0.4831170000000  0.5093810000000 1.0
C      1  0.5370450000000  0.5048000000000  0.5657640000000 1.0
C      1  0.5312500000000  0.4337950000000  0.4604340000000 1.0
C      1  0.5376580000000  0.5689490000000  0.5471290000000 1.0
C      1  0.4538180000000  0.4336830000000  0.5426530000000 1.0
C      1  0.5249160000000  0.4927280000000  0.4145940000000 1.0
C      1  0.5418520000000  0.5406870000000  0.4291790000000 1.0
C      1  0.4866220000000  0.4694630000000  0.4232520000000 1.0
C      1  0.4325420000000  0.5451190000000  0.5348310000000 1.0
C      1  0.4269490000000  0.4980560000000  0.5463130000000 1.0
C      1  0.4650700000000  0.4462920000000  0.5660870000000 1.0
C      1  0.4199670000000  0.4802590000000  0.4627110000000 1.0
C      1  0.5689930000000  0.4486330000000  0.4836500000000 1.0
C      1  0.5368990000000  0.5377420000000  0.4759200000000 1.0
C      1  0.5118700000000  0.5210050000000  0.4651590000000 1.0
C      1  0.5564010000000  0.5353950000000  0.4531640000000 1.0
C      1  0.5516260000000  0.4286170000000  0.5239610000000 1.0
C      1  0.4950110000000  0.5439390000000  0.5132520000000 1.0
C      1  0.4561060000000  0.5231100000000  0.5751840000000 1.0
C      1  0.5616620000000  0.4936550000000  0.5543740000000 1.0
C      1  0.4487780000000  0.4918030000000  0.4255600000000 1.0
C      1  0.5355470000000  0.4749860000000  0.5101280000000 1.0
C      1  0.5823800000000  0.4913330000000  0.5087260000000 1.0
C      1  0.5942250000000  0.5552320000000  0.5064890000000 1.0
C      1  0.4958780000000  0.5248530000000  0.4903140000000 1.0
C      1  0.5003590000000  0.4327320000000  0.5164750000000 1.0
C      1  0.4697320000000  0.5147510000000  0.4860120000000 1.0
C      1  0.5063020000000  0.5477870000000  0.5755690000000 1.0
C      1  0.5144920000000  0.4884820000000  0.5564200000000 1.0
C      1  0.4949640000000  0.4937990000000  0.4124640000000 1.0
C      1  0.4927270000000  0.4487060000000  0.5656320000000 1.0
C      1  0.4686470000000  0.5676410000000  0.5581410000000 1.0
C      1  0.4927610000000  0.5742040000000  0.5166900000000 1.0
C      1  0.5060070000000  0.4655720000000  0.4449070000000 1.0
C      1  0.5855470000000  0.4866870000000  0.4505700000000 1.0
C      1  0.5293190000000  0.4661640000000  0.4264150000000 1.0
C      1  0.5563120000000  0.4665740000000  0.5480210000000 1.0
C      1  0.5133120000000  0.5718120000000  0.5607740000000 1.0
C      1  0.5692860000000  0.4489730000000  0.5298250000000 1.0
END
