TITL C-130746-6952-7 -0.225635355581736 125000 -543.593846506692 0 0 78 (C1) n - 1
REM
REM in /rds/project/t2_vol4/rds-t2-cs072/BORA/CARBON/from-Arr/AIRSS/Generating-Clusters/GAP-ML-2020/Only-C1/SD-CG/HFTN-CG
REM
REM
REM
REM
REM
REM ./C.cell (11c1c37f851c82e70ff6c80c92926a4b)
REM AIRSS Version 0.9.1 bugfix July 2018 build 013d7b7c2542+ Fri, 06 Jul 2018 19:26:36 +0100
REM compiler GCC version 9.3.0
REM options -cpp -mtune=generic -march=x86-64 -g -O0
REM seed 1974319569 1966986752 -1714309521 567225899 -200908996 -689531069 -87290196 1405844109 -1123085278 -194691530 626776385 2025408228 414109712 897836123 1737475697 1224329856 -1571825272 -1747346541 715481668 -611763348 -1809943388 -1964607360 -36290813 -1393804002 1147550014 247333454 -774594718 -888762614 1947392661 151697355 713924188 -1394531650 1273485188
REM
CELL 1.54180   50.00000   50.00000   50.00000   90.00000   90.00000   90.00000
LATT -1
SFAC C  
C      1  0.4768080000000  0.4326190000000  0.4861120000000 1.0
C      1  0.4729240000000  0.5593490000000  0.4582030000000 1.0
C      1  0.4919120000000  0.5743840000000  0.5083430000000 1.0
C      1  0.5183950000000  0.5147530000000  0.5624420000000 1.0
C      1  0.4815500000000  0.5485640000000  0.5474710000000 1.0
C      1  0.5553160000000  0.5545340000000  0.5097970000000 1.0
C      1  0.5120010000000  0.4294030000000  0.5200970000000 1.0
C      1  0.5241230000000  0.4418650000000  0.5430530000000 1.0
C      1  0.4655220000000  0.5645220000000  0.5050200000000 1.0
C      1  0.5245600000000  0.5737470000000  0.5437200000000 1.0
C      1  0.4343700000000  0.4676420000000  0.4990250000000 1.0
C      1  0.5021670000000  0.4827940000000  0.4718640000000 1.0
C      1  0.5481520000000  0.4445860000000  0.5272760000000 1.0
C      1  0.5532900000000  0.4842560000000  0.5533400000000 1.0
C      1  0.4546260000000  0.5556820000000  0.4798170000000 1.0
C      1  0.5169870000000  0.5487290000000  0.4484390000000 1.0
C      1  0.5784360000000  0.4864110000000  0.5130620000000 1.0
C      1  0.4352070000000  0.4863550000000  0.5381970000000 1.0
C      1  0.4994650000000  0.5684720000000  0.4621870000000 1.0
C      1  0.4256780000000  0.4917720000000  0.5112360000000 1.0
C      1  0.4697220000000  0.4508190000000  0.4655020000000 1.0
C      1  0.4289320000000  0.5197980000000  0.5049170000000 1.0
C      1  0.4583580000000  0.5501340000000  0.5296570000000 1.0
C      1  0.4860460000000  0.4836450000000  0.4288580000000 1.0
C      1  0.4406800000000  0.4204550000000  0.5131800000000 1.0
C      1  0.5744950000000  0.5335520000000  0.5059820000000 1.0
C      1  0.4931070000000  0.4629960000000  0.4509160000000 1.0
C      1  0.4602940000000  0.4929740000000  0.4320490000000 1.0
C      1  0.4367570000000  0.5161140000000  0.4570640000000 1.0
C      1  0.5780110000000  0.5124570000000  0.5252140000000 1.0
C      1  0.5469570000000  0.4553600000000  0.4598200000000 1.0
C      1  0.4714620000000  0.4538160000000  0.5319000000000 1.0
C      1  0.5354730000000  0.4302200000000  0.5038380000000 1.0
C      1  0.5783830000000  0.4911350000000  0.4840140000000 1.0
C      1  0.4735980000000  0.5404730000000  0.4361760000000 1.0
C      1  0.5213190000000  0.4840370000000  0.5138290000000 1.0
C      1  0.4333830000000  0.4607080000000  0.5502110000000 1.0
C      1  0.5769900000000  0.5202470000000  0.4808290000000 1.0
C      1  0.5623760000000  0.5110390000000  0.5487010000000 1.0
C      1  0.5289690000000  0.5066520000000  0.5011110000000 1.0
C      1  0.4562910000000  0.4606630000000  0.5722470000000 1.0
C      1  0.4991150000000  0.4734170000000  0.5004830000000 1.0
C      1  0.4992630000000  0.5682540000000  0.5358030000000 1.0
C      1  0.5643320000000  0.4677580000000  0.5320390000000 1.0
C      1  0.5438510000000  0.5503810000000  0.4615520000000 1.0
C      1  0.5616820000000  0.5284640000000  0.4589190000000 1.0
C      1  0.4811290000000  0.4925330000000  0.5122210000000 1.0
C      1  0.4901080000000  0.4453160000000  0.5092540000000 1.0
C      1  0.5315700000000  0.4998370000000  0.4269390000000 1.0
C      1  0.4362530000000  0.5325900000000  0.4796670000000 1.0
C      1  0.5395690000000  0.5638200000000  0.4869910000000 1.0
C      1  0.5053800000000  0.5051670000000  0.4230390000000 1.0
C      1  0.4465500000000  0.4665350000000  0.4726520000000 1.0
C      1  0.5113990000000  0.5743360000000  0.4872980000000 1.0
C      1  0.5494300000000  0.5023990000000  0.4483910000000 1.0
C      1  0.4621980000000  0.4851030000000  0.5828510000000 1.0
C      1  0.5431440000000  0.5545320000000  0.5367450000000 1.0
C      1  0.5336950000000  0.4358780000000  0.4758520000000 1.0
C      1  0.5098670000000  0.4602560000000  0.5593000000000 1.0
C      1  0.5001730000000  0.5332050000000  0.4291730000000 1.0
C      1  0.4823620000000  0.5159570000000  0.4984830000000 1.0
C      1  0.4423330000000  0.4874270000000  0.4543440000000 1.0
C      1  0.5198230000000  0.4489470000000  0.4548900000000 1.0
C      1  0.5089590000000  0.5272540000000  0.5004030000000 1.0
C      1  0.4909540000000  0.5246190000000  0.5615230000000 1.0
C      1  0.4852090000000  0.5084020000000  0.4701680000000 1.0
C      1  0.5262490000000  0.5013490000000  0.4713800000000 1.0
C      1  0.4421250000000  0.4482990000000  0.5241460000000 1.0
C      1  0.4726230000000  0.5017630000000  0.5626580000000 1.0
C      1  0.5637980000000  0.4789250000000  0.4613290000000 1.0
C      1  0.4538380000000  0.5215510000000  0.4343540000000 1.0
C      1  0.5097180000000  0.5258200000000  0.4689070000000 1.0
C      1  0.5257330000000  0.4854490000000  0.5623810000000 1.0
C      1  0.4581020000000  0.4141480000000  0.4951900000000 1.0
C      1  0.5419920000000  0.5297930000000  0.5531450000000 1.0
C      1  0.4368600000000  0.5340230000000  0.5273150000000 1.0
C      1  0.4663670000000  0.4873810000000  0.5362050000000 1.0
C      1  0.4811540000000  0.4513780000000  0.5592980000000 1.0
END
