TITL C-130745-6703-6 66.2918982687041 125000 -74.2229134488366 0 0 12 (C1) n - 1
REM
REM in /rds/project/t2_vol4/rds-t2-cs072/BORA/CARBON/from-Arr/AIRSS/Generating-Clusters/GAP-ML-2020/Only-C1/SD-CG/HFTN-CG
REM
REM
REM
REM
REM
REM ./C.cell (11c1c37f851c82e70ff6c80c92926a4b)
REM AIRSS Version 0.9.1 bugfix July 2018 build 013d7b7c2542+ Fri, 06 Jul 2018 19:26:36 +0100
REM compiler GCC version 9.3.0
REM options -cpp -mtune=generic -march=x86-64 -g -O0
REM seed -679516404 907026056 -1362870055 -1170796660 -1157198664 334772454 747948048 357769718 1691193426 1356603814 -1940857481 877833734 -94505 -2024774959 1235989933 1792422328 1212605720 -158042635 -336217306 -2035432643 -55335529 -2106046575 -1224005842 -816391522 -1979692338 -461321266 609454373 -1255920884 -1319409913 1379768658 -1325377661 -2116672782 1364488841
REM
CELL 1.54180   50.00000   50.00000   50.00000   90.00000   90.00000   90.00000
LATT -1
SFAC C  
C      1  0.5175480000000  0.4852810000000  0.4620040000000 1.0
C      1  0.5390610000000  0.5175700000000  0.4867690000000 1.0
C      1  0.5314450000000  0.5083370000000  0.4638160000000 1.0
C      1  0.4589400000000  0.4654230000000  0.4997840000000 1.0
C      1  0.4743950000000  0.4809670000000  0.5162120000000 1.0
C      1  0.4671750000000  0.5526430000000  0.5232530000000 1.0
C      1  0.4879430000000  0.5048470000000  0.5201440000000 1.0
C      1  0.5078020000000  0.4799180000000  0.4872330000000 1.0
C      1  0.5382290000000  0.5117520000000  0.5125360000000 1.0
C      1  0.5141350000000  0.4980510000000  0.5105610000000 1.0
C      1  0.4860370000000  0.4653840000000  0.4947150000000 1.0
C      1  0.4772900000000  0.5298270000000  0.5229720000000 1.0
END
