TITL C-134889-4581-2 -0.191261684345597 125000 -813.973903153862 0 0 116 (C1) n - 1
REM
REM in /rds/project/t2_vol4/rds-t2-cs072/BORA/CARBON/from-Arr/AIRSS/Generating-Clusters/GAP-ML-2020/Only-C1/SD-CG/HFTN-CG
REM
REM
REM
REM
REM
REM ./C.cell (11c1c37f851c82e70ff6c80c92926a4b)
REM AIRSS Version 0.9.1 bugfix July 2018 build 013d7b7c2542+ Fri, 06 Jul 2018 19:26:36 +0100
REM compiler GCC version 9.3.0
REM options -cpp -mtune=generic -march=x86-64 -g -O0
REM seed -944856450 -89707294 1659659387 -897700525 141789101 -874719046 2053615072 -905404542 -728246334 -1536409065 2143920991 102531563 2020745704 -355062009 1236885216 401182467 1159614521 -1650386486 -345214752 2077338535 -177384374 -989393206 614766323 2121884466 533284149 -1196735548 392984090 677676511 522547836 -491097531 -218038016 -1453307327 1662223351
REM
CELL 1.54180   50.00000   50.00000   50.00000   90.00000   90.00000   90.00000
LATT -1
SFAC C  
C      1  0.5091320000000  0.4567350000000  0.5129170000000 1.0
C      1  0.4528970000000  0.4670720000000  0.4856910000000 1.0
C      1  0.4613570000000  0.5737570000000  0.5274560000000 1.0
C      1  0.3949890000000  0.4554760000000  0.5136980000000 1.0
C      1  0.4212500000000  0.4878440000000  0.5404980000000 1.0
C      1  0.4894030000000  0.5350710000000  0.5843960000000 1.0
C      1  0.4991750000000  0.4370110000000  0.4178730000000 1.0
C      1  0.5704740000000  0.5575180000000  0.4868270000000 1.0
C      1  0.4992840000000  0.4838510000000  0.5803280000000 1.0
C      1  0.5287210000000  0.5405000000000  0.4892130000000 1.0
C      1  0.4526460000000  0.4961130000000  0.5838890000000 1.0
C      1  0.5502410000000  0.4791230000000  0.5742660000000 1.0
C      1  0.4695130000000  0.4749620000000  0.5832570000000 1.0
C      1  0.4861400000000  0.5873940000000  0.5173710000000 1.0
C      1  0.5664240000000  0.4998410000000  0.4373550000000 1.0
C      1  0.4450350000000  0.5158240000000  0.5014460000000 1.0
C      1  0.5360290000000  0.4192560000000  0.5003340000000 1.0
C      1  0.4780220000000  0.4375790000000  0.5540860000000 1.0
C      1  0.5874640000000  0.5295190000000  0.5182070000000 1.0
C      1  0.4420900000000  0.5606420000000  0.4822160000000 1.0
C      1  0.5318210000000  0.5207860000000  0.5900080000000 1.0
C      1  0.5694820000000  0.4865190000000  0.5021750000000 1.0
C      1  0.5684570000000  0.5243630000000  0.5627090000000 1.0
C      1  0.5047870000000  0.5248160000000  0.4248050000000 1.0
C      1  0.5676190000000  0.4561050000000  0.4941660000000 1.0
C      1  0.5551080000000  0.5497000000000  0.5607580000000 1.0
C      1  0.4939790000000  0.5502540000000  0.4333950000000 1.0
C      1  0.5228290000000  0.4281210000000  0.4756980000000 1.0
C      1  0.4413210000000  0.5594980000000  0.5116680000000 1.0
C      1  0.5366860000000  0.5175600000000  0.4720910000000 1.0
C      1  0.4367630000000  0.4841280000000  0.4667090000000 1.0
C      1  0.4897890000000  0.5310550000000  0.5154470000000 1.0
C      1  0.4947950000000  0.5745980000000  0.5604830000000 1.0
C      1  0.4446110000000  0.4765850000000  0.4392610000000 1.0
C      1  0.5634920000000  0.4689580000000  0.5501210000000 1.0
C      1  0.4402280000000  0.5133630000000  0.4730460000000 1.0
C      1  0.4465710000000  0.4706680000000  0.5389880000000 1.0
C      1  0.4658300000000  0.4249740000000  0.4623100000000 1.0
C      1  0.4818130000000  0.4684730000000  0.4792470000000 1.0
C      1  0.5373140000000  0.4376690000000  0.4530530000000 1.0
C      1  0.4899190000000  0.4924860000000  0.4936420000000 1.0
C      1  0.4797430000000  0.5107330000000  0.4143210000000 1.0
C      1  0.5548670000000  0.4387430000000  0.5124310000000 1.0
C      1  0.4918460000000  0.5147070000000  0.4729000000000 1.0
C      1  0.5353880000000  0.5382690000000  0.5174020000000 1.0
C      1  0.5539450000000  0.5063490000000  0.5799790000000 1.0
C      1  0.4320440000000  0.5332870000000  0.5204530000000 1.0
C      1  0.3991300000000  0.4751620000000  0.5298490000000 1.0
C      1  0.4381700000000  0.4313930000000  0.4546220000000 1.0
C      1  0.4465130000000  0.4494320000000  0.4313890000000 1.0
C      1  0.4824170000000  0.4416930000000  0.4434390000000 1.0
C      1  0.4711460000000  0.5069490000000  0.5131700000000 1.0
C      1  0.4603940000000  0.4260780000000  0.5113350000000 1.0
C      1  0.4998010000000  0.4567710000000  0.5405470000000 1.0
C      1  0.5436980000000  0.5672040000000  0.4783420000000 1.0
C      1  0.4982910000000  0.4427360000000  0.4889830000000 1.0
C      1  0.4448900000000  0.4524210000000  0.5112680000000 1.0
C      1  0.4713080000000  0.4380520000000  0.4165980000000 1.0
C      1  0.5338870000000  0.5478980000000  0.5800570000000 1.0
C      1  0.5471840000000  0.5430060000000  0.4350200000000 1.0
C      1  0.4153210000000  0.4431460000000  0.4994890000000 1.0
C      1  0.4734070000000  0.4170960000000  0.5339210000000 1.0
C      1  0.4276530000000  0.5165670000000  0.5434730000000 1.0
C      1  0.5850150000000  0.5136290000000  0.4949040000000 1.0
C      1  0.5078340000000  0.5700320000000  0.4470110000000 1.0
C      1  0.4642610000000  0.5672830000000  0.4652580000000 1.0
C      1  0.5160010000000  0.4988280000000  0.5339230000000 1.0
C      1  0.5070960000000  0.5572050000000  0.5792230000000 1.0
C      1  0.4585470000000  0.4560830000000  0.5636370000000 1.0
C      1  0.5816920000000  0.5133250000000  0.5404850000000 1.0
C      1  0.5047560000000  0.4237540000000  0.5599940000000 1.0
C      1  0.4988250000000  0.5374390000000  0.4892680000000 1.0
C      1  0.4513510000000  0.5144590000000  0.5615820000000 1.0
C      1  0.5287250000000  0.5861260000000  0.4968680000000 1.0
C      1  0.5254400000000  0.4665430000000  0.5779360000000 1.0
C      1  0.5630090000000  0.5249020000000  0.4524870000000 1.0
C      1  0.4264580000000  0.5400810000000  0.4660100000000 1.0
C      1  0.5241210000000  0.4453840000000  0.5574340000000 1.0
C      1  0.5003840000000  0.5901030000000  0.4920330000000 1.0
C      1  0.5327790000000  0.5820870000000  0.5246860000000 1.0
C      1  0.4894390000000  0.5811100000000  0.4674200000000 1.0
C      1  0.5162800000000  0.4850860000000  0.5080150000000 1.0
C      1  0.4667360000000  0.5162760000000  0.4571410000000 1.0
C      1  0.5134310000000  0.5259850000000  0.5301180000000 1.0
C      1  0.4219130000000  0.5442730000000  0.4392950000000 1.0
C      1  0.5067670000000  0.5862010000000  0.5371330000000 1.0
C      1  0.5203420000000  0.4041420000000  0.5171720000000 1.0
C      1  0.5500040000000  0.4464850000000  0.5404360000000 1.0
C      1  0.5363110000000  0.4737730000000  0.4675090000000 1.0
C      1  0.4685050000000  0.5646290000000  0.5545580000000 1.0
C      1  0.4698310000000  0.4927170000000  0.4368970000000 1.0
C      1  0.5753550000000  0.5553850000000  0.5146270000000 1.0
C      1  0.5402090000000  0.4925610000000  0.4890740000000 1.0
C      1  0.5522930000000  0.5608030000000  0.5325710000000 1.0
C      1  0.5356570000000  0.5647450000000  0.4494820000000 1.0
C      1  0.5294180000000  0.4751230000000  0.4223470000000 1.0
C      1  0.5134810000000  0.5102870000000  0.4537650000000 1.0
C      1  0.4575480000000  0.5248600000000  0.4057000000000 1.0
C      1  0.5592600000000  0.4552320000000  0.4642530000000 1.0
C      1  0.4672500000000  0.4938310000000  0.5392070000000 1.0
C      1  0.5163050000000  0.4812020000000  0.4478950000000 1.0
C      1  0.4757500000000  0.4226570000000  0.4881570000000 1.0
C      1  0.5794070000000  0.5332000000000  0.4743470000000 1.0
C      1  0.5333440000000  0.5244370000000  0.4173810000000 1.0
C      1  0.5050100000000  0.5112950000000  0.5906630000000 1.0
C      1  0.4452720000000  0.5411920000000  0.4243690000000 1.0
C      1  0.4188810000000  0.4334040000000  0.4735120000000 1.0
C      1  0.4880120000000  0.4716050000000  0.4504060000000 1.0
C      1  0.4948140000000  0.4848400000000  0.5492580000000 1.0
C      1  0.5749330000000  0.4872700000000  0.5318000000000 1.0
C      1  0.4678030000000  0.5462330000000  0.4446330000000 1.0
C      1  0.5458260000000  0.4985020000000  0.4175520000000 1.0
C      1  0.5711930000000  0.4762600000000  0.4496930000000 1.0
C      1  0.5256780000000  0.4467310000000  0.4259250000000 1.0
C      1  0.4654560000000  0.5393140000000  0.5692950000000 1.0
C      1  0.5014470000000  0.4076290000000  0.5355570000000 1.0
END
