TITL C-130740-6863-2 -0.0478079666509398 125000 -302.291008036602 0 0 46 (C1) n - 1
REM
REM in /rds/project/t2_vol4/rds-t2-cs072/BORA/CARBON/from-Arr/AIRSS/Generating-Clusters/GAP-ML-2020/Only-C1/SD-CG/HFTN-CG
REM
REM
REM
REM
REM
REM ./C.cell (11c1c37f851c82e70ff6c80c92926a4b)
REM AIRSS Version 0.9.1 bugfix July 2018 build 013d7b7c2542+ Fri, 06 Jul 2018 19:26:36 +0100
REM compiler GCC version 9.3.0
REM options -cpp -mtune=generic -march=x86-64 -g -O0
REM seed 619419109 2010764800 493184804 -1409441261 -653050014 -1344050338 2019671458 112113542 480725940 -1923209219 -1999521571 -1282688025 1893545631 -1600859870 -332018779 -1667890055 881324824 -1331166359 109216024 159467709 -754441330 1899441835 -1558166586 1930718922 -430589673 1534484959 1912194450 -1626659366 -603294499 -586995249 1598001874 -1760994371 -832603573
REM
CELL 1.54180   50.00000   50.00000   50.00000   90.00000   90.00000   90.00000
LATT -1
SFAC C  
C      1  0.5470410000000  0.5125840000000  0.4569340000000 1.0
C      1  0.4993720000000  0.5571330000000  0.5257400000000 1.0
C      1  0.5084220000000  0.4618060000000  0.5570520000000 1.0
C      1  0.5315870000000  0.5355850000000  0.4638480000000 1.0
C      1  0.4431670000000  0.5286800000000  0.4929320000000 1.0
C      1  0.5298920000000  0.4507650000000  0.5184130000000 1.0
C      1  0.4755220000000  0.4952410000000  0.4966630000000 1.0
C      1  0.5342540000000  0.5484030000000  0.4907120000000 1.0
C      1  0.5169760000000  0.5041960000000  0.4955230000000 1.0
C      1  0.4460030000000  0.4919420000000  0.5298160000000 1.0
C      1  0.4710620000000  0.5572720000000  0.5267360000000 1.0
C      1  0.4499610000000  0.5072860000000  0.5798670000000 1.0
C      1  0.5649160000000  0.5025490000000  0.4757670000000 1.0
C      1  0.4589810000000  0.5121120000000  0.5532190000000 1.0
C      1  0.4692740000000  0.4513700000000  0.4792870000000 1.0
C      1  0.5052050000000  0.5053750000000  0.4392370000000 1.0
C      1  0.4848830000000  0.4742490000000  0.5172160000000 1.0
C      1  0.5628980000000  0.4857390000000  0.4986930000000 1.0
C      1  0.4846720000000  0.4840840000000  0.4419570000000 1.0
C      1  0.5068720000000  0.4562880000000  0.5010950000000 1.0
C      1  0.4952900000000  0.4395470000000  0.4783290000000 1.0
C      1  0.5097800000000  0.4468050000000  0.4525530000000 1.0
C      1  0.4584260000000  0.5375580000000  0.4724950000000 1.0
C      1  0.4568640000000  0.4651040000000  0.5253070000000 1.0
C      1  0.4848920000000  0.5347800000000  0.4725570000000 1.0
C      1  0.5651170000000  0.5141930000000  0.5003080000000 1.0
C      1  0.4532290000000  0.5417800000000  0.5407690000000 1.0
C      1  0.5239140000000  0.4450770000000  0.5456510000000 1.0
C      1  0.5136700000000  0.5608250000000  0.5023490000000 1.0
C      1  0.4922110000000  0.5185690000000  0.4963550000000 1.0
C      1  0.5013910000000  0.4866220000000  0.5393200000000 1.0
C      1  0.4542130000000  0.4516410000000  0.5022230000000 1.0
C      1  0.4480300000000  0.5463570000000  0.5143020000000 1.0
C      1  0.5450040000000  0.4750990000000  0.5163380000000 1.0
C      1  0.4817810000000  0.4799630000000  0.4722610000000 1.0
C      1  0.5271420000000  0.4692380000000  0.4579170000000 1.0
C      1  0.5260560000000  0.4961990000000  0.5246880000000 1.0
C      1  0.4899380000000  0.5122340000000  0.5457600000000 1.0
C      1  0.5308630000000  0.4937770000000  0.4431230000000 1.0
C      1  0.4484960000000  0.5026420000000  0.5037830000000 1.0
C      1  0.5080290000000  0.5336210000000  0.5409140000000 1.0
C      1  0.5050170000000  0.5304550000000  0.4536580000000 1.0
C      1  0.4964580000000  0.4596970000000  0.4333990000000 1.0
C      1  0.5489190000000  0.5338570000000  0.5111340000000 1.0
C      1  0.5325390000000  0.5231710000000  0.5325210000000 1.0
C      1  0.5117680000000  0.4785270000000  0.4812810000000 1.0
END
