TITL C-130746-6952-6 -44.0075686064955 125000 -595.154423981461 0 0 85 (C1) n - 1
REM
REM in /rds/project/t2_vol4/rds-t2-cs072/BORA/CARBON/from-Arr/AIRSS/Generating-Clusters/GAP-ML-2020/Only-C1/SD-CG/HFTN-CG
REM
REM
REM
REM
REM
REM ./C.cell (11c1c37f851c82e70ff6c80c92926a4b)
REM AIRSS Version 0.9.1 bugfix July 2018 build 013d7b7c2542+ Fri, 06 Jul 2018 19:26:36 +0100
REM compiler GCC version 9.3.0
REM options -cpp -mtune=generic -march=x86-64 -g -O0
REM seed 1161270538 1903652322 -733254391 1741606841 -413914525 630833765 -91295145 -2135243621 -2085943200 -1344853163 239175501 -1709287738 1855321261 -1246136806 2024165778 -1471316644 -155039031 -1775984786 -1142919849 -1220106689 2143177295 -859443072 1771718390 -242330444 1084834232 -1078868644 397860334 2139101849 942628905 -1884383395 -465928639 297144157 817742384
REM
CELL 1.54180   50.00000   50.00000   50.00000   90.00000   90.00000   90.00000
LATT -1
SFAC C  
C      1  0.4754710000000  0.5634670000000  0.4580100000000 1.0
C      1  0.5299300000000  0.5154040000000  0.4273290000000 1.0
C      1  0.5212590000000  0.4210380000000  0.5244680000000 1.0
C      1  0.5472250000000  0.4302750000000  0.5313600000000 1.0
C      1  0.5531520000000  0.5400710000000  0.5005530000000 1.0
C      1  0.5151090000000  0.5186450000000  0.5211410000000 1.0
C      1  0.4840610000000  0.5745960000000  0.4829780000000 1.0
C      1  0.5063920000000  0.4548130000000  0.5004810000000 1.0
C      1  0.5578810000000  0.5129050000000  0.4376080000000 1.0
C      1  0.5439050000000  0.4948740000000  0.4709520000000 1.0
C      1  0.4193580000000  0.5291940000000  0.4838800000000 1.0
C      1  0.5214210000000  0.5597480000000  0.5429120000000 1.0
C      1  0.5369520000000  0.4543390000000  0.4392830000000 1.0
C      1  0.4303080000000  0.5002440000000  0.5502820000000 1.0
C      1  0.4864550000000  0.4982610000000  0.4329100000000 1.0
C      1  0.5131620000000  0.5451840000000  0.5645210000000 1.0
C      1  0.4923670000000  0.4792520000000  0.5057170000000 1.0
C      1  0.5589940000000  0.4534460000000  0.5425000000000 1.0
C      1  0.4485690000000  0.5532500000000  0.4574430000000 1.0
C      1  0.4483000000000  0.4796630000000  0.5575910000000 1.0
C      1  0.4506170000000  0.4610170000000  0.4691020000000 1.0
C      1  0.5353380000000  0.5563110000000  0.4855270000000 1.0
C      1  0.5707730000000  0.4436890000000  0.4656550000000 1.0
C      1  0.4748250000000  0.4273270000000  0.4997630000000 1.0
C      1  0.4540960000000  0.4575140000000  0.5411840000000 1.0
C      1  0.4928880000000  0.4856170000000  0.4600300000000 1.0
C      1  0.5883670000000  0.5112730000000  0.4962680000000 1.0
C      1  0.4717320000000  0.4904210000000  0.5694690000000 1.0
C      1  0.4314350000000  0.5548000000000  0.4790270000000 1.0
C      1  0.4789050000000  0.5756220000000  0.5302560000000 1.0
C      1  0.5398860000000  0.5496610000000  0.4579770000000 1.0
C      1  0.5650910000000  0.4611510000000  0.4456830000000 1.0
C      1  0.4942620000000  0.4343350000000  0.5237590000000 1.0
C      1  0.4723910000000  0.5129340000000  0.5248510000000 1.0
C      1  0.5474470000000  0.4714190000000  0.5632540000000 1.0
C      1  0.5425980000000  0.4202270000000  0.5055650000000 1.0
C      1  0.5233340000000  0.4752570000000  0.4636230000000 1.0
C      1  0.4532420000000  0.4443060000000  0.4936350000000 1.0
C      1  0.5117010000000  0.4933150000000  0.4208430000000 1.0
C      1  0.4968110000000  0.4956440000000  0.5297150000000 1.0
C      1  0.5192570000000  0.5394040000000  0.4396770000000 1.0
C      1  0.4728760000000  0.5228590000000  0.4347220000000 1.0
C      1  0.5307190000000  0.4304200000000  0.4542450000000 1.0
C      1  0.4817310000000  0.4506160000000  0.5445310000000 1.0
C      1  0.4261030000000  0.4797870000000  0.5051440000000 1.0
C      1  0.5092400000000  0.5640800000000  0.4962640000000 1.0
C      1  0.5650950000000  0.4887960000000  0.4505600000000 1.0
C      1  0.4679170000000  0.5600210000000  0.5514590000000 1.0
C      1  0.5026050000000  0.4293440000000  0.4537740000000 1.0
C      1  0.4191700000000  0.5008190000000  0.5238080000000 1.0
C      1  0.4654000000000  0.5776320000000  0.5047560000000 1.0
C      1  0.4762440000000  0.5208340000000  0.4978410000000 1.0
C      1  0.4297180000000  0.5098330000000  0.4652760000000 1.0
C      1  0.4280740000000  0.5503390000000  0.5243710000000 1.0
C      1  0.4163520000000  0.5265340000000  0.5121990000000 1.0
C      1  0.5435140000000  0.5178150000000  0.5191850000000 1.0
C      1  0.5327670000000  0.5243210000000  0.5690300000000 1.0
C      1  0.4411830000000  0.5487710000000  0.5490530000000 1.0
C      1  0.4837170000000  0.4957510000000  0.4851220000000 1.0
C      1  0.5640430000000  0.5348890000000  0.4555470000000 1.0
C      1  0.5653020000000  0.4927860000000  0.5544510000000 1.0
C      1  0.5742790000000  0.5304470000000  0.4829000000000 1.0
C      1  0.4922270000000  0.4488990000000  0.4354680000000 1.0
C      1  0.4324060000000  0.4828830000000  0.4765280000000 1.0
C      1  0.5777660000000  0.4876690000000  0.5068660000000 1.0
C      1  0.5209120000000  0.4781530000000  0.5718590000000 1.0
C      1  0.4733850000000  0.4652580000000  0.4501270000000 1.0
C      1  0.5067370000000  0.5726110000000  0.5245970000000 1.0
C      1  0.4392450000000  0.5666780000000  0.5033070000000 1.0
C      1  0.4676680000000  0.5187880000000  0.5722320000000 1.0
C      1  0.4945410000000  0.4314580000000  0.4804320000000 1.0
C      1  0.5465010000000  0.4350110000000  0.4798670000000 1.0
C      1  0.5758880000000  0.4758060000000  0.5329260000000 1.0
C      1  0.4405090000000  0.4571660000000  0.5153490000000 1.0
C      1  0.5321960000000  0.4619100000000  0.4899810000000 1.0
C      1  0.5486270000000  0.4889090000000  0.4992310000000 1.0
C      1  0.4415750000000  0.5237290000000  0.5619370000000 1.0
C      1  0.5015590000000  0.5335900000000  0.5015570000000 1.0
C      1  0.5226100000000  0.5038550000000  0.5830480000000 1.0
C      1  0.4842470000000  0.5422780000000  0.5670310000000 1.0
C      1  0.4471020000000  0.5263940000000  0.4472040000000 1.0
C      1  0.4906820000000  0.5450620000000  0.4411760000000 1.0
C      1  0.5147640000000  0.4642430000000  0.4235100000000 1.0
C      1  0.5523540000000  0.5170700000000  0.5482720000000 1.0
C      1  0.4951800000000  0.4759730000000  0.5564690000000 1.0
END
