TITL C-134196-9828-3 1.91274856906151 125000 -787.31507279188 0 0 111 (C1) n - 1
REM
REM in /rds/project/t2_vol4/rds-t2-cs072/BORA/CARBON/from-Arr/AIRSS/Generating-Clusters/GAP-ML-2020/Only-C1/SD-CG/HFTN-CG
REM
REM
REM
REM
REM
REM ./C.cell (11c1c37f851c82e70ff6c80c92926a4b)
REM AIRSS Version 0.9.1 bugfix July 2018 build 013d7b7c2542+ Fri, 06 Jul 2018 19:26:36 +0100
REM compiler GCC version 9.3.0
REM options -cpp -mtune=generic -march=x86-64 -g -O0
REM seed 315724144 -23756521 -1245268530 -424651948 -1587995764 -26293099 1291290640 1481436382 1566246244 -1050204266 -1805106680 1350971979 1056574449 -117585483 -1146441862 1352735808 404058474 277383108 -1570661570 -1898307145 -1534395909 891394638 -2036610429 -472440517 -1502533254 -1597628162 393835914 -151311995 -1901429571 -1669896446 -1281081992 623361149 -383133705
REM
CELL 1.54180   50.00000   50.00000   50.00000   90.00000   90.00000   90.00000
LATT -1
SFAC C  
C      1  0.5712000000000  0.5365020000000  0.5434470000000 1.0
C      1  0.5058410000000  0.4678850000000  0.4158440000000 1.0
C      1  0.5275050000000  0.5765440000000  0.4513310000000 1.0
C      1  0.5259730000000  0.4553300000000  0.5755610000000 1.0
C      1  0.4823650000000  0.4770310000000  0.4815290000000 1.0
C      1  0.4659090000000  0.4929050000000  0.4216360000000 1.0
C      1  0.5325720000000  0.5619140000000  0.5557510000000 1.0
C      1  0.5940780000000  0.5218540000000  0.4963090000000 1.0
C      1  0.4415720000000  0.5725050000000  0.5024720000000 1.0
C      1  0.5806330000000  0.5272900000000  0.4718680000000 1.0
C      1  0.4301970000000  0.5384020000000  0.4616470000000 1.0
C      1  0.5428080000000  0.5212930000000  0.4538860000000 1.0
C      1  0.4564240000000  0.5109750000000  0.4962470000000 1.0
C      1  0.5232010000000  0.5037680000000  0.4752580000000 1.0
C      1  0.5190450000000  0.5572730000000  0.4305080000000 1.0
C      1  0.5554770000000  0.5433330000000  0.4716810000000 1.0
C      1  0.4110310000000  0.4980420000000  0.4934500000000 1.0
C      1  0.5007110000000  0.4073970000000  0.4986090000000 1.0
C      1  0.4961800000000  0.4172830000000  0.5252200000000 1.0
C      1  0.4196080000000  0.4660360000000  0.4615780000000 1.0
C      1  0.5548450000000  0.5645570000000  0.5118600000000 1.0
C      1  0.5736700000000  0.4493630000000  0.5215410000000 1.0
C      1  0.4461510000000  0.5295960000000  0.5541780000000 1.0
C      1  0.5253800000000  0.4730730000000  0.4793690000000 1.0
C      1  0.4938240000000  0.4939870000000  0.4125500000000 1.0
C      1  0.5339630000000  0.5377010000000  0.5705980000000 1.0
C      1  0.5504370000000  0.5725220000000  0.4673060000000 1.0
C      1  0.4843060000000  0.5596990000000  0.5612320000000 1.0
C      1  0.4615840000000  0.4645150000000  0.4287770000000 1.0
C      1  0.5298780000000  0.5302710000000  0.4291410000000 1.0
C      1  0.5439850000000  0.4157470000000  0.5019010000000 1.0
C      1  0.5133500000000  0.4373780000000  0.5360660000000 1.0
C      1  0.5663880000000  0.4303320000000  0.5006490000000 1.0
C      1  0.4579120000000  0.5567030000000  0.5493340000000 1.0
C      1  0.4872810000000  0.4506140000000  0.4280340000000 1.0
C      1  0.4154290000000  0.5702220000000  0.4948300000000 1.0
C      1  0.4368830000000  0.4311110000000  0.4860120000000 1.0
C      1  0.5032750000000  0.5880480000000  0.5234510000000 1.0
C      1  0.5174300000000  0.4986470000000  0.5908860000000 1.0
C      1  0.4824090000000  0.4743110000000  0.5111970000000 1.0
C      1  0.4797410000000  0.5829220000000  0.4640390000000 1.0
C      1  0.4975150000000  0.4349260000000  0.4510700000000 1.0
C      1  0.5366950000000  0.4818860000000  0.5767620000000 1.0
C      1  0.5539370000000  0.5205460000000  0.5590340000000 1.0
C      1  0.5715350000000  0.4804670000000  0.4532530000000 1.0
C      1  0.4260860000000  0.5129900000000  0.4498550000000 1.0
C      1  0.4984780000000  0.4567810000000  0.5838560000000 1.0
C      1  0.5472650000000  0.5845980000000  0.4932350000000 1.0
C      1  0.5252850000000  0.4237630000000  0.4571150000000 1.0
C      1  0.4692640000000  0.5756400000000  0.4900510000000 1.0
C      1  0.4274920000000  0.5191560000000  0.5056060000000 1.0
C      1  0.5129250000000  0.5259580000000  0.5843740000000 1.0
C      1  0.5482310000000  0.4897930000000  0.5174470000000 1.0
C      1  0.4769520000000  0.5886650000000  0.5162280000000 1.0
C      1  0.4939550000000  0.4836670000000  0.5938670000000 1.0
C      1  0.5779270000000  0.4672420000000  0.4776900000000 1.0
C      1  0.5435310000000  0.4944030000000  0.5496100000000 1.0
C      1  0.5072650000000  0.5884670000000  0.4688160000000 1.0
C      1  0.5073220000000  0.5733920000000  0.5485800000000 1.0
C      1  0.4766910000000  0.5014770000000  0.5181990000000 1.0
C      1  0.4484180000000  0.4309680000000  0.4593040000000 1.0
C      1  0.5944800000000  0.4994280000000  0.5130780000000 1.0
C      1  0.5565980000000  0.5613970000000  0.5393060000000 1.0
C      1  0.5492080000000  0.4393780000000  0.4524210000000 1.0
C      1  0.5204580000000  0.5059050000000  0.4177700000000 1.0
C      1  0.5047410000000  0.5132040000000  0.5225490000000 1.0
C      1  0.4869450000000  0.5479160000000  0.4940760000000 1.0
C      1  0.5521500000000  0.4651710000000  0.4381780000000 1.0
C      1  0.4508130000000  0.5134230000000  0.4344870000000 1.0
C      1  0.4873260000000  0.5370560000000  0.5779420000000 1.0
C      1  0.5363040000000  0.4388350000000  0.5544690000000 1.0
C      1  0.5143120000000  0.5555660000000  0.4912430000000 1.0
C      1  0.5686660000000  0.4410940000000  0.4742980000000 1.0
C      1  0.5183570000000  0.5859460000000  0.4968230000000 1.0
C      1  0.5322470000000  0.4784020000000  0.4223730000000 1.0
C      1  0.4932450000000  0.5630790000000  0.4243420000000 1.0
C      1  0.4589970000000  0.5385780000000  0.4515290000000 1.0
C      1  0.4687800000000  0.4937140000000  0.5850150000000 1.0
C      1  0.5311940000000  0.5131760000000  0.5037440000000 1.0
C      1  0.4554440000000  0.4860460000000  0.4816050000000 1.0
C      1  0.4393900000000  0.4628660000000  0.5516740000000 1.0
C      1  0.5246640000000  0.4112940000000  0.4835440000000 1.0
C      1  0.5883000000000  0.5247520000000  0.5243130000000 1.0
C      1  0.4576690000000  0.4381590000000  0.5498200000000 1.0
C      1  0.4128110000000  0.4933150000000  0.4650850000000 1.0
C      1  0.4400480000000  0.4537710000000  0.4444980000000 1.0
C      1  0.5700300000000  0.5082010000000  0.4536650000000 1.0
C      1  0.4195260000000  0.4537760000000  0.4880770000000 1.0
C      1  0.5126910000000  0.4924720000000  0.5421350000000 1.0
C      1  0.4750710000000  0.5268110000000  0.4772970000000 1.0
C      1  0.5300550000000  0.4691740000000  0.5070950000000 1.0
C      1  0.4737720000000  0.4486620000000  0.5718230000000 1.0
C      1  0.5074590000000  0.4661890000000  0.5259980000000 1.0
C      1  0.5764740000000  0.4767010000000  0.5072910000000 1.0
C      1  0.4303100000000  0.5121050000000  0.5354320000000 1.0
C      1  0.4554670000000  0.4715260000000  0.5739640000000 1.0
C      1  0.4263390000000  0.4821640000000  0.5342850000000 1.0
C      1  0.4211100000000  0.5441990000000  0.4885640000000 1.0
C      1  0.4544900000000  0.5756360000000  0.5287190000000 1.0
C      1  0.5612960000000  0.4443140000000  0.5450240000000 1.0
C      1  0.4735510000000  0.5638080000000  0.4427810000000 1.0
C      1  0.4941510000000  0.5042650000000  0.4718300000000 1.0
C      1  0.4741240000000  0.4193840000000  0.4601290000000 1.0
C      1  0.5018240000000  0.4587730000000  0.4720200000000 1.0
C      1  0.4644260000000  0.5200710000000  0.5750660000000 1.0
C      1  0.4672410000000  0.4209060000000  0.5291250000000 1.0
C      1  0.4933480000000  0.5384010000000  0.5201740000000 1.0
C      1  0.5399330000000  0.5414170000000  0.4975670000000 1.0
C      1  0.4762290000000  0.4078170000000  0.4856070000000 1.0
C      1  0.4555240000000  0.4173890000000  0.5030380000000 1.0
C      1  0.4151900000000  0.4747090000000  0.5083740000000 1.0
END
