TITL C-134203-9841-6 -11.2416121235162 125000 -452.126059200296 0 0 66 (C1) n - 1
REM
REM in /rds/project/t2_vol4/rds-t2-cs072/BORA/CARBON/from-Arr/AIRSS/Generating-Clusters/GAP-ML-2020/Only-C1/SD-CG/HFTN-CG
REM
REM
REM
REM
REM
REM ./C.cell (11c1c37f851c82e70ff6c80c92926a4b)
REM AIRSS Version 0.9.1 bugfix July 2018 build 013d7b7c2542+ Fri, 06 Jul 2018 19:26:36 +0100
REM compiler GCC version 9.3.0
REM options -cpp -mtune=generic -march=x86-64 -g -O0
REM seed 280426867 522313302 1242925025 1869026256 1451734898 -67903475 -4173272 230575244 -1652287428 -1416778492 1055020068 -1300429934 -1575143727 1269526721 -1459529909 -50854354 554806225 -1405190447 2095790667 1488924129 -1279367729 179727879 -706294940 149125203 1669668710 -488864702 -60077811 -553707299 1245151653 -855411477 663656006 -53779046 -1868276351
REM
CELL 1.54180   50.00000   50.00000   50.00000   90.00000   90.00000   90.00000
LATT -1
SFAC C  
C      1  0.4647820000000  0.4413190000000  0.5170900000000 1.0
C      1  0.5102030000000  0.5130790000000  0.5294030000000 1.0
C      1  0.5619850000000  0.4638180000000  0.5273330000000 1.0
C      1  0.4422890000000  0.5552330000000  0.4934620000000 1.0
C      1  0.5027910000000  0.4566990000000  0.4618590000000 1.0
C      1  0.5035160000000  0.4700460000000  0.5113690000000 1.0
C      1  0.4457990000000  0.4806300000000  0.5229270000000 1.0
C      1  0.5096110000000  0.5199810000000  0.5009380000000 1.0
C      1  0.5551180000000  0.5455160000000  0.5192510000000 1.0
C      1  0.5077310000000  0.5379640000000  0.5455880000000 1.0
C      1  0.4827360000000  0.5394880000000  0.5590060000000 1.0
C      1  0.5041730000000  0.4806020000000  0.4846760000000 1.0
C      1  0.4639670000000  0.5171760000000  0.5592240000000 1.0
C      1  0.5351850000000  0.4347700000000  0.4908920000000 1.0
C      1  0.5690440000000  0.4907980000000  0.4468790000000 1.0
C      1  0.4533200000000  0.4722290000000  0.4539230000000 1.0
C      1  0.5323070000000  0.4378400000000  0.5402000000000 1.0
C      1  0.5342230000000  0.5597280000000  0.5071590000000 1.0
C      1  0.5757480000000  0.5093950000000  0.5202030000000 1.0
C      1  0.5562890000000  0.5235340000000  0.5381470000000 1.0
C      1  0.5806680000000  0.4826150000000  0.5217120000000 1.0
C      1  0.4645250000000  0.4483620000000  0.5448970000000 1.0
C      1  0.4935680000000  0.4400220000000  0.5102900000000 1.0
C      1  0.5466350000000  0.4414030000000  0.5147540000000 1.0
C      1  0.4376530000000  0.4671330000000  0.4788860000000 1.0
C      1  0.5326640000000  0.5106070000000  0.5476950000000 1.0
C      1  0.4698300000000  0.5645950000000  0.4917230000000 1.0
C      1  0.4302840000000  0.5395080000000  0.4724110000000 1.0
C      1  0.4704400000000  0.4906250000000  0.5633150000000 1.0
C      1  0.4204830000000  0.5183890000000  0.4907410000000 1.0
C      1  0.4519910000000  0.4726170000000  0.5495920000000 1.0
C      1  0.4472870000000  0.5240760000000  0.4565600000000 1.0
C      1  0.5086560000000  0.4360230000000  0.4835930000000 1.0
C      1  0.4684250000000  0.5015130000000  0.5152700000000 1.0
C      1  0.4233280000000  0.4930940000000  0.4764860000000 1.0
C      1  0.5425650000000  0.4630520000000  0.5508610000000 1.0
C      1  0.4694020000000  0.5520000000000  0.5370710000000 1.0
C      1  0.5713920000000  0.5310530000000  0.4999810000000 1.0
C      1  0.5269180000000  0.4844090000000  0.5594970000000 1.0
C      1  0.4859740000000  0.5064470000000  0.4897300000000 1.0
C      1  0.5360430000000  0.5556960000000  0.4779900000000 1.0
C      1  0.5110250000000  0.5596000000000  0.5235680000000 1.0
C      1  0.4922640000000  0.4913020000000  0.4326080000000 1.0
C      1  0.5502260000000  0.4735110000000  0.4567640000000 1.0
C      1  0.4333950000000  0.5341560000000  0.5124340000000 1.0
C      1  0.4750720000000  0.5253230000000  0.4646050000000 1.0
C      1  0.4971810000000  0.4773440000000  0.5593030000000 1.0
C      1  0.4552980000000  0.5252330000000  0.5302350000000 1.0
C      1  0.5552480000000  0.5323740000000  0.4748930000000 1.0
C      1  0.5337990000000  0.5146440000000  0.4358470000000 1.0
C      1  0.4798260000000  0.4678410000000  0.4455800000000 1.0
C      1  0.4446700000000  0.4586370000000  0.5048170000000 1.0
C      1  0.4926340000000  0.4895680000000  0.5301750000000 1.0
C      1  0.5591970000000  0.5164270000000  0.4494070000000 1.0
C      1  0.5123300000000  0.5542190000000  0.4619830000000 1.0
C      1  0.5136690000000  0.5330400000000  0.4418980000000 1.0
C      1  0.4385270000000  0.4976210000000  0.4519260000000 1.0
C      1  0.4894650000000  0.5183050000000  0.4403310000000 1.0
C      1  0.4903770000000  0.4488450000000  0.5555660000000 1.0
C      1  0.5333960000000  0.5142320000000  0.4870500000000 1.0
C      1  0.5056090000000  0.4339160000000  0.5371690000000 1.0
C      1  0.5315670000000  0.4885790000000  0.4783830000000 1.0
C      1  0.4851180000000  0.5536170000000  0.4707330000000 1.0
C      1  0.4838960000000  0.5651810000000  0.5170630000000 1.0
C      1  0.5267450000000  0.4645970000000  0.4441080000000 1.0
C      1  0.5199200000000  0.4888010000000  0.4309680000000 1.0
END
