TITL C-130738-6923-3 320.995005667636 125000 -1024.74534709802 0 0 145 (C1) n - 1
REM
REM in /rds/project/t2_vol4/rds-t2-cs072/BORA/CARBON/from-Arr/AIRSS/Generating-Clusters/GAP-ML-2020/Only-C1/SD-CG/HFTN-CG
REM
REM
REM
REM
REM
REM ./C.cell (11c1c37f851c82e70ff6c80c92926a4b)
REM AIRSS Version 0.9.1 bugfix July 2018 build 013d7b7c2542+ Fri, 06 Jul 2018 19:26:36 +0100
REM compiler GCC version 9.3.0
REM options -cpp -mtune=generic -march=x86-64 -g -O0
REM seed 2016191424 -186823896 -1239912449 -888686783 -1175053421 -964576725 1084390098 -40396618 -1760909570 575637931 30515312 1686311230 -2101464808 90874417 -1802040212 -169865559 495670236 1444868535 -1540885024 -1579607837 -592439662 -1497828891 -1353962642 590270181 1186298948 1103803384 -583571365 1830718363 1053268651 2125327203 104717423 -2004246394 -1518660411
REM
CELL 1.54180   50.00000   50.00000   50.00000   90.00000   90.00000   90.00000
LATT -1
SFAC C  
C      1  0.4189140000000  0.5021470000000  0.5415150000000 1.0
C      1  0.5167110000000  0.5260380000000  0.4081000000000 1.0
C      1  0.5876770000000  0.5384930000000  0.5134730000000 1.0
C      1  0.5042260000000  0.5987580000000  0.4716080000000 1.0
C      1  0.4621110000000  0.4358960000000  0.5735960000000 1.0
C      1  0.4660180000000  0.5791950000000  0.4423840000000 1.0
C      1  0.4748130000000  0.5517330000000  0.4337360000000 1.0
C      1  0.5028080000000  0.5000650000000  0.5946170000000 1.0
C      1  0.4965800000000  0.5208810000000  0.5169120000000 1.0
C      1  0.5308240000000  0.5310290000000  0.5897650000000 1.0
C      1  0.4801160000000  0.4203970000000  0.5572910000000 1.0
C      1  0.4140750000000  0.4913330000000  0.4484760000000 1.0
C      1  0.4224280000000  0.4340320000000  0.5138470000000 1.0
C      1  0.4916240000000  0.4694390000000  0.4443660000000 1.0
C      1  0.4119190000000  0.4788020000000  0.4957610000000 1.0
C      1  0.5652580000000  0.5566330000000  0.4587850000000 1.0
C      1  0.5356150000000  0.5258320000000  0.5004270000000 1.0
C      1  0.4656960000000  0.4619320000000  0.5845490000000 1.0
C      1  0.4561590000000  0.4127750000000  0.4847940000000 1.0
C      1  0.4308580000000  0.4979640000000  0.4252750000000 1.0
C      1  0.5052030000000  0.5098500000000  0.5436330000000 1.0
C      1  0.5089950000000  0.4015110000000  0.4717300000000 1.0
C      1  0.5771510000000  0.5142210000000  0.4436640000000 1.0
C      1  0.5137750000000  0.4589970000000  0.4855290000000 1.0
C      1  0.4645550000000  0.4121980000000  0.5331130000000 1.0
C      1  0.5420330000000  0.5950950000000  0.5319600000000 1.0
C      1  0.5573020000000  0.4546590000000  0.5509070000000 1.0
C      1  0.4282280000000  0.4443170000000  0.4651460000000 1.0
C      1  0.5036650000000  0.4271140000000  0.4301510000000 1.0
C      1  0.5751590000000  0.4265690000000  0.4535050000000 1.0
C      1  0.5306900000000  0.4675320000000  0.5498150000000 1.0
C      1  0.4662030000000  0.5663770000000  0.5449200000000 1.0
C      1  0.4697830000000  0.5500830000000  0.4785640000000 1.0
C      1  0.4918740000000  0.4105180000000  0.4505430000000 1.0
C      1  0.4937310000000  0.5877490000000  0.4481130000000 1.0
C      1  0.4560850000000  0.4980940000000  0.5078210000000 1.0
C      1  0.5778600000000  0.4740910000000  0.5541990000000 1.0
C      1  0.4842010000000  0.4696340000000  0.5327200000000 1.0
C      1  0.4677030000000  0.5244170000000  0.5203370000000 1.0
C      1  0.5540580000000  0.4883730000000  0.5944900000000 1.0
C      1  0.5318300000000  0.5870100000000  0.4853460000000 1.0
C      1  0.4869370000000  0.4499290000000  0.4240540000000 1.0
C      1  0.4379710000000  0.5256880000000  0.4234110000000 1.0
C      1  0.5509500000000  0.5491880000000  0.4330490000000 1.0
C      1  0.5236840000000  0.5493400000000  0.4239930000000 1.0
C      1  0.6153430000000  0.5062950000000  0.4875080000000 1.0
C      1  0.4705780000000  0.5069100000000  0.4576370000000 1.0
C      1  0.4712650000000  0.5452790000000  0.5874540000000 1.0
C      1  0.4987410000000  0.5310390000000  0.5870260000000 1.0
C      1  0.4551660000000  0.5768070000000  0.4727580000000 1.0
C      1  0.5137290000000  0.4544900000000  0.5703070000000 1.0
C      1  0.5108910000000  0.4630440000000  0.5238420000000 1.0
C      1  0.5370910000000  0.4058210000000  0.4707590000000 1.0
C      1  0.4366850000000  0.5019490000000  0.5675200000000 1.0
C      1  0.5185810000000  0.4817130000000  0.5033120000000 1.0
C      1  0.5715830000000  0.5630250000000  0.5092080000000 1.0
C      1  0.5039380000000  0.6044720000000  0.5183060000000 1.0
C      1  0.4157420000000  0.4701280000000  0.4684400000000 1.0
C      1  0.4688030000000  0.5365130000000  0.5469040000000 1.0
C      1  0.4745000000000  0.4928120000000  0.4828030000000 1.0
C      1  0.5282420000000  0.4175730000000  0.5411610000000 1.0
C      1  0.4269710000000  0.5723000000000  0.5336520000000 1.0
C      1  0.5312890000000  0.4335190000000  0.4295320000000 1.0
C      1  0.5315980000000  0.6050720000000  0.5081340000000 1.0
C      1  0.5889440000000  0.4415920000000  0.4704080000000 1.0
C      1  0.5838620000000  0.4439960000000  0.5007720000000 1.0
C      1  0.5523930000000  0.5380150000000  0.5717820000000 1.0
C      1  0.4648720000000  0.5329910000000  0.4140340000000 1.0
C      1  0.5870730000000  0.5189740000000  0.5363270000000 1.0
C      1  0.4866160000000  0.4893150000000  0.5529270000000 1.0
C      1  0.4610690000000  0.5346100000000  0.4561360000000 1.0
C      1  0.4506050000000  0.4792710000000  0.4131320000000 1.0
C      1  0.4235780000000  0.4596980000000  0.5632970000000 1.0
C      1  0.4108310000000  0.4733940000000  0.5421060000000 1.0
C      1  0.5976520000000  0.5280460000000  0.4880450000000 1.0
C      1  0.5464910000000  0.4084420000000  0.4983130000000 1.0
C      1  0.4325530000000  0.4283100000000  0.4883520000000 1.0
C      1  0.4014880000000  0.5128880000000  0.4598200000000 1.0
C      1  0.5589500000000  0.5728690000000  0.5330490000000 1.0
C      1  0.4926650000000  0.4755660000000  0.5798310000000 1.0
C      1  0.4541460000000  0.5453460000000  0.5037620000000 1.0
C      1  0.5541430000000  0.4298060000000  0.5382130000000 1.0
C      1  0.5001270000000  0.5032410000000  0.4936970000000 1.0
C      1  0.4871110000000  0.6038470000000  0.4958140000000 1.0
C      1  0.5664940000000  0.4896110000000  0.5087300000000 1.0
C      1  0.5880070000000  0.4870780000000  0.5300060000000 1.0
C      1  0.4101570000000  0.4600170000000  0.5170880000000 1.0
C      1  0.5175140000000  0.5199660000000  0.4759190000000 1.0
C      1  0.4627520000000  0.4725690000000  0.5171480000000 1.0
C      1  0.5016670000000  0.5474190000000  0.4717830000000 1.0
C      1  0.5402550000000  0.5092600000000  0.4076710000000 1.0
C      1  0.4877480000000  0.4649280000000  0.4731480000000 1.0
C      1  0.4611940000000  0.5920280000000  0.4968510000000 1.0
C      1  0.6022910000000  0.4659170000000  0.5113790000000 1.0
C      1  0.5377250000000  0.4817970000000  0.4060510000000 1.0
C      1  0.5721310000000  0.4935670000000  0.5740790000000 1.0
C      1  0.4413640000000  0.4762700000000  0.5782230000000 1.0
C      1  0.4647990000000  0.4164540000000  0.4576490000000 1.0
C      1  0.5382880000000  0.4620020000000  0.4244950000000 1.0
C      1  0.5162580000000  0.5443100000000  0.5146940000000 1.0
C      1  0.4615260000000  0.5705180000000  0.5731550000000 1.0
C      1  0.4389430000000  0.5727150000000  0.4500880000000 1.0
C      1  0.4936870000000  0.4985130000000  0.4401190000000 1.0
C      1  0.4123260000000  0.5485490000000  0.5239370000000 1.0
C      1  0.4980840000000  0.5361020000000  0.5576640000000 1.0
C      1  0.5146170000000  0.5886100000000  0.5403780000000 1.0
C      1  0.4136110000000  0.5342660000000  0.4699810000000 1.0
C      1  0.4340040000000  0.5693730000000  0.5624120000000 1.0
C      1  0.4524810000000  0.5737870000000  0.5187610000000 1.0
C      1  0.5747640000000  0.5201300000000  0.5626270000000 1.0
C      1  0.4233940000000  0.5337720000000  0.4992710000000 1.0
C      1  0.5725200000000  0.4874920000000  0.4493940000000 1.0
C      1  0.4323160000000  0.5433720000000  0.4485960000000 1.0
C      1  0.5586680000000  0.5719140000000  0.4824400000000 1.0
C      1  0.4473940000000  0.4359110000000  0.4447250000000 1.0
C      1  0.5872590000000  0.4715380000000  0.4683270000000 1.0
C      1  0.5395170000000  0.4648630000000  0.4756220000000 1.0
C      1  0.5645560000000  0.4674740000000  0.4908080000000 1.0
C      1  0.5449110000000  0.5569230000000  0.5528510000000 1.0
C      1  0.5663340000000  0.4235420000000  0.5130590000000 1.0
C      1  0.4256870000000  0.5033000000000  0.5086210000000 1.0
C      1  0.4378670000000  0.4226240000000  0.5354430000000 1.0
C      1  0.5241000000000  0.4041770000000  0.5155840000000 1.0
C      1  0.4104630000000  0.5307670000000  0.5460400000000 1.0
C      1  0.5323570000000  0.4982170000000  0.5438430000000 1.0
C      1  0.4735290000000  0.4056660000000  0.5064500000000 1.0
C      1  0.5006390000000  0.4002060000000  0.4992310000000 1.0
C      1  0.5216430000000  0.5041630000000  0.4518660000000 1.0
C      1  0.5493890000000  0.4186250000000  0.4476590000000 1.0
C      1  0.5429640000000  0.4793280000000  0.4503780000000 1.0
C      1  0.4879160000000  0.5127640000000  0.4116270000000 1.0
C      1  0.5026260000000  0.5592710000000  0.4420100000000 1.0
C      1  0.5412240000000  0.5006490000000  0.5150890000000 1.0
C      1  0.4708580000000  0.4929350000000  0.4005030000000 1.0
C      1  0.4582280000000  0.4526080000000  0.4234790000000 1.0
C      1  0.5124310000000  0.5628260000000  0.4931790000000 1.0
C      1  0.5828890000000  0.5346440000000  0.4633710000000 1.0
C      1  0.4502450000000  0.5277730000000  0.5713460000000 1.0
C      1  0.6081140000000  0.4806410000000  0.4873170000000 1.0
C      1  0.5601070000000  0.5243910000000  0.4233030000000 1.0
C      1  0.5166410000000  0.5575130000000  0.5436720000000 1.0
C      1  0.5310610000000  0.5030610000000  0.5972420000000 1.0
C      1  0.4251220000000  0.5432190000000  0.5677340000000 1.0
C      1  0.4364230000000  0.4351920000000  0.5604310000000 1.0
C      1  0.5079640000000  0.4279780000000  0.5593800000000 1.0
END
