TITL C-134885-4831-5 -696.034045375831 125000 -195.723433809343 0 0 30 (C1) n - 1
REM
REM in /rds/project/t2_vol4/rds-t2-cs072/BORA/CARBON/from-Arr/AIRSS/Generating-Clusters/GAP-ML-2020/Only-C1/SD-CG/HFTN-CG
REM
REM
REM
REM
REM
REM ./C.cell (11c1c37f851c82e70ff6c80c92926a4b)
REM AIRSS Version 0.9.1 bugfix July 2018 build 013d7b7c2542+ Fri, 06 Jul 2018 19:26:36 +0100
REM compiler GCC version 9.3.0
REM options -cpp -mtune=generic -march=x86-64 -g -O0
REM seed -1309921329 352594298 1897964014 732319735 705323981 346185435 1394819906 1575846961 625278902 1274313700 -729512993 -1655459315 349049223 -1198054621 -1049082496 -1525665070 1992214197 541937736 -145508547 158477787 -1116458333 -869251537 -2070734893 1514455125 -1304265951 1310702272 -1730413020 -558223775 -25294825 -506094202 -1550048672 -1031676718 -83017120
REM
CELL 1.54180   50.00000   50.00000   50.00000   90.00000   90.00000   90.00000
LATT -1
SFAC C  
C      1  0.5214870000000  0.4491470000000  0.5133710000000 1.0
C      1  0.4965090000000  0.4388440000000  0.5149020000000 1.0
C      1  0.4778390000000  0.5365020000000  0.4628980000000 1.0
C      1  0.5366200000000  0.4728020000000  0.4850050000000 1.0
C      1  0.4518790000000  0.4920760000000  0.4531080000000 1.0
C      1  0.4908160000000  0.4857870000000  0.5024880000000 1.0
C      1  0.4867430000000  0.5207100000000  0.5640450000000 1.0
C      1  0.5052660000000  0.5132600000000  0.5439610000000 1.0
C      1  0.4655840000000  0.5343080000000  0.5573950000000 1.0
C      1  0.5122110000000  0.4849010000000  0.4754980000000 1.0
C      1  0.5379360000000  0.5179240000000  0.4939700000000 1.0
C      1  0.5260360000000  0.4707000000000  0.5317350000000 1.0
C      1  0.5219270000000  0.5130310000000  0.4713840000000 1.0
C      1  0.5079400000000  0.5535370000000  0.4879950000000 1.0
C      1  0.5046680000000  0.4887430000000  0.5287230000000 1.0
C      1  0.4794240000000  0.4509000000000  0.4727490000000 1.0
C      1  0.4645970000000  0.5115210000000  0.4686270000000 1.0
C      1  0.5380140000000  0.4460550000000  0.4912590000000 1.0
C      1  0.4835960000000  0.4566730000000  0.5000890000000 1.0
C      1  0.5172940000000  0.5340870000000  0.5312300000000 1.0
C      1  0.4720910000000  0.5071400000000  0.4964890000000 1.0
C      1  0.4793230000000  0.5515160000000  0.4893530000000 1.0
C      1  0.4969900000000  0.4679910000000  0.4580100000000 1.0
C      1  0.4565870000000  0.5401370000000  0.5334760000000 1.0
C      1  0.5500340000000  0.4855020000000  0.5298300000000 1.0
C      1  0.4680610000000  0.5327340000000  0.5097020000000 1.0
C      1  0.4692500000000  0.4730330000000  0.4583010000000 1.0
C      1  0.5260230000000  0.5407140000000  0.5069470000000 1.0
C      1  0.5478140000000  0.4933450000000  0.5035430000000 1.0
C      1  0.5074420000000  0.5363790000000  0.4639190000000 1.0
END
