TITL C-134179-9914-5 -0.0426621157880571 125000 -494.442058092426 0 0 72 (C1) n - 1
REM
REM in /rds/project/t2_vol4/rds-t2-cs072/BORA/CARBON/from-Arr/AIRSS/Generating-Clusters/GAP-ML-2020/Only-C1/SD-CG/HFTN-CG
REM
REM
REM
REM
REM
REM ./C.cell (11c1c37f851c82e70ff6c80c92926a4b)
REM AIRSS Version 0.9.1 bugfix July 2018 build 013d7b7c2542+ Fri, 06 Jul 2018 19:26:36 +0100
REM compiler GCC version 9.3.0
REM options -cpp -mtune=generic -march=x86-64 -g -O0
REM seed -1565010090 -178878061 715355110 -324923092 1135047198 1989530789 1018470584 -1210584081 2125772155 -2117071678 -1787413653 974123308 -1187665049 -185153577 1133267824 -348527149 -1602668557 -807600970 2100431605 645062218 1972884498 188588534 1148153116 1271936104 -512406624 -1693244433 1471928945 -391015447 -1659079183 -738737140 -1857530105 629261110 112533859
REM
CELL 1.54180   50.00000   50.00000   50.00000   90.00000   90.00000   90.00000
LATT -1
SFAC C  
C      1  0.5750960000000  0.4744210000000  0.5223090000000 1.0
C      1  0.4294270000000  0.5363530000000  0.4882710000000 1.0
C      1  0.5002630000000  0.5653260000000  0.4838920000000 1.0
C      1  0.5115040000000  0.5453040000000  0.4428540000000 1.0
C      1  0.5772580000000  0.4928110000000  0.4765370000000 1.0
C      1  0.4580470000000  0.5267830000000  0.4278900000000 1.0
C      1  0.4487770000000  0.5396850000000  0.5115510000000 1.0
C      1  0.5830530000000  0.4953690000000  0.5046700000000 1.0
C      1  0.4266300000000  0.5285660000000  0.5286470000000 1.0
C      1  0.5768530000000  0.5247000000000  0.5037550000000 1.0
C      1  0.5610570000000  0.5105010000000  0.5566970000000 1.0
C      1  0.4750200000000  0.4313020000000  0.5592150000000 1.0
C      1  0.4366950000000  0.4651210000000  0.4584460000000 1.0
C      1  0.5012940000000  0.4380250000000  0.4759820000000 1.0
C      1  0.5174650000000  0.4362560000000  0.5002280000000 1.0
C      1  0.5438750000000  0.4563130000000  0.4657820000000 1.0
C      1  0.5213640000000  0.4847980000000  0.5003870000000 1.0
C      1  0.5031010000000  0.5120960000000  0.5286040000000 1.0
C      1  0.5517460000000  0.5351540000000  0.5457990000000 1.0
C      1  0.5208850000000  0.4689010000000  0.5624720000000 1.0
C      1  0.4436630000000  0.5252830000000  0.4656010000000 1.0
C      1  0.4949090000000  0.5208780000000  0.5011160000000 1.0
C      1  0.4341450000000  0.5083990000000  0.5471500000000 1.0
C      1  0.4284900000000  0.4860630000000  0.5311910000000 1.0
C      1  0.5289330000000  0.5623680000000  0.4817740000000 1.0
C      1  0.4421470000000  0.4777360000000  0.4861020000000 1.0
C      1  0.4589240000000  0.5012970000000  0.4775840000000 1.0
C      1  0.5275700000000  0.4978970000000  0.5244220000000 1.0
C      1  0.5611580000000  0.5428590000000  0.5195200000000 1.0
C      1  0.4623020000000  0.4592670000000  0.4990160000000 1.0
C      1  0.4888900000000  0.5556840000000  0.4584430000000 1.0
C      1  0.5011040000000  0.5286820000000  0.5548870000000 1.0
C      1  0.5403320000000  0.5598880000000  0.5081510000000 1.0
C      1  0.5048110000000  0.4772380000000  0.4452030000000 1.0
C      1  0.4760950000000  0.4587720000000  0.5520850000000 1.0
C      1  0.5638950000000  0.4523470000000  0.5105910000000 1.0
C      1  0.4664700000000  0.5141050000000  0.5037680000000 1.0
C      1  0.5233790000000  0.4513620000000  0.5395800000000 1.0
C      1  0.5051820000000  0.5019850000000  0.4833590000000 1.0
C      1  0.4142650000000  0.5182510000000  0.5048340000000 1.0
C      1  0.5357680000000  0.5486400000000  0.4571980000000 1.0
C      1  0.4725270000000  0.4425880000000  0.4780190000000 1.0
C      1  0.4861540000000  0.5044770000000  0.5690790000000 1.0
C      1  0.5169670000000  0.4240590000000  0.5287260000000 1.0
C      1  0.4745890000000  0.5397280000000  0.5488340000000 1.0
C      1  0.5683320000000  0.4852640000000  0.5489400000000 1.0
C      1  0.4941840000000  0.4772650000000  0.5671350000000 1.0
C      1  0.5222130000000  0.4972690000000  0.4333490000000 1.0
C      1  0.4933600000000  0.5652370000000  0.5126520000000 1.0
C      1  0.4526120000000  0.4425840000000  0.4581800000000 1.0
C      1  0.4222560000000  0.4893510000000  0.5049320000000 1.0
C      1  0.5187060000000  0.5621980000000  0.5267630000000 1.0
C      1  0.5478660000000  0.5009370000000  0.4434910000000 1.0
C      1  0.5459870000000  0.4447300000000  0.4920250000000 1.0
C      1  0.5072350000000  0.5211370000000  0.4289280000000 1.0
C      1  0.5547650000000  0.5272210000000  0.4546260000000 1.0
C      1  0.5165460000000  0.4541310000000  0.4574550000000 1.0
C      1  0.5248890000000  0.5460380000000  0.5499630000000 1.0
C      1  0.4841840000000  0.4959830000000  0.4593140000000 1.0
C      1  0.5728930000000  0.5218500000000  0.4752210000000 1.0
C      1  0.4360140000000  0.5107100000000  0.4400520000000 1.0
C      1  0.4311060000000  0.4845770000000  0.4388520000000 1.0
C      1  0.5400310000000  0.4882070000000  0.5529120000000 1.0
C      1  0.5084900000000  0.4630370000000  0.5156200000000 1.0
C      1  0.4810010000000  0.5135670000000  0.4348360000000 1.0
C      1  0.4783400000000  0.4680820000000  0.5225120000000 1.0
C      1  0.4747900000000  0.4975990000000  0.5271590000000 1.0
C      1  0.4626000000000  0.5114920000000  0.5526710000000 1.0
C      1  0.5594470000000  0.4797900000000  0.4591320000000 1.0
C      1  0.4641220000000  0.5426060000000  0.4512200000000 1.0
C      1  0.4963340000000  0.4258920000000  0.5456010000000 1.0
C      1  0.4696180000000  0.5556080000000  0.5262370000000 1.0
END
