TITL C-131266-6858-8 125.060898617327 125000 -809.00597061128 0 0 116 (C1) n - 1
REM
REM in /rds/project/t2_vol4/rds-t2-cs072/BORA/CARBON/from-Arr/AIRSS/Generating-Clusters/GAP-ML-2020/Only-C1/SD-CG/HFTN-CG
REM
REM
REM
REM
REM
REM ./C.cell (11c1c37f851c82e70ff6c80c92926a4b)
REM AIRSS Version 0.9.1 bugfix July 2018 build 013d7b7c2542+ Fri, 06 Jul 2018 19:26:36 +0100
REM compiler GCC version 9.3.0
REM options -cpp -mtune=generic -march=x86-64 -g -O0
REM seed 941615372 1901388050 -1736743015 -1931764782 -1536751388 -166779829 -2071154885 -1467825333 919017182 -124599440 421212827 -6035412 -600649299 1475034885 1340037630 2079335149 1748333516 181337502 -2048323298 2119652140 -614061159 -1500890906 1145949981 1857594875 1119522664 558871924 663898747 -1768244415 1749994637 1789252294 -1865337835 -43742988 -1107058356
REM
CELL 1.54180   50.00000   50.00000   50.00000   90.00000   90.00000   90.00000
LATT -1
SFAC C  
C      1  0.4094740000000  0.5275820000000  0.5054730000000 1.0
C      1  0.5082750000000  0.3955750000000  0.5122910000000 1.0
C      1  0.4758590000000  0.4434950000000  0.4459360000000 1.0
C      1  0.5230930000000  0.5861890000000  0.4728900000000 1.0
C      1  0.4308780000000  0.4856120000000  0.4556640000000 1.0
C      1  0.5017810000000  0.4319720000000  0.4454980000000 1.0
C      1  0.5467640000000  0.5220560000000  0.4162520000000 1.0
C      1  0.4721810000000  0.4083520000000  0.4871580000000 1.0
C      1  0.5369740000000  0.5590550000000  0.5383960000000 1.0
C      1  0.4909350000000  0.5155620000000  0.5905970000000 1.0
C      1  0.5322570000000  0.5342090000000  0.4589540000000 1.0
C      1  0.4672110000000  0.5714850000000  0.5536350000000 1.0
C      1  0.5817100000000  0.4782870000000  0.4686360000000 1.0
C      1  0.4266400000000  0.5327470000000  0.4408900000000 1.0
C      1  0.4695310000000  0.5006070000000  0.5265780000000 1.0
C      1  0.4718380000000  0.5388320000000  0.4177190000000 1.0
C      1  0.5770150000000  0.4956630000000  0.5364250000000 1.0
C      1  0.5476410000000  0.4951200000000  0.4770910000000 1.0
C      1  0.4553830000000  0.4998340000000  0.4692140000000 1.0
C      1  0.5601900000000  0.5000010000000  0.4065380000000 1.0
C      1  0.4467500000000  0.4332410000000  0.5320620000000 1.0
C      1  0.5311030000000  0.4617190000000  0.5137200000000 1.0
C      1  0.4067060000000  0.5073620000000  0.4837840000000 1.0
C      1  0.5167580000000  0.5847740000000  0.5008460000000 1.0
C      1  0.4350820000000  0.4367610000000  0.5059630000000 1.0
C      1  0.4799160000000  0.4026910000000  0.5134720000000 1.0
C      1  0.5785860000000  0.5518260000000  0.4859220000000 1.0
C      1  0.4502610000000  0.5286530000000  0.4836390000000 1.0
C      1  0.4130180000000  0.5225890000000  0.5337730000000 1.0
C      1  0.4664650000000  0.5318370000000  0.5847660000000 1.0
C      1  0.4765590000000  0.5567860000000  0.5760430000000 1.0
C      1  0.4699100000000  0.4636280000000  0.4278790000000 1.0
C      1  0.5501590000000  0.5774240000000  0.4680580000000 1.0
C      1  0.4156940000000  0.4960780000000  0.5450110000000 1.0
C      1  0.4623400000000  0.5234020000000  0.5095190000000 1.0
C      1  0.4766920000000  0.5115030000000  0.4215850000000 1.0
C      1  0.4333060000000  0.4965620000000  0.5676570000000 1.0
C      1  0.4431130000000  0.5637320000000  0.5397430000000 1.0
C      1  0.4747340000000  0.4675310000000  0.5789080000000 1.0
C      1  0.5146840000000  0.5300520000000  0.5823200000000 1.0
C      1  0.5661940000000  0.5201150000000  0.5239720000000 1.0
C      1  0.5669480000000  0.4815340000000  0.5597100000000 1.0
C      1  0.5363090000000  0.5645440000000  0.5094750000000 1.0
C      1  0.5794300000000  0.4548760000000  0.5574090000000 1.0
C      1  0.5009050000000  0.4175810000000  0.4727710000000 1.0
C      1  0.5928240000000  0.4530110000000  0.5316620000000 1.0
C      1  0.5579890000000  0.5300280000000  0.4440720000000 1.0
C      1  0.5591000000000  0.4843640000000  0.4296560000000 1.0
C      1  0.4795700000000  0.5059780000000  0.4517690000000 1.0
C      1  0.5233970000000  0.3954710000000  0.5349270000000 1.0
C      1  0.4475110000000  0.4707950000000  0.5697780000000 1.0
C      1  0.5448320000000  0.5119810000000  0.5020800000000 1.0
C      1  0.5608780000000  0.4566780000000  0.4646290000000 1.0
C      1  0.5691920000000  0.4387400000000  0.5369040000000 1.0
C      1  0.4145480000000  0.4796360000000  0.4825900000000 1.0
C      1  0.4519200000000  0.4280940000000  0.4850480000000 1.0
C      1  0.5098580000000  0.4705000000000  0.4761680000000 1.0
C      1  0.4913440000000  0.5156740000000  0.5381920000000 1.0
C      1  0.4508790000000  0.5446070000000  0.4370570000000 1.0
C      1  0.4885440000000  0.5332990000000  0.5150190000000 1.0
C      1  0.4680100000000  0.4498390000000  0.4747150000000 1.0
C      1  0.5157380000000  0.5041540000000  0.5409190000000 1.0
C      1  0.5009220000000  0.5752930000000  0.4604890000000 1.0
C      1  0.5056000000000  0.5557790000000  0.5756350000000 1.0
C      1  0.5170510000000  0.3989350000000  0.4860250000000 1.0
C      1  0.5002060000000  0.5435640000000  0.4199840000000 1.0
C      1  0.5268550000000  0.5048590000000  0.4580760000000 1.0
C      1  0.5148130000000  0.5699610000000  0.5531780000000 1.0
C      1  0.5430070000000  0.4391560000000  0.5289750000000 1.0
C      1  0.5473280000000  0.4587060000000  0.4388010000000 1.0
C      1  0.4437070000000  0.4699460000000  0.4345590000000 1.0
C      1  0.4425740000000  0.5679570000000  0.5109130000000 1.0
C      1  0.4723850000000  0.4206300000000  0.5343700000000 1.0
C      1  0.4365260000000  0.4547340000000  0.5481900000000 1.0
C      1  0.5081310000000  0.5489170000000  0.4476930000000 1.0
C      1  0.4910200000000  0.5815350000000  0.5407910000000 1.0
C      1  0.5000290000000  0.4542440000000  0.5155290000000 1.0
C      1  0.5415620000000  0.4885450000000  0.5707460000000 1.0
C      1  0.4297770000000  0.5399600000000  0.5504820000000 1.0
C      1  0.4662860000000  0.5804560000000  0.4987270000000 1.0
C      1  0.5036230000000  0.4929410000000  0.4964030000000 1.0
C      1  0.4973930000000  0.4533680000000  0.5669720000000 1.0
C      1  0.5672200000000  0.4998940000000  0.4537800000000 1.0
C      1  0.4627580000000  0.4769180000000  0.4872090000000 1.0
C      1  0.4286900000000  0.5465310000000  0.4963510000000 1.0
C      1  0.4908080000000  0.5875040000000  0.5132770000000 1.0
C      1  0.5338230000000  0.5165110000000  0.5632440000000 1.0
C      1  0.5019620000000  0.5251970000000  0.4908290000000 1.0
C      1  0.4937170000000  0.4877010000000  0.5894000000000 1.0
C      1  0.5299020000000  0.5359200000000  0.4904520000000 1.0
C      1  0.5392470000000  0.4663560000000  0.4835180000000 1.0
C      1  0.4183210000000  0.4703250000000  0.5321440000000 1.0
C      1  0.4885790000000  0.5318510000000  0.4636710000000 1.0
C      1  0.4416450000000  0.5238910000000  0.5722300000000 1.0
C      1  0.5973800000000  0.4864330000000  0.4916170000000 1.0
C      1  0.6050740000000  0.5128510000000  0.4943000000000 1.0
C      1  0.4742040000000  0.5738880000000  0.4724070000000 1.0
C      1  0.5608190000000  0.5727190000000  0.4942850000000 1.0
C      1  0.5877330000000  0.5317370000000  0.5039920000000 1.0
C      1  0.4634150000000  0.5479780000000  0.4639530000000 1.0
C      1  0.5230350000000  0.4218340000000  0.5400260000000 1.0
C      1  0.5167740000000  0.4733700000000  0.5782250000000 1.0
C      1  0.4967420000000  0.4367880000000  0.5419410000000 1.0
C      1  0.5259540000000  0.4928800000000  0.5166450000000 1.0
C      1  0.4184940000000  0.4610060000000  0.5045560000000 1.0
C      1  0.5176420000000  0.5224320000000  0.4106110000000 1.0
C      1  0.4803540000000  0.4796030000000  0.5103620000000 1.0
C      1  0.4998550000000  0.4993510000000  0.4102770000000 1.0
C      1  0.5501950000000  0.5350140000000  0.5455870000000 1.0
C      1  0.5197930000000  0.4500770000000  0.4318000000000 1.0
C      1  0.4153800000000  0.5126040000000  0.4550200000000 1.0
C      1  0.5939140000000  0.4790700000000  0.5199660000000 1.0
C      1  0.4997710000000  0.4736290000000  0.4250250000000 1.0
C      1  0.5024180000000  0.4871140000000  0.4523280000000 1.0
C      1  0.4956720000000  0.4456660000000  0.4869650000000 1.0
C      1  0.5665300000000  0.5539850000000  0.4584400000000 1.0
END
