TITL C-130738-6923-4 -34.0102313688896 125000 -725.785054498253 0 0 104 (C1) n - 1
REM
REM in /rds/project/t2_vol4/rds-t2-cs072/BORA/CARBON/from-Arr/AIRSS/Generating-Clusters/GAP-ML-2020/Only-C1/SD-CG/HFTN-CG
REM
REM
REM
REM
REM
REM ./C.cell (11c1c37f851c82e70ff6c80c92926a4b)
REM AIRSS Version 0.9.1 bugfix July 2018 build 013d7b7c2542+ Fri, 06 Jul 2018 19:26:36 +0100
REM compiler GCC version 9.3.0
REM options -cpp -mtune=generic -march=x86-64 -g -O0
REM seed 266367561 -749909268 1931240506 -846600900 -1205020362 780084200 948538311 775853622 1268979502 1310265592 -589812904 791759648 1632860529 -1550707541 -442647823 1324657196 -1133448861 1554451107 -1524932083 1941664177 -813119319 1951379944 896872645 1718367938 -1874714222 368174897 -1051925724 -1113775844 1647242018 -705733955 1625237594 -296626608 1306658371
REM
CELL 1.54180   50.00000   50.00000   50.00000   90.00000   90.00000   90.00000
LATT -1
SFAC C  
C      1  0.5044470000000  0.4216320000000  0.4546000000000 1.0
C      1  0.4068050000000  0.4725900000000  0.5033780000000 1.0
C      1  0.4951470000000  0.5011330000000  0.4525730000000 1.0
C      1  0.4888690000000  0.5002420000000  0.4221250000000 1.0
C      1  0.4876850000000  0.4403490000000  0.4401600000000 1.0
C      1  0.5175180000000  0.4796990000000  0.4997260000000 1.0
C      1  0.5240700000000  0.4249770000000  0.5271050000000 1.0
C      1  0.5076350000000  0.5518220000000  0.4567270000000 1.0
C      1  0.4222210000000  0.4941810000000  0.4917080000000 1.0
C      1  0.5383620000000  0.5941140000000  0.4570810000000 1.0
C      1  0.4288560000000  0.5178480000000  0.4509270000000 1.0
C      1  0.5327620000000  0.4552070000000  0.4960050000000 1.0
C      1  0.5285120000000  0.5762050000000  0.5525490000000 1.0
C      1  0.4446370000000  0.4711530000000  0.5643660000000 1.0
C      1  0.4480790000000  0.4961810000000  0.5121760000000 1.0
C      1  0.5477530000000  0.5476310000000  0.5045040000000 1.0
C      1  0.4888690000000  0.4941760000000  0.5334490000000 1.0
C      1  0.4515990000000  0.5178720000000  0.5622280000000 1.0
C      1  0.5662850000000  0.4474970000000  0.5153590000000 1.0
C      1  0.4488510000000  0.5206660000000  0.4311510000000 1.0
C      1  0.5167690000000  0.4857890000000  0.5324460000000 1.0
C      1  0.5667190000000  0.5127040000000  0.4504120000000 1.0
C      1  0.4415800000000  0.5563220000000  0.5215780000000 1.0
C      1  0.5776980000000  0.4726130000000  0.5212840000000 1.0
C      1  0.4750490000000  0.5727760000000  0.4817260000000 1.0
C      1  0.4728200000000  0.4127240000000  0.4866650000000 1.0
C      1  0.5388390000000  0.5168110000000  0.4365700000000 1.0
C      1  0.5817450000000  0.5275780000000  0.5278380000000 1.0
C      1  0.5018380000000  0.4661990000000  0.5772410000000 1.0
C      1  0.5631370000000  0.5532970000000  0.4795110000000 1.0
C      1  0.5078760000000  0.4551810000000  0.4245710000000 1.0
C      1  0.4698580000000  0.5406860000000  0.4325030000000 1.0
C      1  0.5175920000000  0.5381320000000  0.4318750000000 1.0
C      1  0.4859310000000  0.4879710000000  0.5864520000000 1.0
C      1  0.4249950000000  0.5329470000000  0.5215640000000 1.0
C      1  0.5840640000000  0.4861780000000  0.4974540000000 1.0
C      1  0.4984380000000  0.4273230000000  0.5412880000000 1.0
C      1  0.5782970000000  0.5140350000000  0.4988140000000 1.0
C      1  0.4529950000000  0.5623730000000  0.4961500000000 1.0
C      1  0.5640660000000  0.4859840000000  0.5431060000000 1.0
C      1  0.4369620000000  0.4306590000000  0.4971830000000 1.0
C      1  0.5472540000000  0.5165990000000  0.5057240000000 1.0
C      1  0.4602930000000  0.4954620000000  0.4276600000000 1.0
C      1  0.5006780000000  0.5718250000000  0.5605250000000 1.0
C      1  0.5111970000000  0.5287230000000  0.5747070000000 1.0
C      1  0.4905600000000  0.4476230000000  0.5605630000000 1.0
C      1  0.4774040000000  0.4916790000000  0.4726640000000 1.0
C      1  0.5016370000000  0.5097980000000  0.5902260000000 1.0
C      1  0.4700220000000  0.4240450000000  0.5352150000000 1.0
C      1  0.5016460000000  0.5784380000000  0.4927180000000 1.0
C      1  0.5539220000000  0.5751300000000  0.4660790000000 1.0
C      1  0.4239890000000  0.4827460000000  0.5483090000000 1.0
C      1  0.5124530000000  0.5337640000000  0.4809800000000 1.0
C      1  0.5095750000000  0.4820970000000  0.4144650000000 1.0
C      1  0.4638380000000  0.5438930000000  0.5638960000000 1.0
C      1  0.4614130000000  0.4476580000000  0.4510460000000 1.0
C      1  0.4877970000000  0.5171510000000  0.5174740000000 1.0
C      1  0.4999580000000  0.4138120000000  0.4816030000000 1.0
C      1  0.4577050000000  0.5380710000000  0.4798110000000 1.0
C      1  0.5259940000000  0.5064130000000  0.4871620000000 1.0
C      1  0.5757410000000  0.5284120000000  0.4723940000000 1.0
C      1  0.5003900000000  0.5929730000000  0.5194130000000 1.0
C      1  0.5762450000000  0.4705830000000  0.4753360000000 1.0
C      1  0.4936520000000  0.5290780000000  0.4200240000000 1.0
C      1  0.4537860000000  0.4776470000000  0.4520440000000 1.0
C      1  0.4909480000000  0.5491010000000  0.5729240000000 1.0
C      1  0.4927580000000  0.4710910000000  0.4868710000000 1.0
C      1  0.4629630000000  0.4515880000000  0.5497670000000 1.0
C      1  0.4116070000000  0.4659500000000  0.5298950000000 1.0
C      1  0.4680110000000  0.5120640000000  0.4950350000000 1.0
C      1  0.5280540000000  0.5298870000000  0.5489050000000 1.0
C      1  0.5228010000000  0.4704290000000  0.5589470000000 1.0
C      1  0.4289690000000  0.5359180000000  0.4734340000000 1.0
C      1  0.4773370000000  0.5529650000000  0.4585470000000 1.0
C      1  0.5241530000000  0.5957810000000  0.5337020000000 1.0
C      1  0.4170130000000  0.4468810000000  0.5081860000000 1.0
C      1  0.5641270000000  0.5503330000000  0.5290810000000 1.0
C      1  0.4587400000000  0.5633950000000  0.5432290000000 1.0
C      1  0.5514290000000  0.4720130000000  0.4314650000000 1.0
C      1  0.4172040000000  0.5234220000000  0.4959190000000 1.0
C      1  0.5620570000000  0.4470050000000  0.4865130000000 1.0
C      1  0.4672110000000  0.4746990000000  0.5244360000000 1.0
C      1  0.4595280000000  0.4928930000000  0.5750720000000 1.0
C      1  0.4536020000000  0.4297270000000  0.4721590000000 1.0
C      1  0.5171380000000  0.5792840000000  0.4673110000000 1.0
C      1  0.4826280000000  0.5807050000000  0.5406140000000 1.0
C      1  0.4297100000000  0.4917640000000  0.4624720000000 1.0
C      1  0.5395610000000  0.5055880000000  0.5338330000000 1.0
C      1  0.5220450000000  0.5041210000000  0.4592870000000 1.0
C      1  0.4344120000000  0.5103490000000  0.5389540000000 1.0
C      1  0.5811010000000  0.5089140000000  0.5477370000000 1.0
C      1  0.5357950000000  0.4924980000000  0.4196270000000 1.0
C      1  0.5487750000000  0.4388270000000  0.5360850000000 1.0
C      1  0.5694710000000  0.4838110000000  0.4508940000000 1.0
C      1  0.5063140000000  0.5372130000000  0.5256230000000 1.0
C      1  0.5323300000000  0.4271170000000  0.4514050000000 1.0
C      1  0.5173170000000  0.5513080000000  0.5028800000000 1.0
C      1  0.4581250000000  0.4159300000000  0.5114540000000 1.0
C      1  0.4758670000000  0.4588730000000  0.5034600000000 1.0
C      1  0.5452190000000  0.5537930000000  0.5495140000000 1.0
C      1  0.5458860000000  0.4240930000000  0.4762120000000 1.0
C      1  0.5347560000000  0.4483800000000  0.4325930000000 1.0
C      1  0.5487170000000  0.4612610000000  0.5542070000000 1.0
C      1  0.5229450000000  0.4239520000000  0.4975810000000 1.0
END
