TITL C-134884-4593-6 -12.5234719707313 125000 -73.0909980529186 0 0 12 (C1) n - 1
REM
REM in /rds/project/t2_vol4/rds-t2-cs072/BORA/CARBON/from-Arr/AIRSS/Generating-Clusters/GAP-ML-2020/Only-C1/SD-CG/HFTN-CG
REM
REM
REM
REM
REM
REM ./C.cell (11c1c37f851c82e70ff6c80c92926a4b)
REM AIRSS Version 0.9.1 bugfix July 2018 build 013d7b7c2542+ Fri, 06 Jul 2018 19:26:36 +0100
REM compiler GCC version 9.3.0
REM options -cpp -mtune=generic -march=x86-64 -g -O0
REM seed 1917948545 -1483426191 465283600 1348404670 423283235 379279816 -1149723184 -627209869 310696252 851891021 2006010805 1202441978 -573475385 -1726033093 -862833585 -1542718523 -567842164 -99626989 955320104 -349844711 -34224328 1415929722 -894477015 1583507919 613486225 -1503965389 2117161840 -1429476564 -847079320 540936647 1133303218 523657802 1780294235
REM
CELL 1.54180   50.00000   50.00000   50.00000   90.00000   90.00000   90.00000
LATT -1
SFAC C  
C      1  0.4668060000000  0.5335510000000  0.4948650000000 1.0
C      1  0.5416310000000  0.4829680000000  0.5052890000000 1.0
C      1  0.4951220000000  0.4820320000000  0.4883650000000 1.0
C      1  0.4803110000000  0.5221330000000  0.5224190000000 1.0
C      1  0.5163960000000  0.4932100000000  0.5001490000000 1.0
C      1  0.5675440000000  0.4782910000000  0.4980210000000 1.0
C      1  0.5034940000000  0.5195590000000  0.5067220000000 1.0
C      1  0.4540380000000  0.5216210000000  0.5159090000000 1.0
C      1  0.4732130000000  0.4755870000000  0.4783910000000 1.0
C      1  0.4495260000000  0.4856140000000  0.4824590000000 1.0
C      1  0.5593450000000  0.4688240000000  0.5206740000000 1.0
C      1  0.4925740000000  0.5366090000000  0.4867360000000 1.0
END
