TITL C-131284-6778-6 0.00700380801156711 125000 -37.1688395185088 0 0 6 (D(inf)h) n - 1
REM
REM in /rds/project/t2_vol4/rds-t2-cs072/BORA/CARBON/from-Arr/AIRSS/Generating-Clusters/GAP-ML-2020/Only-C1/SD-CG/HFTN-CG
REM
REM
REM
REM
REM
REM ./C.cell (11c1c37f851c82e70ff6c80c92926a4b)
REM AIRSS Version 0.9.1 bugfix July 2018 build 013d7b7c2542+ Fri, 06 Jul 2018 19:26:36 +0100
REM compiler GCC version 9.3.0
REM options -cpp -mtune=generic -march=x86-64 -g -O0
REM seed 1816424150 -1690819791 -537872041 -1497270455 -200424340 752711427 1427287394 -445580218 -1534227427 -597621780 1177132465 755147400 -1915673246 1073068525 1292549642 -1594785553 -1474100110 1265547182 1666825896 1176820476 -750199552 1846753242 -839576524 1055617607 1925552641 1417680842 2005111697 1898030905 -1079225500 -1682175117 1256003730 15985403 -1808433648
REM
CELL 1.54180   50.00000   50.00000   50.00000   90.00000   90.00000   90.00000
LATT -1
SFAC C  
C      1  0.4955710000000  0.4962700000000  0.5110070000000 1.0
C      1  0.4772630000000  0.4808510000000  0.5565050000000 1.0
C      1  0.5227370000000  0.5191500000000  0.4434950000000 1.0
C      1  0.5137040000000  0.5115420000000  0.4659420000000 1.0
C      1  0.4862960000000  0.4884580000000  0.5340580000000 1.0
C      1  0.5044290000000  0.5037300000000  0.4889930000000 1.0
END
