TITL C-136392-9307-6 -0.0786187795636523 125000 -523.236918645178 0 0 76 (C1) n - 1
REM
REM in /rds/project/t2_vol4/rds-t2-cs072/BORA/CARBON/from-Arr/AIRSS/Generating-Clusters/GAP-ML-2020/Only-C1/SD-CG/HFTN-CG
REM
REM
REM
REM
REM
REM ./C.cell (11c1c37f851c82e70ff6c80c92926a4b)
REM AIRSS Version 0.9.1 bugfix July 2018 build 013d7b7c2542+ Fri, 06 Jul 2018 19:26:36 +0100
REM compiler GCC version 9.3.0
REM options -cpp -mtune=generic -march=x86-64 -g -O0
REM seed 1490037251 1635767522 1980226063 -1572922408 -549503487 2002795099 281398433 1931162218 -1676715427 -488333482 1181212783 1420710213 -29580301 136260472 161589858 -445736364 -2055503613 -436118262 -1657978446 -167085603 -1569449835 -1966019608 -1149990093 -578743834 793181402 1148942319 -1076629172 -1172561066 434947485 549424548 1945784014 -1214568581 -1342889633
REM
CELL 1.54180   50.00000   50.00000   50.00000   90.00000   90.00000   90.00000
LATT -1
SFAC C  
C      1  0.5240880000000  0.4802920000000  0.4342260000000 1.0
C      1  0.5472140000000  0.4383920000000  0.4510040000000 1.0
C      1  0.5510520000000  0.4725660000000  0.5517320000000 1.0
C      1  0.5290610000000  0.5083620000000  0.4335860000000 1.0
C      1  0.5358700000000  0.5634570000000  0.5236400000000 1.0
C      1  0.5696740000000  0.5011650000000  0.4630960000000 1.0
C      1  0.5545430000000  0.5433570000000  0.4519300000000 1.0
C      1  0.4928720000000  0.4492810000000  0.5219760000000 1.0
C      1  0.4212540000000  0.4861850000000  0.4997460000000 1.0
C      1  0.4750090000000  0.4665440000000  0.5425130000000 1.0
C      1  0.4473330000000  0.4799490000000  0.4471820000000 1.0
C      1  0.5186630000000  0.5229250000000  0.5177790000000 1.0
C      1  0.4306830000000  0.4612180000000  0.4896340000000 1.0
C      1  0.4308270000000  0.4889360000000  0.5273750000000 1.0
C      1  0.4726780000000  0.4396730000000  0.5032050000000 1.0
C      1  0.4558290000000  0.5242380000000  0.4525680000000 1.0
C      1  0.5451030000000  0.4651620000000  0.4492390000000 1.0
C      1  0.4772570000000  0.4847160000000  0.4848040000000 1.0
C      1  0.4656130000000  0.5167350000000  0.5495310000000 1.0
C      1  0.4317770000000  0.5370990000000  0.5207060000000 1.0
C      1  0.5311360000000  0.5395730000000  0.5409440000000 1.0
C      1  0.4751890000000  0.4846860000000  0.4379780000000 1.0
C      1  0.5138890000000  0.4728120000000  0.5122350000000 1.0
C      1  0.5401590000000  0.5666550000000  0.4957970000000 1.0
C      1  0.4689390000000  0.5005450000000  0.5041930000000 1.0
C      1  0.4232290000000  0.5084290000000  0.4818620000000 1.0
C      1  0.4986860000000  0.4688120000000  0.4398400000000 1.0
C      1  0.4907900000000  0.5660360000000  0.5015070000000 1.0
C      1  0.5278120000000  0.4359250000000  0.4700830000000 1.0
C      1  0.4309050000000  0.5333920000000  0.4920220000000 1.0
C      1  0.5007610000000  0.5357840000000  0.4964890000000 1.0
C      1  0.5119750000000  0.4712050000000  0.5756710000000 1.0
C      1  0.4728460000000  0.5619640000000  0.5260000000000 1.0
C      1  0.5270010000000  0.4997950000000  0.4795550000000 1.0
C      1  0.5283060000000  0.4307770000000  0.5475070000000 1.0
C      1  0.4821970000000  0.5701150000000  0.4489560000000 1.0
C      1  0.5402630000000  0.5118640000000  0.5032850000000 1.0
C      1  0.5310190000000  0.4543930000000  0.5610580000000 1.0
C      1  0.4984200000000  0.5562300000000  0.4340600000000 1.0
C      1  0.5352190000000  0.4377100000000  0.4984020000000 1.0
C      1  0.5451090000000  0.4644380000000  0.5026800000000 1.0
C      1  0.4365590000000  0.5042080000000  0.4564630000000 1.0
C      1  0.5171050000000  0.5773730000000  0.5077990000000 1.0
C      1  0.4790740000000  0.5130250000000  0.4399000000000 1.0
C      1  0.4781440000000  0.4368260000000  0.4744740000000 1.0
C      1  0.5024420000000  0.4509150000000  0.4649960000000 1.0
C      1  0.5182000000000  0.4315250000000  0.5224900000000 1.0
C      1  0.4468190000000  0.4491440000000  0.5100640000000 1.0
C      1  0.5384370000000  0.5502740000000  0.4720750000000 1.0
C      1  0.4560270000000  0.4355140000000  0.4589810000000 1.0
C      1  0.4379800000000  0.5147400000000  0.5375960000000 1.0
C      1  0.4846590000000  0.4751320000000  0.5697290000000 1.0
C      1  0.5237130000000  0.4976320000000  0.5794350000000 1.0
C      1  0.4730980000000  0.5662260000000  0.4755120000000 1.0
C      1  0.5164730000000  0.5292620000000  0.4712240000000 1.0
C      1  0.5474430000000  0.4986830000000  0.5641560000000 1.0
C      1  0.4803420000000  0.4956400000000  0.5311220000000 1.0
C      1  0.5047980000000  0.4784520000000  0.4848670000000 1.0
C      1  0.4565420000000  0.5414180000000  0.4771510000000 1.0
C      1  0.5532410000000  0.5190370000000  0.5463300000000 1.0
C      1  0.5066400000000  0.5392600000000  0.5587270000000 1.0
C      1  0.5636730000000  0.5044990000000  0.5209950000000 1.0
C      1  0.5546120000000  0.5171390000000  0.4445940000000 1.0
C      1  0.4787810000000  0.5036890000000  0.5730760000000 1.0
C      1  0.5092470000000  0.4968880000000  0.5292570000000 1.0
C      1  0.4810180000000  0.5430160000000  0.5462980000000 1.0
C      1  0.5907400000000  0.5102050000000  0.4796180000000 1.0
C      1  0.5883640000000  0.5103670000000  0.5052350000000 1.0
C      1  0.5053380000000  0.5266980000000  0.4419700000000 1.0
C      1  0.5505460000000  0.4807560000000  0.4734350000000 1.0
C      1  0.4394590000000  0.4571130000000  0.4626050000000 1.0
C      1  0.4736780000000  0.5263200000000  0.4963900000000 1.0
C      1  0.5598710000000  0.4748870000000  0.5251730000000 1.0
C      1  0.4460390000000  0.5602460000000  0.5232720000000 1.0
C      1  0.5035440000000  0.5173400000000  0.5761090000000 1.0
C      1  0.4471060000000  0.4651620000000  0.5332880000000 1.0
END
