TITL C-131279-6721-1 -68.3020248810323 125000 -1033.65267338158 0 0 147 (C1) n - 1
REM
REM in /rds/project/t2_vol4/rds-t2-cs072/BORA/CARBON/from-Arr/AIRSS/Generating-Clusters/GAP-ML-2020/Only-C1/SD-CG/HFTN-CG
REM
REM
REM
REM
REM
REM ./C.cell (11c1c37f851c82e70ff6c80c92926a4b)
REM AIRSS Version 0.9.1 bugfix July 2018 build 013d7b7c2542+ Fri, 06 Jul 2018 19:26:36 +0100
REM compiler GCC version 9.3.0
REM options -cpp -mtune=generic -march=x86-64 -g -O0
REM seed 1842011428 -1024541803 975678871 1389371326 1896745672 1486750022 -812827037 -853277473 567232245 30786424 1907964400 -140516117 232789270 199971564 2087954832 443906940 330534980 -378400668 -1840430883 853713781 -2081285115 118865598 6748860 1397752679 -862739852 1637277161 134714462 -1503870136 -483890839 -1072571125 -1007077158 2047378785 116384730
REM
CELL 1.54180   50.00000   50.00000   50.00000   90.00000   90.00000   90.00000
LATT -1
SFAC C  
C      1  0.5136140000000  0.5047480000000  0.5561230000000 1.0
C      1  0.4666670000000  0.4853590000000  0.4041200000000 1.0
C      1  0.4614760000000  0.5921220000000  0.5436330000000 1.0
C      1  0.4914300000000  0.4419080000000  0.5264190000000 1.0
C      1  0.4068990000000  0.5441540000000  0.5316120000000 1.0
C      1  0.5137360000000  0.5512010000000  0.5382080000000 1.0
C      1  0.4188110000000  0.5712120000000  0.4978720000000 1.0
C      1  0.4077610000000  0.4955180000000  0.4699790000000 1.0
C      1  0.4921050000000  0.4853490000000  0.5926880000000 1.0
C      1  0.5119600000000  0.4904930000000  0.4095420000000 1.0
C      1  0.4818240000000  0.4680120000000  0.5154650000000 1.0
C      1  0.5771440000000  0.4521990000000  0.4495240000000 1.0
C      1  0.5402100000000  0.4827250000000  0.4112210000000 1.0
C      1  0.4025900000000  0.5046520000000  0.4981800000000 1.0
C      1  0.4881520000000  0.3991980000000  0.5313980000000 1.0
C      1  0.5865800000000  0.4790170000000  0.4587740000000 1.0
C      1  0.5464390000000  0.5062570000000  0.4693990000000 1.0
C      1  0.4725830000000  0.4452510000000  0.4807870000000 1.0
C      1  0.5777340000000  0.4342980000000  0.4716380000000 1.0
C      1  0.5127410000000  0.4259300000000  0.5061300000000 1.0
C      1  0.5036240000000  0.5264450000000  0.4681280000000 1.0
C      1  0.5716740000000  0.5048210000000  0.4500750000000 1.0
C      1  0.4727880000000  0.5330790000000  0.5370980000000 1.0
C      1  0.4377950000000  0.5770310000000  0.5474110000000 1.0
C      1  0.4943780000000  0.5847340000000  0.4585830000000 1.0
C      1  0.4477390000000  0.4757060000000  0.5487730000000 1.0
C      1  0.5216770000000  0.4752980000000  0.5519030000000 1.0
C      1  0.4275680000000  0.4400600000000  0.5122810000000 1.0
C      1  0.4617830000000  0.4198490000000  0.4941620000000 1.0
C      1  0.5846340000000  0.4700030000000  0.5585490000000 1.0
C      1  0.5423300000000  0.5679440000000  0.4380280000000 1.0
C      1  0.5392940000000  0.4234820000000  0.4501340000000 1.0
C      1  0.5757160000000  0.5348980000000  0.4565950000000 1.0
C      1  0.5298380000000  0.5734310000000  0.5524120000000 1.0
C      1  0.4169130000000  0.5374960000000  0.4615100000000 1.0
C      1  0.5613110000000  0.5469890000000  0.4355470000000 1.0
C      1  0.4637010000000  0.5430210000000  0.5126440000000 1.0
C      1  0.4254440000000  0.4713920000000  0.4695100000000 1.0
C      1  0.5312740000000  0.5256170000000  0.5431980000000 1.0
C      1  0.5430810000000  0.4207690000000  0.5037180000000 1.0
C      1  0.5073670000000  0.4784660000000  0.5067520000000 1.0
C      1  0.4427000000000  0.4331350000000  0.5358580000000 1.0
C      1  0.5517780000000  0.4855080000000  0.5110190000000 1.0
C      1  0.4470290000000  0.5121970000000  0.5841690000000 1.0
C      1  0.5919340000000  0.4463930000000  0.4920100000000 1.0
C      1  0.4769220000000  0.5684480000000  0.5026530000000 1.0
C      1  0.5589160000000  0.5739230000000  0.4851300000000 1.0
C      1  0.5180460000000  0.5926700000000  0.4730720000000 1.0
C      1  0.5138500000000  0.5334010000000  0.4933600000000 1.0
C      1  0.4965530000000  0.4600170000000  0.5528540000000 1.0
C      1  0.4177170000000  0.5364480000000  0.5567440000000 1.0
C      1  0.4569360000000  0.5590580000000  0.4578550000000 1.0
C      1  0.4251760000000  0.5102930000000  0.5641780000000 1.0
C      1  0.4246770000000  0.4409490000000  0.4646390000000 1.0
C      1  0.4987090000000  0.3991230000000  0.5040940000000 1.0
C      1  0.4585870000000  0.4606560000000  0.5810990000000 1.0
C      1  0.4633080000000  0.4885910000000  0.5911970000000 1.0
C      1  0.5546670000000  0.4414900000000  0.4344550000000 1.0
C      1  0.4830450000000  0.5058250000000  0.4669580000000 1.0
C      1  0.4726210000000  0.5758350000000  0.4742910000000 1.0
C      1  0.4892670000000  0.5086440000000  0.5374760000000 1.0
C      1  0.5544000000000  0.5362380000000  0.5609960000000 1.0
C      1  0.5527190000000  0.4208830000000  0.4761480000000 1.0
C      1  0.5032040000000  0.5167670000000  0.4012480000000 1.0
C      1  0.5853280000000  0.4409210000000  0.5187640000000 1.0
C      1  0.4316240000000  0.4546130000000  0.4198450000000 1.0
C      1  0.5625350000000  0.4543210000000  0.5668630000000 1.0
C      1  0.4930150000000  0.5705230000000  0.4327480000000 1.0
C      1  0.5696210000000  0.5461050000000  0.4864920000000 1.0
C      1  0.5501290000000  0.5289020000000  0.4155100000000 1.0
C      1  0.5041580000000  0.4069370000000  0.5554370000000 1.0
C      1  0.4883680000000  0.4556120000000  0.5805170000000 1.0
C      1  0.5278840000000  0.4205920000000  0.5626740000000 1.0
C      1  0.4387660000000  0.4373410000000  0.4403460000000 1.0
C      1  0.5438720000000  0.5275370000000  0.4916540000000 1.0
C      1  0.4503460000000  0.4821520000000  0.4473430000000 1.0
C      1  0.4401320000000  0.4818470000000  0.4184980000000 1.0
C      1  0.6040800000000  0.5129730000000  0.5483100000000 1.0
C      1  0.4758270000000  0.4819810000000  0.5401850000000 1.0
C      1  0.5526390000000  0.4312760000000  0.5524530000000 1.0
C      1  0.5483270000000  0.5863820000000  0.5084340000000 1.0
C      1  0.5389000000000  0.5121770000000  0.5172040000000 1.0
C      1  0.5118720000000  0.5371040000000  0.5880760000000 1.0
C      1  0.5034800000000  0.6027380000000  0.5226010000000 1.0
C      1  0.5618500000000  0.4264340000000  0.5254000000000 1.0
C      1  0.4616050000000  0.4710600000000  0.4946230000000 1.0
C      1  0.4769810000000  0.4652150000000  0.4428310000000 1.0
C      1  0.5641510000000  0.5121240000000  0.5756380000000 1.0
C      1  0.4055980000000  0.5501730000000  0.4849320000000 1.0
C      1  0.5919570000000  0.4650310000000  0.5320420000000 1.0
C      1  0.4289480000000  0.5100920000000  0.4237380000000 1.0
C      1  0.5054030000000  0.5555210000000  0.5093700000000 1.0
C      1  0.5087530000000  0.5077550000000  0.5120400000000 1.0
C      1  0.5418090000000  0.4715370000000  0.5742930000000 1.0
C      1  0.4435040000000  0.4499600000000  0.5587640000000 1.0
C      1  0.5530350000000  0.5751640000000  0.5343690000000 1.0
C      1  0.4879100000000  0.4146320000000  0.4537470000000 1.0
C      1  0.5588090000000  0.5030330000000  0.4211610000000 1.0
C      1  0.4572280000000  0.5268320000000  0.4224810000000 1.0
C      1  0.5032510000000  0.4429250000000  0.4840510000000 1.0
C      1  0.5148720000000  0.4935380000000  0.4384230000000 1.0
C      1  0.5149060000000  0.5064280000000  0.5868780000000 1.0
C      1  0.5827410000000  0.5403300000000  0.5149550000000 1.0
C      1  0.5185540000000  0.5620650000000  0.4220410000000 1.0
C      1  0.5687910000000  0.5522750000000  0.5375720000000 1.0
C      1  0.5113740000000  0.4230730000000  0.4392570000000 1.0
C      1  0.4242220000000  0.4908590000000  0.5435780000000 1.0
C      1  0.4155980000000  0.4877250000000  0.5166620000000 1.0
C      1  0.5224980000000  0.5979530000000  0.5015120000000 1.0
C      1  0.3990910000000  0.5317040000000  0.5062770000000 1.0
C      1  0.5949150000000  0.4741400000000  0.4860780000000 1.0
C      1  0.4878970000000  0.5531280000000  0.5541010000000 1.0
C      1  0.5421590000000  0.5810700000000  0.4631190000000 1.0
C      1  0.4451840000000  0.5342530000000  0.4673560000000 1.0
C      1  0.4668450000000  0.5004840000000  0.4898340000000 1.0
C      1  0.4856900000000  0.5457310000000  0.5820800000000 1.0
C      1  0.5858890000000  0.4872170000000  0.5120760000000 1.0
C      1  0.4590680000000  0.5115970000000  0.4504370000000 1.0
C      1  0.5436260000000  0.4965570000000  0.5869220000000 1.0
C      1  0.4313240000000  0.4679410000000  0.5006110000000 1.0
C      1  0.4190300000000  0.5701340000000  0.5258660000000 1.0
C      1  0.5228500000000  0.5372840000000  0.4076100000000 1.0
C      1  0.4980220000000  0.4809420000000  0.4578160000000 1.0
C      1  0.5246670000000  0.5159070000000  0.4521490000000 1.0
C      1  0.4680170000000  0.4212940000000  0.5245220000000 1.0
C      1  0.5870720000000  0.4984300000000  0.5648990000000 1.0
C      1  0.4894860000000  0.4680060000000  0.4133550000000 1.0
C      1  0.4745220000000  0.5125990000000  0.4035290000000 1.0
C      1  0.5952730000000  0.5154140000000  0.5225040000000 1.0
C      1  0.4760610000000  0.5941900000000  0.5186050000000 1.0
C      1  0.5035430000000  0.4278360000000  0.5755280000000 1.0
C      1  0.5303970000000  0.4714440000000  0.5244790000000 1.0
C      1  0.4522210000000  0.5248670000000  0.4952010000000 1.0
C      1  0.4320820000000  0.4253700000000  0.4885450000000 1.0
C      1  0.5147240000000  0.4695160000000  0.4800250000000 1.0
C      1  0.4824190000000  0.4023980000000  0.4810140000000 1.0
C      1  0.4374430000000  0.5550310000000  0.5666060000000 1.0
C      1  0.5110900000000  0.4442270000000  0.4187440000000 1.0
C      1  0.4684910000000  0.4378510000000  0.4509800000000 1.0
C      1  0.5376150000000  0.4547360000000  0.4161240000000 1.0
C      1  0.4111760000000  0.5137630000000  0.4472030000000 1.0
C      1  0.5339730000000  0.5532710000000  0.5753590000000 1.0
C      1  0.4568450000000  0.5397110000000  0.5835480000000 1.0
C      1  0.4672940000000  0.5550040000000  0.4321680000000 1.0
C      1  0.5426560000000  0.4798270000000  0.4819970000000 1.0
C      1  0.4839680000000  0.5825830000000  0.5579290000000 1.0
C      1  0.5089790000000  0.5941470000000  0.5492690000000 1.0
END
