TITL C-134886-4565-5 -133.910300246231 125000 -169.215398291309 0 0 26 (C1) n - 1
REM
REM in /rds/project/t2_vol4/rds-t2-cs072/BORA/CARBON/from-Arr/AIRSS/Generating-Clusters/GAP-ML-2020/Only-C1/SD-CG/HFTN-CG
REM
REM
REM
REM
REM
REM ./C.cell (11c1c37f851c82e70ff6c80c92926a4b)
REM AIRSS Version 0.9.1 bugfix July 2018 build 013d7b7c2542+ Fri, 06 Jul 2018 19:26:36 +0100
REM compiler GCC version 9.3.0
REM options -cpp -mtune=generic -march=x86-64 -g -O0
REM seed 300126242 -524483482 748894791 290051178 -1681824 953112419 1532546162 -1210672627 1605205630 -759933335 -1249684273 -584732751 1292898087 767789469 767635825 -1951083861 -121894306 -2009830817 18594965 46200690 -904204248 -1621083813 2024728304 -83033572 1487767895 -1351675109 697850803 392602646 -1912360688 -1576802019 592538158 355719056 -841169264
REM
CELL 1.54180   50.00000   50.00000   50.00000   90.00000   90.00000   90.00000
LATT -1
SFAC C  
C      1  0.5009320000000  0.4881340000000  0.5078480000000 1.0
C      1  0.5462610000000  0.5221290000000  0.4908010000000 1.0
C      1  0.4520520000000  0.4871850000000  0.5379630000000 1.0
C      1  0.4823270000000  0.4962490000000  0.4677770000000 1.0
C      1  0.5068150000000  0.5533070000000  0.4800350000000 1.0
C      1  0.4874630000000  0.5110850000000  0.5154040000000 1.0
C      1  0.4605740000000  0.5189110000000  0.5053830000000 1.0
C      1  0.5320860000000  0.4461720000000  0.4812560000000 1.0
C      1  0.5092010000000  0.4534470000000  0.4721100000000 1.0
C      1  0.5219300000000  0.4770300000000  0.5249600000000 1.0
C      1  0.5293300000000  0.5415700000000  0.4838580000000 1.0
C      1  0.5545750000000  0.4990400000000  0.4974030000000 1.0
C      1  0.4969280000000  0.4776290000000  0.4813240000000 1.0
C      1  0.4899400000000  0.4847430000000  0.5587910000000 1.0
C      1  0.4962960000000  0.5179410000000  0.4294320000000 1.0
C      1  0.5139720000000  0.4721280000000  0.5506620000000 1.0
C      1  0.4843390000000  0.5190770000000  0.4542740000000 1.0
C      1  0.4901110000000  0.5194780000000  0.5427340000000 1.0
C      1  0.4585620000000  0.5412580000000  0.4889990000000 1.0
C      1  0.4632360000000  0.4745660000000  0.5582250000000 1.0
C      1  0.5544230000000  0.4491930000000  0.4954920000000 1.0
C      1  0.4898740000000  0.5132740000000  0.5679970000000 1.0
C      1  0.5064170000000  0.5181220000000  0.4062460000000 1.0
C      1  0.4425420000000  0.5016140000000  0.5188630000000 1.0
C      1  0.4819030000000  0.5423050000000  0.4736730000000 1.0
C      1  0.5479130000000  0.4744140000000  0.5084910000000 1.0
END
