TITL C-136403-9141-3 0.124876142716701 125000 -509.058445538733 0 0 73 (C1) n - 1
REM
REM in /rds/project/t2_vol4/rds-t2-cs072/BORA/CARBON/from-Arr/AIRSS/Generating-Clusters/GAP-ML-2020/Only-C1/SD-CG/HFTN-CG
REM
REM
REM
REM
REM
REM ./C.cell (11c1c37f851c82e70ff6c80c92926a4b)
REM AIRSS Version 0.9.1 bugfix July 2018 build 013d7b7c2542+ Fri, 06 Jul 2018 19:26:36 +0100
REM compiler GCC version 9.3.0
REM options -cpp -mtune=generic -march=x86-64 -g -O0
REM seed -1677344206 892736015 -1634458301 -558853083 83350946 1699076912 361335714 -697067950 1611221489 463408614 1379814349 1781576280 1316881511 483292934 115065179 1529269279 305293860 -1857408683 484405001 924632416 1826792022 2068382462 1421417351 2075747176 1240136013 1335517929 2001436749 -740457943 162042167 -1798027547 155985317 809846306 -1550928512
REM
CELL 1.54180   50.00000   50.00000   50.00000   90.00000   90.00000   90.00000
LATT -1
SFAC C  
C      1  0.4701970000000  0.4539900000000  0.4498520000000 1.0
C      1  0.5600610000000  0.4813440000000  0.5365600000000 1.0
C      1  0.5166010000000  0.5599640000000  0.5291620000000 1.0
C      1  0.5520870000000  0.5492520000000  0.4983900000000 1.0
C      1  0.5619220000000  0.4417040000000  0.5043610000000 1.0
C      1  0.4742620000000  0.5600610000000  0.4606530000000 1.0
C      1  0.4471380000000  0.4699830000000  0.5376940000000 1.0
C      1  0.4933650000000  0.5813580000000  0.4901810000000 1.0
C      1  0.5397850000000  0.5405470000000  0.5249190000000 1.0
C      1  0.5003100000000  0.4869850000000  0.5765460000000 1.0
C      1  0.4516190000000  0.5268920000000  0.5486510000000 1.0
C      1  0.5358090000000  0.4518250000000  0.4634150000000 1.0
C      1  0.4869420000000  0.5124010000000  0.5762720000000 1.0
C      1  0.5174070000000  0.4261560000000  0.5039310000000 1.0
C      1  0.4951290000000  0.5520640000000  0.5466170000000 1.0
C      1  0.5390650000000  0.5379340000000  0.4536620000000 1.0
C      1  0.5087550000000  0.4273140000000  0.5336720000000 1.0
C      1  0.5524900000000  0.5287980000000  0.5484230000000 1.0
C      1  0.4398240000000  0.4632280000000  0.4828230000000 1.0
C      1  0.4447510000000  0.4920130000000  0.4407690000000 1.0
C      1  0.5258810000000  0.4914060000000  0.4306420000000 1.0
C      1  0.4672530000000  0.5489240000000  0.5381420000000 1.0
C      1  0.5706240000000  0.5082290000000  0.5379400000000 1.0
C      1  0.4800280000000  0.4658740000000  0.4256460000000 1.0
C      1  0.5043690000000  0.5331660000000  0.5662240000000 1.0
C      1  0.5807640000000  0.5136730000000  0.5135700000000 1.0
C      1  0.5214850000000  0.4942930000000  0.4922710000000 1.0
C      1  0.4682660000000  0.5677990000000  0.4894490000000 1.0
C      1  0.4316540000000  0.5207580000000  0.4792290000000 1.0
C      1  0.5722310000000  0.4800220000000  0.4885070000000 1.0
C      1  0.4453260000000  0.4666970000000  0.4555350000000 1.0
C      1  0.5002540000000  0.5730320000000  0.4622940000000 1.0
C      1  0.4706310000000  0.5366610000000  0.4465060000000 1.0
C      1  0.4355020000000  0.5165020000000  0.5278230000000 1.0
C      1  0.5439390000000  0.4230030000000  0.5131880000000 1.0
C      1  0.5059100000000  0.4712820000000  0.5275410000000 1.0
C      1  0.4642100000000  0.4513480000000  0.5240470000000 1.0
C      1  0.4955560000000  0.5072230000000  0.4863510000000 1.0
C      1  0.4112920000000  0.5022920000000  0.4811050000000 1.0
C      1  0.4528710000000  0.5153230000000  0.4584690000000 1.0
C      1  0.4931090000000  0.5263530000000  0.4305500000000 1.0
C      1  0.4319340000000  0.4887860000000  0.5230910000000 1.0
C      1  0.5312340000000  0.5219390000000  0.5665580000000 1.0
C      1  0.4372510000000  0.5334900000000  0.5050320000000 1.0
C      1  0.4872000000000  0.4953920000000  0.5293110000000 1.0
C      1  0.4251130000000  0.4834290000000  0.4960780000000 1.0
C      1  0.5334580000000  0.4170040000000  0.5404660000000 1.0
C      1  0.4740260000000  0.4978890000000  0.4735440000000 1.0
C      1  0.4819520000000  0.4440520000000  0.4746540000000 1.0
C      1  0.4835860000000  0.4659100000000  0.5665790000000 1.0
C      1  0.5271030000000  0.5636700000000  0.4618840000000 1.0
C      1  0.5589690000000  0.4552260000000  0.4790400000000 1.0
C      1  0.4604080000000  0.5077570000000  0.5674450000000 1.0
C      1  0.4900130000000  0.4495400000000  0.5407810000000 1.0
C      1  0.4976770000000  0.5149680000000  0.5135940000000 1.0
C      1  0.5108680000000  0.4444720000000  0.4824880000000 1.0
C      1  0.5363800000000  0.4698870000000  0.4435160000000 1.0
C      1  0.4617100000000  0.4490210000000  0.4955300000000 1.0
C      1  0.4620540000000  0.4886730000000  0.4192740000000 1.0
C      1  0.5159610000000  0.4679370000000  0.5011440000000 1.0
C      1  0.5580650000000  0.5312340000000  0.4760390000000 1.0
C      1  0.5364130000000  0.5699580000000  0.4881610000000 1.0
C      1  0.5271600000000  0.5093620000000  0.5179780000000 1.0
C      1  0.5227280000000  0.5212450000000  0.4362660000000 1.0
C      1  0.5737550000000  0.5089920000000  0.4870370000000 1.0
C      1  0.4585610000000  0.4787430000000  0.5620980000000 1.0
C      1  0.4843960000000  0.5053670000000  0.4135380000000 1.0
C      1  0.5715770000000  0.4667360000000  0.5154010000000 1.0
C      1  0.5154850000000  0.5768380000000  0.5066190000000 1.0
C      1  0.5310780000000  0.4849660000000  0.5397310000000 1.0
C      1  0.4565300000000  0.5538580000000  0.5111200000000 1.0
C      1  0.5260180000000  0.4937080000000  0.5674900000000 1.0
C      1  0.5026650000000  0.4822780000000  0.4169270000000 1.0
END
