TITL C-136403-9141-11 17.4262285840129 125000 -361.430179823412 0 0 54 (C1) n - 1
REM
REM in /rds/project/t2_vol4/rds-t2-cs072/BORA/CARBON/from-Arr/AIRSS/Generating-Clusters/GAP-ML-2020/Only-C1/SD-CG/HFTN-CG
REM
REM
REM
REM
REM
REM ./C.cell (11c1c37f851c82e70ff6c80c92926a4b)
REM AIRSS Version 0.9.1 bugfix July 2018 build 013d7b7c2542+ Fri, 06 Jul 2018 19:26:36 +0100
REM compiler GCC version 9.3.0
REM options -cpp -mtune=generic -march=x86-64 -g -O0
REM seed 917882236 1097291194 -1079619470 -1509894258 760831703 -1938978926 2024419011 1657983392 -44602135 143571876 1831471496 492672706 617750076 573729717 835703314 -1022505521 -1808823511 1408808490 1547734093 446022523 1759631668 732976546 -2064166958 -1620708339 -715115038 535036560 1243915994 1920845335 -1330201090 -1992761954 2008772038 903921829 2027410403
REM
CELL 1.54180   50.00000   50.00000   50.00000   90.00000   90.00000   90.00000
LATT -1
SFAC C  
C      1  0.4363880000000  0.4963000000000  0.4903050000000 1.0
C      1  0.5598910000000  0.4887880000000  0.5205000000000 1.0
C      1  0.5300610000000  0.4499360000000  0.5375840000000 1.0
C      1  0.4933430000000  0.5421730000000  0.5729110000000 1.0
C      1  0.5085640000000  0.5043500000000  0.4989610000000 1.0
C      1  0.4959340000000  0.5040200000000  0.4248150000000 1.0
C      1  0.4890190000000  0.5255640000000  0.4425100000000 1.0
C      1  0.5218250000000  0.4896960000000  0.4296780000000 1.0
C      1  0.5270090000000  0.4516180000000  0.5091430000000 1.0
C      1  0.4783280000000  0.4632510000000  0.4958450000000 1.0
C      1  0.5057530000000  0.4764870000000  0.5080700000000 1.0
C      1  0.4937970000000  0.5494830000000  0.5259130000000 1.0
C      1  0.5553890000000  0.4693940000000  0.4698400000000 1.0
C      1  0.4897880000000  0.4323630000000  0.5247080000000 1.0
C      1  0.4220770000000  0.4824040000000  0.5082730000000 1.0
C      1  0.5337520000000  0.4979070000000  0.5526750000000 1.0
C      1  0.4974210000000  0.5607110000000  0.4984370000000 1.0
C      1  0.5046930000000  0.5033280000000  0.5476510000000 1.0
C      1  0.4581490000000  0.5127780000000  0.5544890000000 1.0
C      1  0.5069260000000  0.5559140000000  0.5527050000000 1.0
C      1  0.4896780000000  0.4360050000000  0.4979210000000 1.0
C      1  0.4479760000000  0.4957910000000  0.4650100000000 1.0
C      1  0.5466460000000  0.5000070000000  0.4365450000000 1.0
C      1  0.5122900000000  0.5353320000000  0.4559580000000 1.0
C      1  0.4656770000000  0.5227840000000  0.4614810000000 1.0
C      1  0.4554740000000  0.5240670000000  0.5277060000000 1.0
C      1  0.5386960000000  0.5382760000000  0.4948310000000 1.0
C      1  0.5293810000000  0.4536980000000  0.4646660000000 1.0
C      1  0.5376340000000  0.5355070000000  0.5242640000000 1.0
C      1  0.5518140000000  0.5125270000000  0.5343480000000 1.0
C      1  0.5179270000000  0.4382900000000  0.4862460000000 1.0
C      1  0.4405890000000  0.4913320000000  0.5557300000000 1.0
C      1  0.5643390000000  0.4809930000000  0.4467550000000 1.0
C      1  0.5445210000000  0.4735210000000  0.5420610000000 1.0
C      1  0.4663520000000  0.4779070000000  0.5197990000000 1.0
C      1  0.4570000000000  0.5472880000000  0.4724570000000 1.0
C      1  0.4846200000000  0.5173200000000  0.5654410000000 1.0
C      1  0.4370420000000  0.4774230000000  0.5320430000000 1.0
C      1  0.5340730000000  0.5164740000000  0.4558590000000 1.0
C      1  0.4647990000000  0.5495850000000  0.5219700000000 1.0
C      1  0.5080890000000  0.5214620000000  0.5240110000000 1.0
C      1  0.5140600000000  0.4654410000000  0.4437470000000 1.0
C      1  0.4853730000000  0.4706300000000  0.4455910000000 1.0
C      1  0.4929820000000  0.4772090000000  0.5355780000000 1.0
C      1  0.5329850000000  0.5553030000000  0.5445150000000 1.0
C      1  0.4729780000000  0.4791190000000  0.4708750000000 1.0
C      1  0.4683480000000  0.5582170000000  0.4942700000000 1.0
C      1  0.5012530000000  0.4490580000000  0.5428220000000 1.0
C      1  0.5161230000000  0.5495760000000  0.4811380000000 1.0
C      1  0.5367950000000  0.5104150000000  0.4844310000000 1.0
C      1  0.4615340000000  0.5041450000000  0.5071400000000 1.0
C      1  0.4820630000000  0.5061240000000  0.4856920000000 1.0
C      1  0.5554390000000  0.4886280000000  0.4922960000000 1.0
C      1  0.4773410000000  0.4840840000000  0.4217890000000 1.0
END
