TITL C-136410-426-7 3.50333653533121 125000 -863.99193273362 0 0 122 (C1) n - 1
REM
REM in /rds/project/t2_vol4/rds-t2-cs072/BORA/CARBON/from-Arr/AIRSS/Generating-Clusters/GAP-ML-2020/Only-C1/SD-CG/HFTN-CG
REM
REM
REM
REM
REM
REM ./C.cell (11c1c37f851c82e70ff6c80c92926a4b)
REM AIRSS Version 0.9.1 bugfix July 2018 build 013d7b7c2542+ Fri, 06 Jul 2018 19:26:36 +0100
REM compiler GCC version 9.3.0
REM options -cpp -mtune=generic -march=x86-64 -g -O0
REM seed 233802013 -113268992 -1850787848 863551546 2138146861 992891883 2101982007 926888187 -1239228504 -171207842 294198270 -972868027 2046218303 -450183167 1066396933 1209786932 1736294551 290906147 -207641356 465323825 -2079904519 -302675115 -725514462 -304914432 -1271234846 566703592 -1411614147 1931395655 -1366607896 -1094436830 550420645 -130604612 -577630629
REM
CELL 1.54180   50.00000   50.00000   50.00000   90.00000   90.00000   90.00000
LATT -1
SFAC C  
C      1  0.4546130000000  0.5100440000000  0.4734090000000 1.0
C      1  0.5933960000000  0.4960110000000  0.5041610000000 1.0
C      1  0.5348040000000  0.5140770000000  0.5806710000000 1.0
C      1  0.4314360000000  0.4688490000000  0.4267300000000 1.0
C      1  0.4480280000000  0.5130980000000  0.5782390000000 1.0
C      1  0.4454770000000  0.5669430000000  0.5290580000000 1.0
C      1  0.5783780000000  0.5030520000000  0.5519760000000 1.0
C      1  0.5713780000000  0.5663900000000  0.5139620000000 1.0
C      1  0.4838340000000  0.5008890000000  0.5061350000000 1.0
C      1  0.4926180000000  0.5087360000000  0.4220510000000 1.0
C      1  0.5884110000000  0.4682220000000  0.5059480000000 1.0
C      1  0.5468620000000  0.4109580000000  0.4932120000000 1.0
C      1  0.5764420000000  0.4501350000000  0.4855820000000 1.0
C      1  0.5641270000000  0.5182830000000  0.5718970000000 1.0
C      1  0.4996420000000  0.5343720000000  0.4559220000000 1.0
C      1  0.4522270000000  0.4532370000000  0.4164270000000 1.0
C      1  0.4618780000000  0.4246980000000  0.5381810000000 1.0
C      1  0.5723230000000  0.5435430000000  0.5659160000000 1.0
C      1  0.5010940000000  0.4179030000000  0.4754050000000 1.0
C      1  0.4695040000000  0.5931160000000  0.4850750000000 1.0
C      1  0.5008690000000  0.5274220000000  0.5078190000000 1.0
C      1  0.4458370000000  0.5761720000000  0.4821590000000 1.0
C      1  0.4444620000000  0.4818360000000  0.5276220000000 1.0
C      1  0.4386160000000  0.4973360000000  0.4217250000000 1.0
C      1  0.5173640000000  0.5880270000000  0.4797680000000 1.0
C      1  0.4852870000000  0.4631580000000  0.5335710000000 1.0
C      1  0.5307180000000  0.5627980000000  0.5720770000000 1.0
C      1  0.5076010000000  0.4409360000000  0.4547230000000 1.0
C      1  0.4539810000000  0.4239380000000  0.4557020000000 1.0
C      1  0.4608980000000  0.4053630000000  0.4995030000000 1.0
C      1  0.4108760000000  0.4804880000000  0.4932210000000 1.0
C      1  0.5245910000000  0.4659600000000  0.5046040000000 1.0
C      1  0.4028670000000  0.5255690000000  0.5190660000000 1.0
C      1  0.5695130000000  0.4765230000000  0.5513350000000 1.0
C      1  0.5718010000000  0.5246400000000  0.4368340000000 1.0
C      1  0.4061840000000  0.4812260000000  0.4657030000000 1.0
C      1  0.4668840000000  0.4691390000000  0.5756310000000 1.0
C      1  0.5214560000000  0.5211220000000  0.4680390000000 1.0
C      1  0.4116870000000  0.5323960000000  0.4726700000000 1.0
C      1  0.4958880000000  0.4717370000000  0.5824750000000 1.0
C      1  0.5404620000000  0.5103130000000  0.5158780000000 1.0
C      1  0.5351780000000  0.4828960000000  0.5230830000000 1.0
C      1  0.5453780000000  0.5623280000000  0.4438480000000 1.0
C      1  0.4672370000000  0.4977950000000  0.4134490000000 1.0
C      1  0.5391700000000  0.4929450000000  0.4309830000000 1.0
C      1  0.4909270000000  0.5824240000000  0.4698570000000 1.0
C      1  0.5176590000000  0.4909990000000  0.5699660000000 1.0
C      1  0.5299860000000  0.5425990000000  0.4265790000000 1.0
C      1  0.5420020000000  0.5785070000000  0.4685920000000 1.0
C      1  0.5275760000000  0.5863690000000  0.5313440000000 1.0
C      1  0.5232270000000  0.5390150000000  0.5832330000000 1.0
C      1  0.4909660000000  0.5590990000000  0.5459600000000 1.0
C      1  0.4248880000000  0.5163640000000  0.4363390000000 1.0
C      1  0.5924840000000  0.5098540000000  0.4789740000000 1.0
C      1  0.5464610000000  0.5197390000000  0.4249110000000 1.0
C      1  0.5547030000000  0.5766190000000  0.5345650000000 1.0
C      1  0.4707680000000  0.5494500000000  0.5644180000000 1.0
C      1  0.4744310000000  0.5230560000000  0.5733340000000 1.0
C      1  0.4970620000000  0.4555990000000  0.5079160000000 1.0
C      1  0.4383000000000  0.4710050000000  0.5003800000000 1.0
C      1  0.5877900000000  0.5415110000000  0.5144070000000 1.0
C      1  0.5314300000000  0.4698990000000  0.4780190000000 1.0
C      1  0.4793390000000  0.4093320000000  0.5205620000000 1.0
C      1  0.5937500000000  0.5368520000000  0.4866690000000 1.0
C      1  0.4527700000000  0.5579530000000  0.4609070000000 1.0
C      1  0.4986200000000  0.4438460000000  0.5748160000000 1.0
C      1  0.5656080000000  0.5725600000000  0.4856840000000 1.0
C      1  0.5827970000000  0.5566250000000  0.4705440000000 1.0
C      1  0.5339870000000  0.5283640000000  0.5367530000000 1.0
C      1  0.5557020000000  0.4582580000000  0.4641550000000 1.0
C      1  0.4194260000000  0.4920890000000  0.5364810000000 1.0
C      1  0.4469330000000  0.4857630000000  0.5795620000000 1.0
C      1  0.5301920000000  0.4143280000000  0.5158890000000 1.0
C      1  0.4104470000000  0.5445190000000  0.4983260000000 1.0
C      1  0.4928010000000  0.5079160000000  0.5544720000000 1.0
C      1  0.5272280000000  0.5231100000000  0.4936550000000 1.0
C      1  0.4320000000000  0.4387290000000  0.4663810000000 1.0
C      1  0.4930310000000  0.4383230000000  0.4300590000000 1.0
C      1  0.4297790000000  0.5316480000000  0.5647800000000 1.0
C      1  0.4720010000000  0.4110210000000  0.4738690000000 1.0
C      1  0.4746060000000  0.5677480000000  0.5220850000000 1.0
C      1  0.4745810000000  0.4458090000000  0.5553780000000 1.0
C      1  0.5451690000000  0.4258240000000  0.5377400000000 1.0
C      1  0.5376510000000  0.4356720000000  0.4545580000000 1.0
C      1  0.4728040000000  0.4707570000000  0.4064630000000 1.0
C      1  0.4377330000000  0.5340710000000  0.4570700000000 1.0
C      1  0.4297230000000  0.5660340000000  0.5045040000000 1.0
C      1  0.5700310000000  0.4265430000000  0.4990220000000 1.0
C      1  0.4756280000000  0.4900280000000  0.5325290000000 1.0
C      1  0.5024670000000  0.4228820000000  0.5062910000000 1.0
C      1  0.4197790000000  0.4605310000000  0.4515680000000 1.0
C      1  0.4823370000000  0.5539190000000  0.4683000000000 1.0
C      1  0.5811580000000  0.4584970000000  0.5321160000000 1.0
C      1  0.4649670000000  0.4330400000000  0.4315100000000 1.0
C      1  0.4974500000000  0.4625330000000  0.4160120000000 1.0
C      1  0.4575870000000  0.4815090000000  0.4764740000000 1.0
C      1  0.4446940000000  0.5542750000000  0.5548470000000 1.0
C      1  0.5605470000000  0.4817480000000  0.4469740000000 1.0
C      1  0.4831120000000  0.5928410000000  0.5094600000000 1.0
C      1  0.4338670000000  0.4424650000000  0.4950340000000 1.0
C      1  0.5894020000000  0.5145100000000  0.5269390000000 1.0
C      1  0.5715910000000  0.5510040000000  0.4457630000000 1.0
C      1  0.5019690000000  0.5346340000000  0.4278400000000 1.0
C      1  0.4027780000000  0.4971960000000  0.5129380000000 1.0
C      1  0.5793890000000  0.5030970000000  0.4535200000000 1.0
C      1  0.5379590000000  0.4728580000000  0.5532800000000 1.0
C      1  0.5563300000000  0.5644020000000  0.5607340000000 1.0
C      1  0.5131270000000  0.5761400000000  0.5537930000000 1.0
C      1  0.4140140000000  0.5194640000000  0.5457030000000 1.0
C      1  0.5065850000000  0.4717590000000  0.4626830000000 1.0
C      1  0.5104040000000  0.4850550000000  0.4322220000000 1.0
C      1  0.5050260000000  0.5311540000000  0.5376110000000 1.0
C      1  0.4052240000000  0.5083600000000  0.4569440000000 1.0
C      1  0.5122140000000  0.5929550000000  0.5078400000000 1.0
C      1  0.4793720000000  0.5450060000000  0.4983180000000 1.0
C      1  0.5210030000000  0.4299860000000  0.5797870000000 1.0
C      1  0.5320840000000  0.4127470000000  0.4693990000000 1.0
C      1  0.4437530000000  0.4237410000000  0.5140260000000 1.0
C      1  0.5700100000000  0.4329080000000  0.5273010000000 1.0
C      1  0.4628290000000  0.5201700000000  0.4976150000000 1.0
C      1  0.4852970000000  0.4761590000000  0.4848560000000 1.0
C      1  0.5354040000000  0.4420130000000  0.5591550000000 1.0
END
