TITL C-131285-6724-3 125.936291993966 125000 -818.616035265638 0 0 118 (C1) n - 1
REM
REM in /rds/project/t2_vol4/rds-t2-cs072/BORA/CARBON/from-Arr/AIRSS/Generating-Clusters/GAP-ML-2020/Only-C1/SD-CG/HFTN-CG
REM
REM
REM
REM
REM
REM ./C.cell (11c1c37f851c82e70ff6c80c92926a4b)
REM AIRSS Version 0.9.1 bugfix July 2018 build 013d7b7c2542+ Fri, 06 Jul 2018 19:26:36 +0100
REM compiler GCC version 9.3.0
REM options -cpp -mtune=generic -march=x86-64 -g -O0
REM seed -916736227 -49727227 -2014001254 -1565082141 1447595884 1060757862 -1183285975 -1243350048 166558730 -1056733017 1945614025 -873051268 1337443427 2003083343 -21828785 16362492 -1657075688 1983080441 -314962913 345855663 -2104788403 1593669555 975203345 -245988071 286082662 1705773009 917449749 -448303210 26497550 242970064 1350426518 -1507234160 -1701401323
REM
CELL 1.54180   50.00000   50.00000   50.00000   90.00000   90.00000   90.00000
LATT -1
SFAC C  
C      1  0.4731630000000  0.5078410000000  0.5805190000000 1.0
C      1  0.5471990000000  0.4284830000000  0.5024480000000 1.0
C      1  0.5596240000000  0.5514600000000  0.4542180000000 1.0
C      1  0.5247050000000  0.4870310000000  0.5875480000000 1.0
C      1  0.4075140000000  0.5002170000000  0.4868150000000 1.0
C      1  0.4538700000000  0.4896760000000  0.5634410000000 1.0
C      1  0.4677160000000  0.4914730000000  0.4179690000000 1.0
C      1  0.4155990000000  0.4767450000000  0.5010950000000 1.0
C      1  0.4546400000000  0.5140560000000  0.5205030000000 1.0
C      1  0.5308890000000  0.4277730000000  0.4582230000000 1.0
C      1  0.4493790000000  0.4534500000000  0.4431110000000 1.0
C      1  0.4265520000000  0.4899850000000  0.5480840000000 1.0
C      1  0.4529530000000  0.4384610000000  0.5541790000000 1.0
C      1  0.5286080000000  0.4867380000000  0.5282920000000 1.0
C      1  0.4538180000000  0.4581500000000  0.5153550000000 1.0
C      1  0.4119530000000  0.5198990000000  0.5070400000000 1.0
C      1  0.5142460000000  0.4963570000000  0.4238820000000 1.0
C      1  0.5222910000000  0.4566180000000  0.5357050000000 1.0
C      1  0.5554330000000  0.5315340000000  0.4324410000000 1.0
C      1  0.4495020000000  0.4521300000000  0.4732860000000 1.0
C      1  0.5424720000000  0.4589340000000  0.4248980000000 1.0
C      1  0.5301880000000  0.5541520000000  0.5729320000000 1.0
C      1  0.5121670000000  0.4484530000000  0.5653090000000 1.0
C      1  0.4486270000000  0.5802940000000  0.4546120000000 1.0
C      1  0.5484470000000  0.5318480000000  0.5710530000000 1.0
C      1  0.5644790000000  0.5324950000000  0.4736020000000 1.0
C      1  0.4710850000000  0.4975630000000  0.5392530000000 1.0
C      1  0.4349450000000  0.4275850000000  0.4811260000000 1.0
C      1  0.4878010000000  0.4853830000000  0.4994760000000 1.0
C      1  0.4191990000000  0.5109570000000  0.4616400000000 1.0
C      1  0.4811450000000  0.4423760000000  0.4774510000000 1.0
C      1  0.5613430000000  0.5221630000000  0.5195350000000 1.0
C      1  0.4455800000000  0.5530320000000  0.4494780000000 1.0
C      1  0.5617160000000  0.5024780000000  0.4316200000000 1.0
C      1  0.4928620000000  0.5168440000000  0.5341890000000 1.0
C      1  0.5196500000000  0.5253880000000  0.4941750000000 1.0
C      1  0.4756640000000  0.4194250000000  0.4586430000000 1.0
C      1  0.5387850000000  0.5419340000000  0.5125950000000 1.0
C      1  0.4712260000000  0.4367000000000  0.4355180000000 1.0
C      1  0.5456230000000  0.5059970000000  0.5828780000000 1.0
C      1  0.4617020000000  0.4985520000000  0.4933100000000 1.0
C      1  0.5687170000000  0.4367530000000  0.4846880000000 1.0
C      1  0.4182070000000  0.4691260000000  0.5304930000000 1.0
C      1  0.4950910000000  0.5377080000000  0.4837300000000 1.0
C      1  0.5659550000000  0.5200240000000  0.5499540000000 1.0
C      1  0.5206630000000  0.4421490000000  0.4338580000000 1.0
C      1  0.5456890000000  0.5722360000000  0.5060110000000 1.0
C      1  0.5661430000000  0.4946740000000  0.5649010000000 1.0
C      1  0.5141790000000  0.6003740000000  0.5253000000000 1.0
C      1  0.4261580000000  0.5112780000000  0.5299850000000 1.0
C      1  0.5836780000000  0.4594920000000  0.4915880000000 1.0
C      1  0.5353580000000  0.4620580000000  0.5779860000000 1.0
C      1  0.4317130000000  0.4231820000000  0.5096140000000 1.0
C      1  0.5237200000000  0.4695260000000  0.4746300000000 1.0
C      1  0.4884140000000  0.4630870000000  0.5768470000000 1.0
C      1  0.4795600000000  0.5848260000000  0.4977440000000 1.0
C      1  0.5779930000000  0.4718930000000  0.5182090000000 1.0
C      1  0.5369290000000  0.5690950000000  0.5505530000000 1.0
C      1  0.5088420000000  0.5035110000000  0.5146340000000 1.0
C      1  0.5135480000000  0.5166110000000  0.4456660000000 1.0
C      1  0.4683440000000  0.5884110000000  0.5268320000000 1.0
C      1  0.5279380000000  0.5373260000000  0.4294390000000 1.0
C      1  0.4979530000000  0.4238710000000  0.5610970000000 1.0
C      1  0.4963790000000  0.4293510000000  0.5008390000000 1.0
C      1  0.4994020000000  0.4516440000000  0.5205990000000 1.0
C      1  0.4873150000000  0.5766390000000  0.5661290000000 1.0
C      1  0.4518990000000  0.5447730000000  0.5146280000000 1.0
C      1  0.4542550000000  0.4079480000000  0.4745350000000 1.0
C      1  0.5086170000000  0.5954890000000  0.4977370000000 1.0
C      1  0.5520710000000  0.4918260000000  0.5124130000000 1.0
C      1  0.4545910000000  0.4053140000000  0.5039520000000 1.0
C      1  0.4951430000000  0.4887820000000  0.5858550000000 1.0
C      1  0.5328640000000  0.5837540000000  0.4835220000000 1.0
C      1  0.4901060000000  0.5942770000000  0.5429550000000 1.0
C      1  0.5603610000000  0.4671980000000  0.5631870000000 1.0
C      1  0.4615180000000  0.4612860000000  0.5689790000000 1.0
C      1  0.5589040000000  0.4354350000000  0.4585890000000 1.0
C      1  0.4895200000000  0.5669410000000  0.4327620000000 1.0
C      1  0.5009540000000  0.5550260000000  0.5796820000000 1.0
C      1  0.5391320000000  0.5877000000000  0.5302300000000 1.0
C      1  0.4802020000000  0.5531830000000  0.5029630000000 1.0
C      1  0.5349100000000  0.5140530000000  0.4721200000000 1.0
C      1  0.4944870000000  0.5453690000000  0.5298760000000 1.0
C      1  0.4703860000000  0.5423740000000  0.4362420000000 1.0
C      1  0.4772680000000  0.4131480000000  0.5179740000000 1.0
C      1  0.4561290000000  0.5170840000000  0.4241480000000 1.0
C      1  0.4750990000000  0.5880270000000  0.4457990000000 1.0
C      1  0.4784370000000  0.4707460000000  0.5231570000000 1.0
C      1  0.5402650000000  0.4868070000000  0.4201150000000 1.0
C      1  0.4632940000000  0.5591870000000  0.5636810000000 1.0
C      1  0.5375020000000  0.5712650000000  0.4575310000000 1.0
C      1  0.4281430000000  0.5410270000000  0.4966940000000 1.0
C      1  0.4448390000000  0.4774040000000  0.4295060000000 1.0
C      1  0.5679990000000  0.4542980000000  0.5396450000000 1.0
C      1  0.5178080000000  0.5629050000000  0.4368890000000 1.0
C      1  0.4352700000000  0.5344710000000  0.4689650000000 1.0
C      1  0.5217770000000  0.5504230000000  0.5337310000000 1.0
C      1  0.5977930000000  0.4921990000000  0.5180150000000 1.0
C      1  0.5773450000000  0.4820270000000  0.4475010000000 1.0
C      1  0.5965520000000  0.5031910000000  0.4925660000000 1.0
C      1  0.5902270000000  0.4815410000000  0.4735110000000 1.0
C      1  0.4324330000000  0.5027310000000  0.4372460000000 1.0
C      1  0.4632360000000  0.5147210000000  0.4704690000000 1.0
C      1  0.4866420000000  0.5270320000000  0.4583160000000 1.0
C      1  0.4434530000000  0.4729920000000  0.4925490000000 1.0
C      1  0.4945560000000  0.4498100000000  0.4253710000000 1.0
C      1  0.4750680000000  0.4208750000000  0.5468900000000 1.0
C      1  0.5465100000000  0.4396790000000  0.5283520000000 1.0
C      1  0.5236530000000  0.4225330000000  0.4870880000000 1.0
C      1  0.4929010000000  0.4786470000000  0.4186390000000 1.0
C      1  0.5415520000000  0.4880900000000  0.4833580000000 1.0
C      1  0.5656250000000  0.4561810000000  0.4407570000000 1.0
C      1  0.4964350000000  0.4695580000000  0.4760690000000 1.0
C      1  0.4531650000000  0.5652300000000  0.5373540000000 1.0
C      1  0.5801260000000  0.5260770000000  0.4958150000000 1.0
C      1  0.4766010000000  0.5369850000000  0.5796730000000 1.0
C      1  0.4661500000000  0.5933440000000  0.4724750000000 1.0
C      1  0.4339820000000  0.4435610000000  0.5311500000000 1.0
END
