TITL C-131280-6822-2 0.0295079453510966 125000 -164.516219670182 0 0 26 (C1) n - 1
REM
REM in /rds/project/t2_vol4/rds-t2-cs072/BORA/CARBON/from-Arr/AIRSS/Generating-Clusters/GAP-ML-2020/Only-C1/SD-CG/HFTN-CG
REM
REM
REM
REM
REM
REM ./C.cell (11c1c37f851c82e70ff6c80c92926a4b)
REM AIRSS Version 0.9.1 bugfix July 2018 build 013d7b7c2542+ Fri, 06 Jul 2018 19:26:36 +0100
REM compiler GCC version 9.3.0
REM options -cpp -mtune=generic -march=x86-64 -g -O0
REM seed -137573742 753242431 1177730993 1889296754 -993530553 1079947220 -898196040 362401060 821390612 -1554679162 50712624 43368559 770979504 -1698836065 -2094625317 -1774864527 325126131 1875850893 -961278615 -518594360 -138281615 267236444 1396637202 1833940037 -806241966 383411979 -1099359923 2047039114 1439108781 -2063814909 1442884352 -1025546028 494554232
REM
CELL 1.54180   50.00000   50.00000   50.00000   90.00000   90.00000   90.00000
LATT -1
SFAC C  
C      1  0.5362390000000  0.5006700000000  0.5290750000000 1.0
C      1  0.5662100000000  0.5094750000000  0.4768250000000 1.0
C      1  0.5156940000000  0.4891080000000  0.5110280000000 1.0
C      1  0.4963230000000  0.4896920000000  0.4505330000000 1.0
C      1  0.5233200000000  0.4842900000000  0.4636060000000 1.0
C      1  0.5680720000000  0.5059730000000  0.5029480000000 1.0
C      1  0.5170630000000  0.4705840000000  0.4880260000000 1.0
C      1  0.4895210000000  0.4852570000000  0.5241610000000 1.0
C      1  0.5445260000000  0.5002370000000  0.4662380000000 1.0
C      1  0.4442110000000  0.4887400000000  0.4891020000000 1.0
C      1  0.5128310000000  0.5186020000000  0.5011840000000 1.0
C      1  0.4767840000000  0.4690210000000  0.4633720000000 1.0
C      1  0.5233910000000  0.5275830000000  0.5274680000000 1.0
C      1  0.4495230000000  0.4747070000000  0.4678810000000 1.0
C      1  0.4764150000000  0.5298360000000  0.5448440000000 1.0
C      1  0.5646640000000  0.4972580000000  0.5268720000000 1.0
C      1  0.4890290000000  0.5139770000000  0.4426010000000 1.0
C      1  0.5036010000000  0.5428530000000  0.5398450000000 1.0
C      1  0.4632860000000  0.5519330000000  0.5315380000000 1.0
C      1  0.4914740000000  0.4566690000000  0.4836790000000 1.0
C      1  0.4870940000000  0.5291900000000  0.4983360000000 1.0
C      1  0.4785990000000  0.4597700000000  0.5202120000000 1.0
C      1  0.4788190000000  0.4404710000000  0.5036310000000 1.0
C      1  0.4851000000000  0.5532210000000  0.5144320000000 1.0
C      1  0.4456300000000  0.5033590000000  0.5100250000000 1.0
C      1  0.4725810000000  0.5075250000000  0.5225390000000 1.0
END
