TITL C-131270-6736-8 25.4774802113746 125000 -645.732864313168 0 0 93 (C1) n - 1
REM
REM in /rds/project/t2_vol4/rds-t2-cs072/BORA/CARBON/from-Arr/AIRSS/Generating-Clusters/GAP-ML-2020/Only-C1/SD-CG/HFTN-CG
REM
REM
REM
REM
REM
REM ./C.cell (11c1c37f851c82e70ff6c80c92926a4b)
REM AIRSS Version 0.9.1 bugfix July 2018 build 013d7b7c2542+ Fri, 06 Jul 2018 19:26:36 +0100
REM compiler GCC version 9.3.0
REM options -cpp -mtune=generic -march=x86-64 -g -O0
REM seed -1206904869 -498243148 -1597324462 -1786718994 -750802052 -276673875 522975758 -531316990 1159671103 -1308271224 -1528445984 -803954951 1471100806 -1781826284 -931054670 -1101638962 1234964585 1664448187 1809838959 -559139904 1305839693 -104143996 -2133040389 1428272900 -760916204 135294200 -697246116 918803403 -1780159472 1195683919 -739208218 -872306474 -363845031
REM
CELL 1.54180   50.00000   50.00000   50.00000   90.00000   90.00000   90.00000
LATT -1
SFAC C  
C      1  0.4596430000000  0.5524360000000  0.4523380000000 1.0
C      1  0.5470670000000  0.4704210000000  0.5460590000000 1.0
C      1  0.5140570000000  0.5814410000000  0.4798040000000 1.0
C      1  0.5827350000000  0.5242710000000  0.5106790000000 1.0
C      1  0.5304260000000  0.5709860000000  0.5284980000000 1.0
C      1  0.5560140000000  0.4953690000000  0.5332340000000 1.0
C      1  0.4907620000000  0.5900930000000  0.4684170000000 1.0
C      1  0.4349900000000  0.5136760000000  0.5488400000000 1.0
C      1  0.4394740000000  0.4574300000000  0.5573460000000 1.0
C      1  0.4540160000000  0.4945410000000  0.4427780000000 1.0
C      1  0.4573130000000  0.4750660000000  0.5722340000000 1.0
C      1  0.5159740000000  0.5087890000000  0.4641170000000 1.0
C      1  0.5294240000000  0.4436620000000  0.5697990000000 1.0
C      1  0.4332310000000  0.4571940000000  0.4855890000000 1.0
C      1  0.4634490000000  0.4734860000000  0.5149840000000 1.0
C      1  0.5135340000000  0.5328510000000  0.4814280000000 1.0
C      1  0.5310050000000  0.4719550000000  0.4277490000000 1.0
C      1  0.5524050000000  0.4544300000000  0.4950920000000 1.0
C      1  0.5661150000000  0.4862940000000  0.4638880000000 1.0
C      1  0.4819680000000  0.4410310000000  0.5517410000000 1.0
C      1  0.5275620000000  0.4937590000000  0.5169750000000 1.0
C      1  0.5295350000000  0.4759950000000  0.4940750000000 1.0
C      1  0.5012780000000  0.4706650000000  0.4883310000000 1.0
C      1  0.5684370000000  0.5768280000000  0.4987970000000 1.0
C      1  0.5038290000000  0.4622980000000  0.4282100000000 1.0
C      1  0.4255380000000  0.5440330000000  0.4886820000000 1.0
C      1  0.5575380000000  0.5656460000000  0.5219040000000 1.0
C      1  0.4433310000000  0.4835440000000  0.4923720000000 1.0
C      1  0.5130780000000  0.5185650000000  0.5083840000000 1.0
C      1  0.4754990000000  0.4935590000000  0.5286930000000 1.0
C      1  0.5734660000000  0.4765370000000  0.4913040000000 1.0
C      1  0.5043290000000  0.5131820000000  0.5687170000000 1.0
C      1  0.4261570000000  0.4467830000000  0.5124120000000 1.0
C      1  0.5113410000000  0.5802660000000  0.5091300000000 1.0
C      1  0.4544480000000  0.4352580000000  0.5475460000000 1.0
C      1  0.4845960000000  0.4554500000000  0.5061820000000 1.0
C      1  0.5194550000000  0.4311990000000  0.4645510000000 1.0
C      1  0.5198000000000  0.4276750000000  0.5142110000000 1.0
C      1  0.5761490000000  0.5112700000000  0.4518320000000 1.0
C      1  0.4856330000000  0.5135670000000  0.5132780000000 1.0
C      1  0.5245880000000  0.5578190000000  0.4637720000000 1.0
C      1  0.4721110000000  0.4355760000000  0.4611840000000 1.0
C      1  0.4226800000000  0.4657460000000  0.5357860000000 1.0
C      1  0.5525870000000  0.5534860000000  0.4580400000000 1.0
C      1  0.4609040000000  0.4139260000000  0.5055980000000 1.0
C      1  0.5014740000000  0.4471920000000  0.5298770000000 1.0
C      1  0.4458840000000  0.4497890000000  0.4602860000000 1.0
C      1  0.4684520000000  0.5447880000000  0.5539840000000 1.0
C      1  0.5079870000000  0.4841120000000  0.5658480000000 1.0
C      1  0.5975510000000  0.5228570000000  0.4641760000000 1.0
C      1  0.4886820000000  0.5620070000000  0.5450540000000 1.0
C      1  0.4631120000000  0.5703260000000  0.5037380000000 1.0
C      1  0.4416740000000  0.5542840000000  0.5130870000000 1.0
C      1  0.4086720000000  0.5226690000000  0.4943310000000 1.0
C      1  0.4794620000000  0.4266440000000  0.4890150000000 1.0
C      1  0.4437900000000  0.4265060000000  0.5225750000000 1.0
C      1  0.5492720000000  0.4662100000000  0.4494870000000 1.0
C      1  0.5443800000000  0.4441790000000  0.4669300000000 1.0
C      1  0.5176770000000  0.4746560000000  0.5390530000000 1.0
C      1  0.4853730000000  0.5759540000000  0.5203320000000 1.0
C      1  0.4442170000000  0.5398190000000  0.5388080000000 1.0
C      1  0.4798480000000  0.5368410000000  0.4356470000000 1.0
C      1  0.5489560000000  0.4429190000000  0.5493860000000 1.0
C      1  0.5462430000000  0.4353770000000  0.5185750000000 1.0
C      1  0.5517310000000  0.5223000000000  0.5470010000000 1.0
C      1  0.4417450000000  0.4706040000000  0.4407910000000 1.0
C      1  0.4917020000000  0.4913460000000  0.4725650000000 1.0
C      1  0.5254650000000  0.5305530000000  0.5585230000000 1.0
C      1  0.5765680000000  0.4963790000000  0.5119700000000 1.0
C      1  0.5167230000000  0.5566160000000  0.5492670000000 1.0
C      1  0.4945590000000  0.4905610000000  0.4184570000000 1.0
C      1  0.5091420000000  0.4214460000000  0.4888190000000 1.0
C      1  0.5118380000000  0.4605030000000  0.5827270000000 1.0
C      1  0.5669930000000  0.5392310000000  0.5301420000000 1.0
C      1  0.4765630000000  0.5219820000000  0.5695620000000 1.0
C      1  0.5218430000000  0.4987070000000  0.4183600000000 1.0
C      1  0.5905510000000  0.5376110000000  0.4861820000000 1.0
C      1  0.5080870000000  0.5446990000000  0.4388300000000 1.0
C      1  0.4836630000000  0.4620650000000  0.5720240000000 1.0
C      1  0.4851940000000  0.5421410000000  0.4806160000000 1.0
C      1  0.4201480000000  0.4939810000000  0.5331970000000 1.0
C      1  0.5267950000000  0.5218660000000  0.4351160000000 1.0
C      1  0.5380750000000  0.4915000000000  0.4715360000000 1.0
C      1  0.4742900000000  0.5091130000000  0.4271920000000 1.0
C      1  0.4697750000000  0.5209680000000  0.4903360000000 1.0
C      1  0.4543530000000  0.5034950000000  0.5685820000000 1.0
C      1  0.4728640000000  0.5692720000000  0.4739070000000 1.0
C      1  0.5543600000000  0.5299750000000  0.4430640000000 1.0
C      1  0.4196900000000  0.5006370000000  0.5054460000000 1.0
C      1  0.4623620000000  0.4983810000000  0.4735580000000 1.0
C      1  0.4970530000000  0.4409560000000  0.4469250000000 1.0
C      1  0.5729820000000  0.5599480000000  0.4781490000000 1.0
C      1  0.4347160000000  0.5479830000000  0.4623880000000 1.0
END
