TITL C-141430-3362-7 -754.108749394989 125000 -621.305828168726 0 0 86 (C1) n - 1
REM
REM in /rds/project/t2_vol4/rds-t2-cs072/BORA/CARBON/from-Arr/AIRSS/Generating-Clusters/GAP-ML-2020/Only-C1/SD-CG/HFTN-CG
REM
REM
REM
REM
REM
REM ./C.cell (11c1c37f851c82e70ff6c80c92926a4b)
REM AIRSS Version 0.9.1 bugfix July 2018 build 013d7b7c2542+ Fri, 06 Jul 2018 19:26:36 +0100
REM compiler GCC version 9.3.0
REM options -cpp -mtune=generic -march=x86-64 -g -O0
REM seed -1095713324 881066725 1669635931 -1749042537 8092113 2140675928 -315492080 -1830379698 1303109742 -2121993281 -554944394 1501607222 -394863339 1018798844 2076698518 590015014 1016812837 1400964815 199189213 -954711234 -113807922 -286517608 890828048 -793258353 -1582815852 -324964230 -878306126 1201825045 -1561702982 2087176795 -1000753525 -392631405 -1378712137
REM
CELL 1.54180   50.00000   50.00000   50.00000   90.00000   90.00000   90.00000
LATT -1
SFAC C  
C      1  0.4673580000000  0.5035940000000  0.4369280000000 1.0
C      1  0.4801280000000  0.4800890000000  0.4270300000000 1.0
C      1  0.4338160000000  0.4526560000000  0.5211790000000 1.0
C      1  0.4420590000000  0.4473820000000  0.4767660000000 1.0
C      1  0.5190930000000  0.4779390000000  0.5366720000000 1.0
C      1  0.5782880000000  0.4994300000000  0.5002170000000 1.0
C      1  0.4233760000000  0.5213980000000  0.5278900000000 1.0
C      1  0.5296740000000  0.4998490000000  0.5548870000000 1.0
C      1  0.4708110000000  0.4566420000000  0.4402820000000 1.0
C      1  0.5250560000000  0.4613450000000  0.4297940000000 1.0
C      1  0.5754610000000  0.5271630000000  0.5061840000000 1.0
C      1  0.5746350000000  0.4946110000000  0.4724950000000 1.0
C      1  0.5455260000000  0.4471190000000  0.5086470000000 1.0
C      1  0.5534680000000  0.5252890000000  0.4397310000000 1.0
C      1  0.5341280000000  0.4763590000000  0.5110360000000 1.0
C      1  0.4418070000000  0.5471330000000  0.4621330000000 1.0
C      1  0.5033370000000  0.4331270000000  0.5357750000000 1.0
C      1  0.4579980000000  0.5074390000000  0.5624820000000 1.0
C      1  0.4496650000000  0.4803740000000  0.5574640000000 1.0
C      1  0.5117320000000  0.4227390000000  0.4869870000000 1.0
C      1  0.4252230000000  0.4600680000000  0.4951700000000 1.0
C      1  0.4582190000000  0.5803000000000  0.5089530000000 1.0
C      1  0.4714500000000  0.4614940000000  0.5610960000000 1.0
C      1  0.5189350000000  0.5053530000000  0.4183120000000 1.0
C      1  0.4512280000000  0.4944290000000  0.4609080000000 1.0
C      1  0.5627770000000  0.5303700000000  0.5314630000000 1.0
C      1  0.4432210000000  0.5278630000000  0.5484660000000 1.0
C      1  0.5637260000000  0.4852500000000  0.5206850000000 1.0
C      1  0.4731920000000  0.5857080000000  0.4863420000000 1.0
C      1  0.5620320000000  0.4702220000000  0.4630180000000 1.0
C      1  0.4369560000000  0.5625030000000  0.5165090000000 1.0
C      1  0.5124760000000  0.5409550000000  0.5400580000000 1.0
C      1  0.5309410000000  0.4326440000000  0.4678230000000 1.0
C      1  0.4653850000000  0.5510440000000  0.4488810000000 1.0
C      1  0.5204510000000  0.4289930000000  0.5131100000000 1.0
C      1  0.5376720000000  0.4886030000000  0.5812280000000 1.0
C      1  0.5140910000000  0.5148220000000  0.4865270000000 1.0
C      1  0.4880780000000  0.4365590000000  0.4500370000000 1.0
C      1  0.4793840000000  0.5296390000000  0.4339780000000 1.0
C      1  0.5144740000000  0.5800840000000  0.5137330000000 1.0
C      1  0.5016500000000  0.5891830000000  0.4909970000000 1.0
C      1  0.4263640000000  0.5044230000000  0.4738360000000 1.0
C      1  0.5190980000000  0.4503160000000  0.5505260000000 1.0
C      1  0.4498730000000  0.4644840000000  0.4563430000000 1.0
C      1  0.4502390000000  0.5548930000000  0.5418140000000 1.0
C      1  0.5631790000000  0.4868040000000  0.5687070000000 1.0
C      1  0.4915520000000  0.4770530000000  0.5752500000000 1.0
C      1  0.4882110000000  0.5244070000000  0.4937080000000 1.0
C      1  0.4224650000000  0.5408270000000  0.5065900000000 1.0
C      1  0.5313050000000  0.5437040000000  0.4399160000000 1.0
C      1  0.4948130000000  0.4903910000000  0.5250860000000 1.0
C      1  0.5188390000000  0.4688870000000  0.5855270000000 1.0
C      1  0.4702030000000  0.5008630000000  0.4879950000000 1.0
C      1  0.4724140000000  0.5723780000000  0.5344360000000 1.0
C      1  0.4991810000000  0.5194990000000  0.5206250000000 1.0
C      1  0.4172250000000  0.4870290000000  0.4943580000000 1.0
C      1  0.4792210000000  0.5734900000000  0.4602900000000 1.0
C      1  0.5315160000000  0.5639800000000  0.4600110000000 1.0
C      1  0.5392770000000  0.5669920000000  0.5096740000000 1.0
C      1  0.5608440000000  0.4595460000000  0.5589740000000 1.0
C      1  0.5081050000000  0.5299220000000  0.4274000000000 1.0
C      1  0.5644720000000  0.4569890000000  0.5308030000000 1.0
C      1  0.4757420000000  0.4395070000000  0.5408780000000 1.0
C      1  0.5091780000000  0.5205450000000  0.5611790000000 1.0
C      1  0.4858210000000  0.5057630000000  0.5706440000000 1.0
C      1  0.5160210000000  0.4400760000000  0.4448730000000 1.0
C      1  0.4997370000000  0.5680660000000  0.5351440000000 1.0
C      1  0.4566970000000  0.4360270000000  0.5198100000000 1.0
C      1  0.5586840000000  0.5041740000000  0.5438980000000 1.0
C      1  0.5454080000000  0.5013680000000  0.4276900000000 1.0
C      1  0.5703870000000  0.5214590000000  0.4615140000000 1.0
C      1  0.4849210000000  0.4251700000000  0.4763380000000 1.0
C      1  0.5157460000000  0.4866730000000  0.4879840000000 1.0
C      1  0.5491950000000  0.5614140000000  0.4830310000000 1.0
C      1  0.5079270000000  0.5783790000000  0.4648120000000 1.0
C      1  0.5487430000000  0.4751210000000  0.4380140000000 1.0
C      1  0.4259480000000  0.5326340000000  0.4787390000000 1.0
C      1  0.5413900000000  0.5484420000000  0.5310380000000 1.0
C      1  0.5362980000000  0.4495860000000  0.5715960000000 1.0
C      1  0.4881300000000  0.4808650000000  0.4980390000000 1.0
C      1  0.5686140000000  0.5408150000000  0.4826670000000 1.0
C      1  0.4304250000000  0.4750410000000  0.5379840000000 1.0
C      1  0.4178230000000  0.4951170000000  0.5219730000000 1.0
C      1  0.4613580000000  0.4310590000000  0.4911030000000 1.0
C      1  0.5064400000000  0.4802670000000  0.4182410000000 1.0
C      1  0.5519930000000  0.4477920000000  0.4790710000000 1.0
END
