TITL C-147418-6738-3 -0.0371685872358712 125000 -619.373868727878 0 0 88 (C1) n - 1
REM
REM in /rds/project/t2_vol4/rds-t2-cs072/BORA/CARBON/from-Arr/AIRSS/Generating-Clusters/GAP-ML-2020/Only-C1/SD-CG/HFTN-CG
REM
REM
REM
REM
REM
REM ./C.cell (11c1c37f851c82e70ff6c80c92926a4b)
REM AIRSS Version 0.9.1 bugfix July 2018 build 013d7b7c2542+ Fri, 06 Jul 2018 19:26:36 +0100
REM compiler GCC version 9.3.0
REM options -cpp -mtune=generic -march=x86-64 -g -O0
REM seed -1566034933 -1565634778 612510121 2085973631 788586863 1469310810 -644147730 -2078995464 1295298075 -1640294326 688825801 -1853361230 -1056802427 -2035900402 -952678615 -897330380 133961032 825430750 2033914348 -312788227 1471734872 1112012622 2117213594 -1892341372 858759287 -191431451 -996824283 -308913992 -1750955439 1792272280 -1033419752 281504695 1916702198
REM
CELL 1.54180   50.00000   50.00000   50.00000   90.00000   90.00000   90.00000
LATT -1
SFAC C  
C      1  0.5402490000000  0.4881950000000  0.4627240000000 1.0
C      1  0.5557400000000  0.4330000000000  0.5211870000000 1.0
C      1  0.4382080000000  0.5542300000000  0.5476780000000 1.0
C      1  0.5331100000000  0.4625070000000  0.4178120000000 1.0
C      1  0.5740480000000  0.4562590000000  0.4859200000000 1.0
C      1  0.5326400000000  0.4895560000000  0.5095880000000 1.0
C      1  0.4398050000000  0.5026170000000  0.5520460000000 1.0
C      1  0.5269090000000  0.4614260000000  0.4642780000000 1.0
C      1  0.4393560000000  0.5715510000000  0.4991920000000 1.0
C      1  0.4583910000000  0.5141990000000  0.4465660000000 1.0
C      1  0.4799610000000  0.4145200000000  0.5086710000000 1.0
C      1  0.4467160000000  0.5291580000000  0.5604440000000 1.0
C      1  0.5344130000000  0.5491470000000  0.5251140000000 1.0
C      1  0.5167590000000  0.4685630000000  0.5120080000000 1.0
C      1  0.5092290000000  0.4619010000000  0.4368780000000 1.0
C      1  0.5401940000000  0.4386150000000  0.5441390000000 1.0
C      1  0.5125960000000  0.4306940000000  0.5441280000000 1.0
C      1  0.5381690000000  0.5108540000000  0.4196180000000 1.0
C      1  0.4691370000000  0.4589330000000  0.5533010000000 1.0
C      1  0.5068820000000  0.5853440000000  0.5117880000000 1.0
C      1  0.4523810000000  0.4495300000000  0.5310730000000 1.0
C      1  0.4698460000000  0.4955100000000  0.5040260000000 1.0
C      1  0.5690330000000  0.5355930000000  0.4826010000000 1.0
C      1  0.4914810000000  0.5500440000000  0.5645300000000 1.0
C      1  0.4874700000000  0.5893310000000  0.4901530000000 1.0
C      1  0.5044690000000  0.4631670000000  0.4876470000000 1.0
C      1  0.5433600000000  0.4242310000000  0.4957480000000 1.0
C      1  0.4315260000000  0.4842980000000  0.4776170000000 1.0
C      1  0.5093980000000  0.5121630000000  0.4209650000000 1.0
C      1  0.5046060000000  0.4134070000000  0.5234460000000 1.0
C      1  0.5575620000000  0.5323080000000  0.5296900000000 1.0
C      1  0.5743450000000  0.5247890000000  0.5075180000000 1.0
C      1  0.4527370000000  0.5213470000000  0.4946380000000 1.0
C      1  0.5150110000000  0.5579190000000  0.4723200000000 1.0
C      1  0.4884750000000  0.4869660000000  0.4844980000000 1.0
C      1  0.5479160000000  0.5311680000000  0.4386410000000 1.0
C      1  0.5504960000000  0.4435430000000  0.4750360000000 1.0
C      1  0.5254730000000  0.5467490000000  0.4461600000000 1.0
C      1  0.5258960000000  0.5656550000000  0.5024490000000 1.0
C      1  0.4298100000000  0.4618720000000  0.5222610000000 1.0
C      1  0.4781330000000  0.5741870000000  0.5565600000000 1.0
C      1  0.4954650000000  0.4886790000000  0.4269180000000 1.0
C      1  0.4433360000000  0.4611880000000  0.4655010000000 1.0
C      1  0.4240900000000  0.4819450000000  0.5057560000000 1.0
C      1  0.5776700000000  0.4779930000000  0.5273290000000 1.0
C      1  0.4674250000000  0.5752320000000  0.5065530000000 1.0
C      1  0.5045250000000  0.5091790000000  0.4787170000000 1.0
C      1  0.5162770000000  0.4701990000000  0.5667520000000 1.0
C      1  0.4731190000000  0.5290850000000  0.5717960000000 1.0
C      1  0.4919830000000  0.5776100000000  0.4660860000000 1.0
C      1  0.4760210000000  0.5421650000000  0.5011880000000 1.0
C      1  0.4433120000000  0.5663110000000  0.4719620000000 1.0
C      1  0.5692280000000  0.4950570000000  0.4598230000000 1.0
C      1  0.5191320000000  0.4114410000000  0.4970960000000 1.0
C      1  0.5748440000000  0.4526190000000  0.5144840000000 1.0
C      1  0.5253700000000  0.5167640000000  0.5592020000000 1.0
C      1  0.4935180000000  0.5361310000000  0.4776690000000 1.0
C      1  0.4936920000000  0.4129130000000  0.4825720000000 1.0
C      1  0.5682570000000  0.5242590000000  0.4576870000000 1.0
C      1  0.4295530000000  0.5262420000000  0.5121420000000 1.0
C      1  0.5426730000000  0.4639240000000  0.5577480000000 1.0
C      1  0.4608600000000  0.4849170000000  0.5629200000000 1.0
C      1  0.5455050000000  0.4843230000000  0.4122880000000 1.0
C      1  0.5830500000000  0.4970640000000  0.5065250000000 1.0
C      1  0.4808960000000  0.5024320000000  0.5744420000000 1.0
C      1  0.4832200000000  0.4464290000000  0.4421630000000 1.0
C      1  0.4552200000000  0.4390310000000  0.4797270000000 1.0
C      1  0.5086720000000  0.4969270000000  0.5711910000000 1.0
C      1  0.4604410000000  0.4645120000000  0.4423730000000 1.0
C      1  0.5612650000000  0.4843590000000  0.5498090000000 1.0
C      1  0.5018480000000  0.5359540000000  0.4330590000000 1.0
C      1  0.4588380000000  0.4330080000000  0.5079710000000 1.0
C      1  0.5513430000000  0.5119110000000  0.5497000000000 1.0
C      1  0.4765760000000  0.5375300000000  0.4488190000000 1.0
C      1  0.4851950000000  0.5029180000000  0.5255330000000 1.0
C      1  0.4290840000000  0.5530630000000  0.5202930000000 1.0
C      1  0.4783520000000  0.4287590000000  0.4643430000000 1.0
C      1  0.4885560000000  0.5302030000000  0.5254570000000 1.0
C      1  0.4845760000000  0.5824890000000  0.5302750000000 1.0
C      1  0.5309480000000  0.5039370000000  0.4856490000000 1.0
C      1  0.4423840000000  0.5100120000000  0.4693620000000 1.0
C      1  0.4251430000000  0.5023110000000  0.5267760000000 1.0
C      1  0.4967920000000  0.4510340000000  0.5574290000000 1.0
C      1  0.5824620000000  0.4829140000000  0.4809770000000 1.0
C      1  0.4505260000000  0.5758580000000  0.5599270000000 1.0
C      1  0.4680820000000  0.4906630000000  0.4337750000000 1.0
C      1  0.4661190000000  0.5642010000000  0.4568060000000 1.0
C      1  0.5126240000000  0.5392580000000  0.5447790000000 1.0
END
