TITL C-147425-6670-5 174.476166402146 125000 -964.644969941747 0 0 140 (C1) n - 1
REM
REM in /rds/project/t2_vol4/rds-t2-cs072/BORA/CARBON/from-Arr/AIRSS/Generating-Clusters/GAP-ML-2020/Only-C1/SD-CG/HFTN-CG
REM
REM
REM
REM
REM
REM ./C.cell (11c1c37f851c82e70ff6c80c92926a4b)
REM AIRSS Version 0.9.1 bugfix July 2018 build 013d7b7c2542+ Fri, 06 Jul 2018 19:26:36 +0100
REM compiler GCC version 9.3.0
REM options -cpp -mtune=generic -march=x86-64 -g -O0
REM seed -1543815741 766350694 -1732821104 -129021263 -1630004579 892055442 -717458082 -1355219475 -1462074472 -2105274290 -23703788 -310273120 1476413760 -1352155896 1148703840 1335987597 -105232355 758624440 1776876226 1506279587 1320924905 -2093565010 -1894803757 -1798378542 -76020612 1992106196 1234116114 1265101995 -24953642 254983921 -427851125 2113940632 -30077646
REM
CELL 1.54180   50.00000   50.00000   50.00000   90.00000   90.00000   90.00000
LATT -1
SFAC C  
C      1  0.4266170000000  0.5507310000000  0.5543430000000 1.0
C      1  0.4685410000000  0.5850440000000  0.4513230000000 1.0
C      1  0.5245310000000  0.5922250000000  0.5321920000000 1.0
C      1  0.4590960000000  0.4940870000000  0.4184590000000 1.0
C      1  0.5055460000000  0.5197590000000  0.5534970000000 1.0
C      1  0.5322660000000  0.5441960000000  0.4646820000000 1.0
C      1  0.5770270000000  0.5192520000000  0.4479250000000 1.0
C      1  0.4187240000000  0.5532020000000  0.5270580000000 1.0
C      1  0.4181740000000  0.5076070000000  0.5405510000000 1.0
C      1  0.5317060000000  0.5576680000000  0.5670450000000 1.0
C      1  0.4745070000000  0.5250170000000  0.5893540000000 1.0
C      1  0.5061370000000  0.4458590000000  0.5699950000000 1.0
C      1  0.4848960000000  0.4844230000000  0.5359960000000 1.0
C      1  0.5858940000000  0.5056000000000  0.5448030000000 1.0
C      1  0.5175070000000  0.4953950000000  0.5065040000000 1.0
C      1  0.5153190000000  0.4804390000000  0.5340390000000 1.0
C      1  0.5526210000000  0.4577470000000  0.5578210000000 1.0
C      1  0.4347710000000  0.5469880000000  0.4840760000000 1.0
C      1  0.3936380000000  0.4800110000000  0.5113550000000 1.0
C      1  0.5131250000000  0.4263610000000  0.4773850000000 1.0
C      1  0.4515140000000  0.4160270000000  0.4854430000000 1.0
C      1  0.4895690000000  0.5449390000000  0.4380710000000 1.0
C      1  0.4387110000000  0.5733860000000  0.5648740000000 1.0
C      1  0.4638340000000  0.4800400000000  0.5875430000000 1.0
C      1  0.4351780000000  0.5481730000000  0.4540910000000 1.0
C      1  0.4716520000000  0.5527830000000  0.5219750000000 1.0
C      1  0.5129150000000  0.4648830000000  0.5887990000000 1.0
C      1  0.4199390000000  0.4534270000000  0.5394150000000 1.0
C      1  0.4538490000000  0.5633210000000  0.4384470000000 1.0
C      1  0.4941200000000  0.4503950000000  0.4925200000000 1.0
C      1  0.5309980000000  0.4386860000000  0.4270680000000 1.0
C      1  0.5763020000000  0.4684530000000  0.4624040000000 1.0
C      1  0.5584940000000  0.5378830000000  0.4354300000000 1.0
C      1  0.5241800000000  0.5730690000000  0.4583740000000 1.0
C      1  0.5375690000000  0.4964900000000  0.4630550000000 1.0
C      1  0.4225490000000  0.4374590000000  0.5145260000000 1.0
C      1  0.4799850000000  0.4360200000000  0.5696070000000 1.0
C      1  0.5408410000000  0.4711570000000  0.5832280000000 1.0
C      1  0.5187920000000  0.4720990000000  0.4622500000000 1.0
C      1  0.4289500000000  0.5680650000000  0.5051310000000 1.0
C      1  0.5278440000000  0.4233230000000  0.5289350000000 1.0
C      1  0.5099090000000  0.4484170000000  0.4079540000000 1.0
C      1  0.4496340000000  0.5886700000000  0.5036450000000 1.0
C      1  0.4359940000000  0.4475420000000  0.5603410000000 1.0
C      1  0.4914770000000  0.5190950000000  0.4557720000000 1.0
C      1  0.4624940000000  0.5903370000000  0.4788270000000 1.0
C      1  0.4772510000000  0.4495760000000  0.5150010000000 1.0
C      1  0.5045730000000  0.5477180000000  0.5197580000000 1.0
C      1  0.5276890000000  0.5831310000000  0.4847460000000 1.0
C      1  0.5546290000000  0.4022590000000  0.4914560000000 1.0
C      1  0.4781250000000  0.5178960000000  0.4853820000000 1.0
C      1  0.5536100000000  0.4949930000000  0.4194480000000 1.0
C      1  0.4135670000000  0.5262000000000  0.5191840000000 1.0
C      1  0.4963930000000  0.4042390000000  0.4693680000000 1.0
C      1  0.5228930000000  0.5178170000000  0.5987270000000 1.0
C      1  0.5490090000000  0.4731610000000  0.4033550000000 1.0
C      1  0.5432600000000  0.4595680000000  0.4985180000000 1.0
C      1  0.5234670000000  0.4513280000000  0.5451870000000 1.0
C      1  0.5467080000000  0.5738500000000  0.5254260000000 1.0
C      1  0.5572010000000  0.4479810000000  0.4726610000000 1.0
C      1  0.4655670000000  0.5447950000000  0.4928480000000 1.0
C      1  0.5989460000000  0.5032780000000  0.4903400000000 1.0
C      1  0.5680330000000  0.4252780000000  0.4909770000000 1.0
C      1  0.5477100000000  0.5199770000000  0.5339950000000 1.0
C      1  0.5023850000000  0.4078690000000  0.5334600000000 1.0
C      1  0.5524920000000  0.5626730000000  0.4503490000000 1.0
C      1  0.5361830000000  0.5444610000000  0.5178750000000 1.0
C      1  0.4640440000000  0.5341710000000  0.5447720000000 1.0
C      1  0.4728270000000  0.4641120000000  0.4744950000000 1.0
C      1  0.4433230000000  0.4503030000000  0.4403990000000 1.0
C      1  0.5708160000000  0.4779980000000  0.5460130000000 1.0
C      1  0.5647530000000  0.4920930000000  0.4466790000000 1.0
C      1  0.5371410000000  0.5406970000000  0.5889360000000 1.0
C      1  0.5415730000000  0.5072950000000  0.4911850000000 1.0
C      1  0.5758490000000  0.5451900000000  0.4853660000000 1.0
C      1  0.4786430000000  0.5477080000000  0.5701770000000 1.0
C      1  0.5222450000000  0.5197820000000  0.4516860000000 1.0
C      1  0.5311500000000  0.4146770000000  0.4995990000000 1.0
C      1  0.4218610000000  0.4498700000000  0.4889190000000 1.0
C      1  0.5617130000000  0.5029770000000  0.5119810000000 1.0
C      1  0.5414980000000  0.4997270000000  0.5828460000000 1.0
C      1  0.5215500000000  0.4712170000000  0.3952730000000 1.0
C      1  0.4283140000000  0.4983460000000  0.4517280000000 1.0
C      1  0.4454380000000  0.4429060000000  0.4708500000000 1.0
C      1  0.4911880000000  0.4825810000000  0.5970110000000 1.0
C      1  0.5045240000000  0.5747420000000  0.5004650000000 1.0
C      1  0.5527300000000  0.5814110000000  0.4959830000000 1.0
C      1  0.4805100000000  0.4524090000000  0.4064940000000 1.0
C      1  0.5306440000000  0.4430200000000  0.4577260000000 1.0
C      1  0.5872070000000  0.4604120000000  0.5086590000000 1.0
C      1  0.5450320000000  0.5363300000000  0.4901330000000 1.0
C      1  0.5770980000000  0.4346160000000  0.5165000000000 1.0
C      1  0.4828980000000  0.5680460000000  0.4823680000000 1.0
C      1  0.4101130000000  0.4753850000000  0.4896550000000 1.0
C      1  0.5544440000000  0.4494630000000  0.4176400000000 1.0
C      1  0.5933070000000  0.4748990000000  0.4841950000000 1.0
C      1  0.5686280000000  0.5301790000000  0.5544240000000 1.0
C      1  0.5594180000000  0.5236920000000  0.5807720000000 1.0
C      1  0.5063890000000  0.5488520000000  0.5537770000000 1.0
C      1  0.5914170000000  0.5093610000000  0.5170160000000 1.0
C      1  0.5904880000000  0.5245420000000  0.4725350000000 1.0
C      1  0.4594940000000  0.4414720000000  0.4202080000000 1.0
C      1  0.4290310000000  0.4968830000000  0.4809780000000 1.0
C      1  0.4755250000000  0.4001570000000  0.4860010000000 1.0
C      1  0.4702790000000  0.5847360000000  0.5268440000000 1.0
C      1  0.4570770000000  0.4539200000000  0.5761180000000 1.0
C      1  0.4206140000000  0.5228170000000  0.4926240000000 1.0
C      1  0.4611120000000  0.4900760000000  0.4899750000000 1.0
C      1  0.5031410000000  0.4927270000000  0.3943780000000 1.0
C      1  0.4585170000000  0.5887690000000  0.5533240000000 1.0
C      1  0.4819910000000  0.4964370000000  0.4414290000000 1.0
C      1  0.4408740000000  0.4161330000000  0.5118660000000 1.0
C      1  0.4646920000000  0.5447340000000  0.4175920000000 1.0
C      1  0.4645830000000  0.5727570000000  0.5760870000000 1.0
C      1  0.5687070000000  0.5699120000000  0.4750150000000 1.0
C      1  0.4905980000000  0.4738740000000  0.4539010000000 1.0
C      1  0.4774240000000  0.4806490000000  0.3998410000000 1.0
C      1  0.5110850000000  0.5191190000000  0.4033530000000 1.0
C      1  0.4797040000000  0.4153270000000  0.5507480000000 1.0
C      1  0.5570260000000  0.4331310000000  0.5388510000000 1.0
C      1  0.4923130000000  0.5387450000000  0.4097310000000 1.0
C      1  0.4374860000000  0.5217220000000  0.5581060000000 1.0
C      1  0.4950720000000  0.5702790000000  0.4523190000000 1.0
C      1  0.4093870000000  0.4807230000000  0.5347410000000 1.0
C      1  0.4667240000000  0.4750990000000  0.5170550000000 1.0
C      1  0.4993370000000  0.5932010000000  0.5225090000000 1.0
C      1  0.5167000000000  0.4697760000000  0.4924520000000 1.0
C      1  0.4393150000000  0.4785310000000  0.4348820000000 1.0
C      1  0.4308270000000  0.5237750000000  0.4396790000000 1.0
C      1  0.4480660000000  0.5214420000000  0.4179770000000 1.0
C      1  0.5362810000000  0.5191470000000  0.4215360000000 1.0
C      1  0.5282970000000  0.5031940000000  0.5503820000000 1.0
C      1  0.4825950000000  0.3980860000000  0.5139010000000 1.0
C      1  0.4835750000000  0.5126860000000  0.5359190000000 1.0
C      1  0.4971280000000  0.5184690000000  0.5089170000000 1.0
C      1  0.4537540000000  0.5075250000000  0.5815790000000 1.0
C      1  0.5549790000000  0.5598260000000  0.5501280000000 1.0
C      1  0.4605260000000  0.4061060000000  0.5303750000000 1.0
C      1  0.5633850000000  0.4747810000000  0.5170570000000 1.0
C      1  0.4963750000000  0.5104520000000  0.6011770000000 1.0
END
