TITL C-141421-4064-7 0.259109689882766 125000 -645.880614321285 0 0 93 (C1) n - 1
REM
REM in /rds/project/t2_vol4/rds-t2-cs072/BORA/CARBON/from-Arr/AIRSS/Generating-Clusters/GAP-ML-2020/Only-C1/SD-CG/HFTN-CG
REM
REM
REM
REM
REM
REM ./C.cell (11c1c37f851c82e70ff6c80c92926a4b)
REM AIRSS Version 0.9.1 bugfix July 2018 build 013d7b7c2542+ Fri, 06 Jul 2018 19:26:36 +0100
REM compiler GCC version 9.3.0
REM options -cpp -mtune=generic -march=x86-64 -g -O0
REM seed -1454720561 250173699 -547376169 1111144582 -944832287 144765876 1076571399 1081137313 -1305901721 -683423080 2056006394 1518276718 -206855137 1624361194 -215750196 -1098527477 -327411400 258969629 600487735 -256047762 -731083809 -1541592327 -441187366 1780307651 -973726113 1376479637 -1492388285 -1233845863 -1212106041 297056289 1931082138 -900995047 -966870759
REM
CELL 1.54180   50.00000   50.00000   50.00000   90.00000   90.00000   90.00000
LATT -1
SFAC C  
C      1  0.5532960000000  0.5568060000000  0.4655580000000 1.0
C      1  0.5178650000000  0.4656760000000  0.5148360000000 1.0
C      1  0.4377860000000  0.4944710000000  0.4671660000000 1.0
C      1  0.4962690000000  0.4134760000000  0.4476680000000 1.0
C      1  0.5371110000000  0.4415000000000  0.4431860000000 1.0
C      1  0.5484020000000  0.5457880000000  0.5691250000000 1.0
C      1  0.4168860000000  0.4892530000000  0.5077070000000 1.0
C      1  0.4741790000000  0.4741600000000  0.4261010000000 1.0
C      1  0.4511580000000  0.5372270000000  0.4466730000000 1.0
C      1  0.5292900000000  0.4832000000000  0.5641720000000 1.0
C      1  0.4340370000000  0.5100900000000  0.5403230000000 1.0
C      1  0.5001520000000  0.5170410000000  0.5173270000000 1.0
C      1  0.4312320000000  0.5349740000000  0.5556950000000 1.0
C      1  0.4838440000000  0.4185080000000  0.5072520000000 1.0
C      1  0.5264620000000  0.5607380000000  0.5591980000000 1.0
C      1  0.5240710000000  0.5158720000000  0.5328640000000 1.0
C      1  0.4795700000000  0.4955470000000  0.5200760000000 1.0
C      1  0.5463860000000  0.5315750000000  0.5180470000000 1.0
C      1  0.5193630000000  0.5698030000000  0.5333900000000 1.0
C      1  0.4861900000000  0.5045960000000  0.4607470000000 1.0
C      1  0.4794260000000  0.5859540000000  0.5091320000000 1.0
C      1  0.4729950000000  0.5518940000000  0.5419010000000 1.0
C      1  0.5078840000000  0.5445270000000  0.5758510000000 1.0
C      1  0.5596200000000  0.4467130000000  0.4584190000000 1.0
C      1  0.4602330000000  0.4561100000000  0.4936700000000 1.0
C      1  0.4484420000000  0.4460780000000  0.5200610000000 1.0
C      1  0.4675630000000  0.4273820000000  0.5291240000000 1.0
C      1  0.5205130000000  0.4215670000000  0.4570900000000 1.0
C      1  0.4713850000000  0.4307450000000  0.4844010000000 1.0
C      1  0.4326090000000  0.5087080000000  0.4932420000000 1.0
C      1  0.4772610000000  0.5448110000000  0.4874270000000 1.0
C      1  0.4836030000000  0.5357370000000  0.5657310000000 1.0
C      1  0.5258260000000  0.4697260000000  0.4364250000000 1.0
C      1  0.4488020000000  0.5495830000000  0.4724520000000 1.0
C      1  0.4764070000000  0.4310790000000  0.4566370000000 1.0
C      1  0.5294020000000  0.5286100000000  0.5856730000000 1.0
C      1  0.5008150000000  0.4884670000000  0.4786690000000 1.0
C      1  0.5181760000000  0.4701490000000  0.4669340000000 1.0
C      1  0.5116940000000  0.4192620000000  0.5091960000000 1.0
C      1  0.5209690000000  0.4381350000000  0.5316420000000 1.0
C      1  0.4545280000000  0.5116910000000  0.5170240000000 1.0
C      1  0.5527360000000  0.4389530000000  0.4863200000000 1.0
C      1  0.4597020000000  0.4985620000000  0.4227860000000 1.0
C      1  0.4217700000000  0.4844160000000  0.5339430000000 1.0
C      1  0.5214100000000  0.5271320000000  0.4292560000000 1.0
C      1  0.4513850000000  0.5816810000000  0.5040180000000 1.0
C      1  0.5497750000000  0.4876720000000  0.4369220000000 1.0
C      1  0.4781100000000  0.4812260000000  0.5730130000000 1.0
C      1  0.5466980000000  0.5168690000000  0.4361450000000 1.0
C      1  0.5306360000000  0.4587000000000  0.4891860000000 1.0
C      1  0.5335930000000  0.4865610000000  0.5342820000000 1.0
C      1  0.4640550000000  0.4562570000000  0.4466340000000 1.0
C      1  0.4779570000000  0.5193850000000  0.4155300000000 1.0
C      1  0.4598860000000  0.4614190000000  0.5612490000000 1.0
C      1  0.4442280000000  0.5138330000000  0.5673960000000 1.0
C      1  0.5495980000000  0.4364590000000  0.5325680000000 1.0
C      1  0.5813320000000  0.4890290000000  0.4727860000000 1.0
C      1  0.5141760000000  0.5138030000000  0.4902420000000 1.0
C      1  0.5050520000000  0.4695020000000  0.5697540000000 1.0
C      1  0.5611490000000  0.5325250000000  0.4560910000000 1.0
C      1  0.5681040000000  0.5171820000000  0.5351870000000 1.0
C      1  0.5690030000000  0.4733530000000  0.4525870000000 1.0
C      1  0.5665290000000  0.5136150000000  0.4764240000000 1.0
C      1  0.4384680000000  0.4622190000000  0.5414290000000 1.0
C      1  0.5027480000000  0.4805080000000  0.4205730000000 1.0
C      1  0.4761750000000  0.5415430000000  0.4326050000000 1.0
C      1  0.4429130000000  0.5096820000000  0.4431670000000 1.0
C      1  0.5100760000000  0.5695590000000  0.4655190000000 1.0
C      1  0.4305110000000  0.5403380000000  0.4933740000000 1.0
C      1  0.5275210000000  0.4232240000000  0.4854800000000 1.0
C      1  0.4964250000000  0.5297870000000  0.4711580000000 1.0
C      1  0.5439450000000  0.5157320000000  0.4940420000000 1.0
C      1  0.4568400000000  0.5774190000000  0.4762950000000 1.0
C      1  0.4860890000000  0.5754230000000  0.4815530000000 1.0
C      1  0.5360930000000  0.5596060000000  0.5118410000000 1.0
C      1  0.4913280000000  0.5746640000000  0.5317170000000 1.0
C      1  0.5947680000000  0.4776310000000  0.4938680000000 1.0
C      1  0.5035310000000  0.5461100000000  0.4463970000000 1.0
C      1  0.5343320000000  0.5667670000000  0.4821970000000 1.0
C      1  0.4488460000000  0.4679510000000  0.4680820000000 1.0
C      1  0.5613460000000  0.5216860000000  0.5617590000000 1.0
C      1  0.4356430000000  0.5611760000000  0.5148690000000 1.0
C      1  0.4714270000000  0.5101250000000  0.5731550000000 1.0
C      1  0.5040540000000  0.5088860000000  0.4154780000000 1.0
C      1  0.5640760000000  0.4890150000000  0.5298670000000 1.0
C      1  0.4885000000000  0.4743130000000  0.5036430000000 1.0
C      1  0.4432360000000  0.5562380000000  0.5420390000000 1.0
C      1  0.4749980000000  0.5349760000000  0.5155390000000 1.0
C      1  0.5659230000000  0.4430530000000  0.5125530000000 1.0
C      1  0.5787950000000  0.4697050000000  0.5147450000000 1.0
C      1  0.5036580000000  0.4440620000000  0.5562250000000 1.0
C      1  0.4763480000000  0.4384730000000  0.5535610000000 1.0
C      1  0.5428010000000  0.5047680000000  0.5771390000000 1.0
END
