TITL C-141718-1669-8 -0.000740694306825124 125000 -29.1208935549113 0 0 5 (C2v) n - 1
REM
REM in /rds/project/t2_vol4/rds-t2-cs072/BORA/CARBON/from-Arr/AIRSS/Generating-Clusters/GAP-ML-2020/Only-C1/SD-CG/HFTN-CG
REM
REM
REM
REM
REM
REM ./C.cell (11c1c37f851c82e70ff6c80c92926a4b)
REM AIRSS Version 0.9.1 bugfix July 2018 build 013d7b7c2542+ Fri, 06 Jul 2018 19:26:36 +0100
REM compiler GCC version 9.3.0
REM options -cpp -mtune=generic -march=x86-64 -g -O0
REM seed -1494517170 -722729295 -136085077 -1622606532 -1531918805 618628960 1054082007 597280283 -152139445 -1972175886 -253206413 -2098904028 531921813 -1886877953 1287448046 1459913096 600484300 700922489 344192424 -132448047 1211545990 2143125535 -1788416757 177342091 841245001 834834312 873496914 856447559 -1805842380 -505499025 -1269224204 -2026666182 -740990081
REM
CELL 1.54180   50.00000   50.00000   50.00000   90.00000   90.00000   90.00000
LATT -1
SFAC C  
C      1  0.5003950000000  0.5035860000000  0.5054150000000 1.0
C      1  0.4951600000000  0.5261550000000  0.5198970000000 1.0
C      1  0.4987100000000  0.4882900000000  0.4823180000000 1.0
C      1  0.5085660000000  0.5076620000000  0.5311660000000 1.0
C      1  0.4971690000000  0.4743070000000  0.4612040000000 1.0
END
