TITL C-144802-3184-1 -0.00853353308365269 125000 -442.612361400915 0 0 65 (C1) n - 1
REM
REM in /rds/project/t2_vol4/rds-t2-cs072/BORA/CARBON/from-Arr/AIRSS/Generating-Clusters/GAP-ML-2020/Only-C1/SD-CG/HFTN-CG
REM
REM
REM
REM
REM
REM ./C.cell (11c1c37f851c82e70ff6c80c92926a4b)
REM AIRSS Version 0.9.1 bugfix July 2018 build 013d7b7c2542+ Fri, 06 Jul 2018 19:26:36 +0100
REM compiler GCC version 9.3.0
REM options -cpp -mtune=generic -march=x86-64 -g -O0
REM seed 1553475894 1562842660 -1042110496 -2005856372 917683934 -1916321880 301385600 -1949153193 1165772301 1483100602 -639562444 -445197 1240368714 -823037504 265437438 -1523906558 559204656 -1771354455 -687764425 -1434228865 1599370585 1248325920 1262326277 639210193 -1488601817 -1517365773 1250914501 -1587498898 305192715 676999611 -955745886 -1902368184 -828078441
REM
CELL 1.54180   50.00000   50.00000   50.00000   90.00000   90.00000   90.00000
LATT -1
SFAC C  
C      1  0.5592950000000  0.5268450000000  0.5088940000000 1.0
C      1  0.4323450000000  0.4941750000000  0.4753530000000 1.0
C      1  0.4785970000000  0.5005700000000  0.4955200000000 1.0
C      1  0.4892670000000  0.4764440000000  0.4500910000000 1.0
C      1  0.5068300000000  0.5491260000000  0.4639640000000 1.0
C      1  0.4949100000000  0.5329710000000  0.4403320000000 1.0
C      1  0.5376530000000  0.4805630000000  0.4386390000000 1.0
C      1  0.5297550000000  0.4628410000000  0.5559740000000 1.0
C      1  0.4827350000000  0.5363730000000  0.5526180000000 1.0
C      1  0.5365640000000  0.4878520000000  0.4913140000000 1.0
C      1  0.4436590000000  0.5205630000000  0.4731520000000 1.0
C      1  0.5288770000000  0.5642840000000  0.5168820000000 1.0
C      1  0.4927830000000  0.4777690000000  0.5017260000000 1.0
C      1  0.4936980000000  0.5831850000000  0.4940810000000 1.0
C      1  0.5157030000000  0.5759300000000  0.4747510000000 1.0
C      1  0.5120380000000  0.5143410000000  0.4288560000000 1.0
C      1  0.4871510000000  0.4864560000000  0.5571980000000 1.0
C      1  0.5188000000000  0.4403750000000  0.5456860000000 1.0
C      1  0.4702700000000  0.5100740000000  0.5550000000000 1.0
C      1  0.4866760000000  0.5286960000000  0.5045970000000 1.0
C      1  0.5207020000000  0.5045340000000  0.4702070000000 1.0
C      1  0.4236100000000  0.4909530000000  0.5027640000000 1.0
C      1  0.5445260000000  0.4587750000000  0.4826320000000 1.0
C      1  0.4729380000000  0.4623880000000  0.5494950000000 1.0
C      1  0.4332310000000  0.4665230000000  0.5145500000000 1.0
C      1  0.5152170000000  0.4915580000000  0.5133520000000 1.0
C      1  0.4758850000000  0.4393490000000  0.4689340000000 1.0
C      1  0.5005990000000  0.5700210000000  0.5183090000000 1.0
C      1  0.5145050000000  0.5226980000000  0.5094830000000 1.0
C      1  0.4642430000000  0.4591080000000  0.4509190000000 1.0
C      1  0.4981630000000  0.4578760000000  0.4735430000000 1.0
C      1  0.4657750000000  0.4329260000000  0.4944570000000 1.0
C      1  0.5141880000000  0.4277010000000  0.5033390000000 1.0
C      1  0.5147660000000  0.4870760000000  0.5455140000000 1.0
C      1  0.4395280000000  0.5340740000000  0.5000760000000 1.0
C      1  0.4812860000000  0.5452590000000  0.4784240000000 1.0
C      1  0.5525600000000  0.5403090000000  0.4824040000000 1.0
C      1  0.5547150000000  0.4523720000000  0.5106420000000 1.0
C      1  0.5390990000000  0.5680990000000  0.4901440000000 1.0
C      1  0.5509550000000  0.4634540000000  0.4544320000000 1.0
C      1  0.4885390000000  0.5013550000000  0.4672960000000 1.0
C      1  0.5539570000000  0.4788500000000  0.5525980000000 1.0
C      1  0.5332970000000  0.5304100000000  0.5545360000000 1.0
C      1  0.4319340000000  0.5130050000000  0.5185240000000 1.0
C      1  0.5079160000000  0.5387260000000  0.5623860000000 1.0
C      1  0.4686190000000  0.5699240000000  0.4875280000000 1.0
C      1  0.4894480000000  0.4401690000000  0.5402160000000 1.0
C      1  0.4868220000000  0.4295300000000  0.5139270000000 1.0
C      1  0.4464130000000  0.5014250000000  0.5414590000000 1.0
C      1  0.5087410000000  0.4847880000000  0.4296340000000 1.0
C      1  0.4432190000000  0.4679970000000  0.4683870000000 1.0
C      1  0.4478840000000  0.4722740000000  0.5387980000000 1.0
C      1  0.5345470000000  0.4341680000000  0.5222950000000 1.0
C      1  0.4435810000000  0.4509950000000  0.4934580000000 1.0
C      1  0.5594460000000  0.4988940000000  0.5073460000000 1.0
C      1  0.4539570000000  0.5575760000000  0.5092850000000 1.0
C      1  0.5203050000000  0.4421410000000  0.4801230000000 1.0
C      1  0.4724250000000  0.5250290000000  0.4587050000000 1.0
C      1  0.5627240000000  0.4761580000000  0.5253350000000 1.0
C      1  0.5374740000000  0.5382440000000  0.5264940000000 1.0
C      1  0.5562970000000  0.5294790000000  0.4559220000000 1.0
C      1  0.5387120000000  0.5109300000000  0.4430410000000 1.0
C      1  0.5378510000000  0.5030570000000  0.5562850000000 1.0
C      1  0.4785810000000  0.5501970000000  0.5262640000000 1.0
C      1  0.5232160000000  0.5301910000000  0.4819100000000 1.0
END
