TITL C-141416-3287-4 56.2674280934926 125000 -696.882305701018 0 0 101 (C1) n - 1
REM
REM in /rds/project/t2_vol4/rds-t2-cs072/BORA/CARBON/from-Arr/AIRSS/Generating-Clusters/GAP-ML-2020/Only-C1/SD-CG/HFTN-CG
REM
REM
REM
REM
REM
REM ./C.cell (11c1c37f851c82e70ff6c80c92926a4b)
REM AIRSS Version 0.9.1 bugfix July 2018 build 013d7b7c2542+ Fri, 06 Jul 2018 19:26:36 +0100
REM compiler GCC version 9.3.0
REM options -cpp -mtune=generic -march=x86-64 -g -O0
REM seed 214075515 2108511628 -126163002 -1094703722 -579233004 338126339 1401485244 -1478254876 -831101559 1865413604 530273880 2012353477 -23918934 -1482035343 -2115442053 -946677617 -1459150590 -309335147 -543630235 -109820638 965956740 292164216 -752405501 218498896 -2069474185 1690137701 -1638936168 -805290290 -1785495904 1349606884 724425883 274113854 1567402386
REM
CELL 1.54180   50.00000   50.00000   50.00000   90.00000   90.00000   90.00000
LATT -1
SFAC C  
C      1  0.4638680000000  0.5774720000000  0.5348260000000 1.0
C      1  0.4764170000000  0.5097700000000  0.5799390000000 1.0
C      1  0.5212210000000  0.5752140000000  0.4683460000000 1.0
C      1  0.4901630000000  0.5672080000000  0.5418890000000 1.0
C      1  0.5791440000000  0.5454130000000  0.5244510000000 1.0
C      1  0.4248690000000  0.5160970000000  0.5174120000000 1.0
C      1  0.4969900000000  0.5304490000000  0.5750970000000 1.0
C      1  0.4686900000000  0.5961070000000  0.5141580000000 1.0
C      1  0.4797950000000  0.5651860000000  0.4492800000000 1.0
C      1  0.4209430000000  0.4483880000000  0.4942010000000 1.0
C      1  0.4615690000000  0.4990620000000  0.4237260000000 1.0
C      1  0.5238850000000  0.4287900000000  0.4434930000000 1.0
C      1  0.4747660000000  0.4424450000000  0.4802090000000 1.0
C      1  0.5229660000000  0.4675190000000  0.5659140000000 1.0
C      1  0.5561360000000  0.5563170000000  0.5386610000000 1.0
C      1  0.5835390000000  0.5030210000000  0.4832200000000 1.0
C      1  0.4917690000000  0.5552010000000  0.5661050000000 1.0
C      1  0.4201920000000  0.4394250000000  0.5207220000000 1.0
C      1  0.4577100000000  0.4540390000000  0.4372020000000 1.0
C      1  0.5690150000000  0.5157530000000  0.5546090000000 1.0
C      1  0.4882180000000  0.4310490000000  0.5050130000000 1.0
C      1  0.5609350000000  0.4908600000000  0.5630720000000 1.0
C      1  0.4318550000000  0.5269290000000  0.5638900000000 1.0
C      1  0.5313790000000  0.5192370000000  0.4959060000000 1.0
C      1  0.5484460000000  0.5349920000000  0.5569430000000 1.0
C      1  0.5501890000000  0.5075210000000  0.4483300000000 1.0
C      1  0.4360570000000  0.5222920000000  0.4629650000000 1.0
C      1  0.5253400000000  0.4709680000000  0.4233370000000 1.0
C      1  0.5053490000000  0.3948830000000  0.4774290000000 1.0
C      1  0.5181050000000  0.4408240000000  0.5116820000000 1.0
C      1  0.4366810000000  0.5596650000000  0.5012590000000 1.0
C      1  0.4557680000000  0.5802700000000  0.4931180000000 1.0
C      1  0.5234670000000  0.6024470000000  0.5213670000000 1.0
C      1  0.4721620000000  0.4267060000000  0.5311690000000 1.0
C      1  0.4718820000000  0.4712230000000  0.4193790000000 1.0
C      1  0.4679580000000  0.5450490000000  0.4327960000000 1.0
C      1  0.5563570000000  0.5685190000000  0.4947440000000 1.0
C      1  0.4519830000000  0.4763990000000  0.5077090000000 1.0
C      1  0.5669610000000  0.4671470000000  0.5492360000000 1.0
C      1  0.4964300000000  0.4879970000000  0.5291250000000 1.0
C      1  0.4988910000000  0.6036590000000  0.5085500000000 1.0
C      1  0.4496880000000  0.4558520000000  0.5547960000000 1.0
C      1  0.4402350000000  0.4825230000000  0.5525170000000 1.0
C      1  0.5220430000000  0.5192580000000  0.5622530000000 1.0
C      1  0.5070340000000  0.5623350000000  0.4473940000000 1.0
C      1  0.5340970000000  0.4914040000000  0.5002680000000 1.0
C      1  0.4488680000000  0.5055030000000  0.5680590000000 1.0
C      1  0.5328790000000  0.4337420000000  0.5349460000000 1.0
C      1  0.4795980000000  0.5211530000000  0.4212110000000 1.0
C      1  0.5384830000000  0.5302210000000  0.4653460000000 1.0
C      1  0.4102990000000  0.4644840000000  0.5158260000000 1.0
C      1  0.5082240000000  0.5177430000000  0.4268920000000 1.0
C      1  0.4774980000000  0.5675350000000  0.4793350000000 1.0
C      1  0.5358540000000  0.4295090000000  0.4889920000000 1.0
C      1  0.5447150000000  0.5603850000000  0.4711150000000 1.0
C      1  0.4415660000000  0.4988920000000  0.4466510000000 1.0
C      1  0.4979450000000  0.4346270000000  0.4327450000000 1.0
C      1  0.5396420000000  0.5746220000000  0.5205080000000 1.0
C      1  0.4931030000000  0.3999350000000  0.5008280000000 1.0
C      1  0.5028100000000  0.5792810000000  0.4906640000000 1.0
C      1  0.5064170000000  0.5144640000000  0.5352370000000 1.0
C      1  0.5168930000000  0.4728600000000  0.5129430000000 1.0
C      1  0.4889840000000  0.4972060000000  0.4812800000000 1.0
C      1  0.5298380000000  0.4989290000000  0.4282030000000 1.0
C      1  0.5845830000000  0.5182530000000  0.5310710000000 1.0
C      1  0.4906260000000  0.5227950000000  0.4699040000000 1.0
C      1  0.5089440000000  0.5328210000000  0.5113390000000 1.0
C      1  0.5234390000000  0.4144180000000  0.4686710000000 1.0
C      1  0.4467050000000  0.5428300000000  0.4490030000000 1.0
C      1  0.5406530000000  0.4521700000000  0.4394500000000 1.0
C      1  0.4275990000000  0.5358670000000  0.5386670000000 1.0
C      1  0.4780910000000  0.4819170000000  0.4592920000000 1.0
C      1  0.4738070000000  0.4949500000000  0.5082570000000 1.0
C      1  0.5337020000000  0.4926220000000  0.5708210000000 1.0
C      1  0.4432960000000  0.4361890000000  0.5356090000000 1.0
C      1  0.5847460000000  0.5302160000000  0.4802740000000 1.0
C      1  0.4807650000000  0.3987400000000  0.5251070000000 1.0
C      1  0.4952620000000  0.4609660000000  0.4693950000000 1.0
C      1  0.4859400000000  0.4851320000000  0.5801270000000 1.0
C      1  0.5791220000000  0.5513530000000  0.4972860000000 1.0
C      1  0.4481070000000  0.4721980000000  0.4576240000000 1.0
C      1  0.4945020000000  0.4693500000000  0.5575260000000 1.0
C      1  0.5598630000000  0.4441980000000  0.4828670000000 1.0
C      1  0.5875590000000  0.4964800000000  0.5125710000000 1.0
C      1  0.5431110000000  0.4509540000000  0.5531830000000 1.0
C      1  0.4987980000000  0.4597830000000  0.4184380000000 1.0
C      1  0.4359140000000  0.5289670000000  0.4931070000000 1.0
C      1  0.4842230000000  0.5373450000000  0.4933210000000 1.0
C      1  0.4626310000000  0.5219880000000  0.5060690000000 1.0
C      1  0.5678250000000  0.4891610000000  0.4615570000000 1.0
C      1  0.5103860000000  0.5621920000000  0.5180160000000 1.0
C      1  0.4741260000000  0.4344760000000  0.4489910000000 1.0
C      1  0.4396080000000  0.5604310000000  0.5286630000000 1.0
C      1  0.4476930000000  0.4587020000000  0.4845070000000 1.0
C      1  0.4285920000000  0.4871320000000  0.5247610000000 1.0
C      1  0.5120810000000  0.4798190000000  0.4842420000000 1.0
C      1  0.5123890000000  0.5336570000000  0.4509250000000 1.0
C      1  0.4768030000000  0.4466370000000  0.5541770000000 1.0
C      1  0.5607420000000  0.4606950000000  0.4582920000000 1.0
C      1  0.5800110000000  0.4699770000000  0.5229990000000 1.0
C      1  0.5729820000000  0.4506450000000  0.5053980000000 1.0
END
