TITL C-141703-1557-7 0.13561000145895 125000 -607.120234922889 0 0 87 (C1) n - 1
REM
REM in /rds/project/t2_vol4/rds-t2-cs072/BORA/CARBON/from-Arr/AIRSS/Generating-Clusters/GAP-ML-2020/Only-C1/SD-CG/HFTN-CG
REM
REM
REM
REM
REM
REM ./C.cell (11c1c37f851c82e70ff6c80c92926a4b)
REM AIRSS Version 0.9.1 bugfix July 2018 build 013d7b7c2542+ Fri, 06 Jul 2018 19:26:36 +0100
REM compiler GCC version 9.3.0
REM options -cpp -mtune=generic -march=x86-64 -g -O0
REM seed 104364741 -1813878820 -30125242 -244313100 221043216 -219491543 2037520600 -19652902 1619783717 -1391820332 -94816581 170761775 976658571 -1166293517 -1985046491 934556940 -977449180 1441921233 46062749 -1027046118 -133734960 -1799757171 294482457 1093509910 1585645448 -682515107 -1008444596 615835360 2029228684 -797128311 2010701269 -1298397606 767980998
REM
CELL 1.54180   50.00000   50.00000   50.00000   90.00000   90.00000   90.00000
LATT -1
SFAC C  
C      1  0.4399720000000  0.4267730000000  0.5569500000000 1.0
C      1  0.5201840000000  0.5469660000000  0.4957500000000 1.0
C      1  0.5382710000000  0.4609830000000  0.4334140000000 1.0
C      1  0.5679580000000  0.5258430000000  0.5186580000000 1.0
C      1  0.4349480000000  0.4763210000000  0.4745540000000 1.0
C      1  0.5225940000000  0.5038600000000  0.5136600000000 1.0
C      1  0.4535010000000  0.5487100000000  0.4542210000000 1.0
C      1  0.5182730000000  0.5020140000000  0.5879900000000 1.0
C      1  0.5718110000000  0.5178550000000  0.4918700000000 1.0
C      1  0.5691750000000  0.4733960000000  0.4659990000000 1.0
C      1  0.4716410000000  0.5517180000000  0.4326890000000 1.0
C      1  0.5483030000000  0.5107170000000  0.5358920000000 1.0
C      1  0.4896430000000  0.4619360000000  0.4301440000000 1.0
C      1  0.5726970000000  0.4881630000000  0.4905360000000 1.0
C      1  0.4954240000000  0.5660580000000  0.4383770000000 1.0
C      1  0.4503870000000  0.4973200000000  0.5653880000000 1.0
C      1  0.5150000000000  0.4732760000000  0.4232920000000 1.0
C      1  0.5108410000000  0.4743470000000  0.4804050000000 1.0
C      1  0.5513270000000  0.4861380000000  0.5544220000000 1.0
C      1  0.4600920000000  0.5717340000000  0.5066220000000 1.0
C      1  0.5488910000000  0.5332320000000  0.4461890000000 1.0
C      1  0.5620500000000  0.5396530000000  0.4712780000000 1.0
C      1  0.5136480000000  0.4224190000000  0.4906520000000 1.0
C      1  0.4893380000000  0.4910900000000  0.4788160000000 1.0
C      1  0.5213420000000  0.5017680000000  0.4248240000000 1.0
C      1  0.5043560000000  0.5211620000000  0.4385180000000 1.0
C      1  0.5525880000000  0.4632420000000  0.5371730000000 1.0
C      1  0.4905350000000  0.4391600000000  0.4482460000000 1.0
C      1  0.4671370000000  0.5627720000000  0.4776680000000 1.0
C      1  0.5582780000000  0.4423840000000  0.4976890000000 1.0
C      1  0.4437720000000  0.5199630000000  0.4509510000000 1.0
C      1  0.5472740000000  0.5569830000000  0.5473030000000 1.0
C      1  0.5597350000000  0.4464810000000  0.4704510000000 1.0
C      1  0.4396600000000  0.4526830000000  0.5544350000000 1.0
C      1  0.4981480000000  0.5166410000000  0.4710700000000 1.0
C      1  0.4537170000000  0.5147140000000  0.4953420000000 1.0
C      1  0.4858400000000  0.4729720000000  0.5210380000000 1.0
C      1  0.5316570000000  0.4423040000000  0.5346700000000 1.0
C      1  0.4782010000000  0.5251680000000  0.4247020000000 1.0
C      1  0.4322130000000  0.5132850000000  0.5151140000000 1.0
C      1  0.5383330000000  0.5315770000000  0.5541390000000 1.0
C      1  0.5428700000000  0.5658800000000  0.5083610000000 1.0
C      1  0.5664790000000  0.4663660000000  0.5116300000000 1.0
C      1  0.4886260000000  0.4224480000000  0.5032990000000 1.0
C      1  0.5384510000000  0.4400280000000  0.4524160000000 1.0
C      1  0.4347160000000  0.4796730000000  0.5490450000000 1.0
C      1  0.4945600000000  0.4899690000000  0.5943740000000 1.0
C      1  0.4499170000000  0.4623600000000  0.4545500000000 1.0
C      1  0.5142460000000  0.4289810000000  0.4618860000000 1.0
C      1  0.5576530000000  0.4814940000000  0.4410500000000 1.0
C      1  0.5637530000000  0.5527790000000  0.5238500000000 1.0
C      1  0.4941960000000  0.5748870000000  0.4648500000000 1.0
C      1  0.4658720000000  0.4397050000000  0.4624270000000 1.0
C      1  0.5146990000000  0.4754590000000  0.5071850000000 1.0
C      1  0.5012680000000  0.5038140000000  0.5472830000000 1.0
C      1  0.4381070000000  0.5044300000000  0.4730280000000 1.0
C      1  0.4558290000000  0.4339540000000  0.5332560000000 1.0
C      1  0.4470820000000  0.5250890000000  0.5592100000000 1.0
C      1  0.5288470000000  0.5739850000000  0.5345840000000 1.0
C      1  0.4587320000000  0.5051710000000  0.4309680000000 1.0
C      1  0.4642590000000  0.4765580000000  0.4338650000000 1.0
C      1  0.4936750000000  0.5500160000000  0.5611540000000 1.0
C      1  0.5415850000000  0.4896370000000  0.5800660000000 1.0
C      1  0.4656670000000  0.5472860000000  0.5559870000000 1.0
C      1  0.5478510000000  0.5074280000000  0.4336060000000 1.0
C      1  0.4849180000000  0.5692920000000  0.5194120000000 1.0
C      1  0.5355100000000  0.4294890000000  0.5088870000000 1.0
C      1  0.4323170000000  0.4664450000000  0.5012080000000 1.0
C      1  0.5047480000000  0.4449170000000  0.5453610000000 1.0
C      1  0.5215430000000  0.5468090000000  0.4429960000000 1.0
C      1  0.5126170000000  0.5250830000000  0.5652480000000 1.0
C      1  0.4462940000000  0.4419850000000  0.5068980000000 1.0
C      1  0.5236820000000  0.5191810000000  0.4879480000000 1.0
C      1  0.4768590000000  0.4852980000000  0.5736000000000 1.0
C      1  0.4649230000000  0.4308060000000  0.4889310000000 1.0
C      1  0.4928040000000  0.4746980000000  0.5498960000000 1.0
C      1  0.4852020000000  0.4293880000000  0.5306630000000 1.0
C      1  0.4764290000000  0.5355930000000  0.4856810000000 1.0
C      1  0.4769790000000  0.4966480000000  0.5057500000000 1.0
C      1  0.5020590000000  0.5707390000000  0.5424760000000 1.0
C      1  0.5210490000000  0.5629480000000  0.4698060000000 1.0
C      1  0.4277500000000  0.4860820000000  0.5220290000000 1.0
C      1  0.4347700000000  0.5334770000000  0.5343050000000 1.0
C      1  0.4944250000000  0.5428700000000  0.5085640000000 1.0
C      1  0.4525680000000  0.5570340000000  0.5305680000000 1.0
C      1  0.4955790000000  0.5150940000000  0.5209130000000 1.0
C      1  0.5492800000000  0.5649480000000  0.4798260000000 1.0
END
