TITL C-141700-1636-7 0.0660829366067539 125000 -257.966611592077 0 0 38 (C1) n - 1
REM
REM in /rds/project/t2_vol4/rds-t2-cs072/BORA/CARBON/from-Arr/AIRSS/Generating-Clusters/GAP-ML-2020/Only-C1/SD-CG/HFTN-CG
REM
REM
REM
REM
REM
REM ./C.cell (11c1c37f851c82e70ff6c80c92926a4b)
REM AIRSS Version 0.9.1 bugfix July 2018 build 013d7b7c2542+ Fri, 06 Jul 2018 19:26:36 +0100
REM compiler GCC version 9.3.0
REM options -cpp -mtune=generic -march=x86-64 -g -O0
REM seed -131226016 556328030 -1454398473 1676412419 2095634952 -230714886 471555340 674059704 1118717102 -160480768 677386141 -1677323575 -1013303114 -1248811504 775462524 -1245675535 892920052 -293882015 1655568639 1772515212 2029681918 1115357020 -1090075490 -832405605 1593097837 -250823949 1639357365 -1510650545 -953872405 974408474 786899494 -755717680 -1764809138
REM
CELL 1.54180   50.00000   50.00000   50.00000   90.00000   90.00000   90.00000
LATT -1
SFAC C  
C      1  0.5517660000000  0.5128930000000  0.4779100000000 1.0
C      1  0.4542490000000  0.5516340000000  0.4958470000000 1.0
C      1  0.5346450000000  0.5035090000000  0.4430280000000 1.0
C      1  0.5288540000000  0.5239940000000  0.5505230000000 1.0
C      1  0.4640510000000  0.4850280000000  0.4543300000000 1.0
C      1  0.5366290000000  0.4650410000000  0.4831500000000 1.0
C      1  0.4941120000000  0.5426260000000  0.5165760000000 1.0
C      1  0.4435790000000  0.5072250000000  0.4790930000000 1.0
C      1  0.4993660000000  0.4431840000000  0.5002540000000 1.0
C      1  0.5567920000000  0.4831840000000  0.5202990000000 1.0
C      1  0.5120470000000  0.4889160000000  0.4474050000000 1.0
C      1  0.4940570000000  0.4507730000000  0.4728200000000 1.0
C      1  0.4678550000000  0.4612170000000  0.4707010000000 1.0
C      1  0.4844360000000  0.5251420000000  0.5599110000000 1.0
C      1  0.5346940000000  0.4671710000000  0.5298850000000 1.0
C      1  0.4486830000000  0.4918980000000  0.5035360000000 1.0
C      1  0.5064340000000  0.5336390000000  0.4904730000000 1.0
C      1  0.5333320000000  0.5830070000000  0.5040190000000 1.0
C      1  0.4582740000000  0.5091500000000  0.5244510000000 1.0
C      1  0.5350050000000  0.5344660000000  0.4885870000000 1.0
C      1  0.5042100000000  0.5362480000000  0.5429500000000 1.0
C      1  0.5189560000000  0.4782320000000  0.5506830000000 1.0
C      1  0.5316260000000  0.5012630000000  0.5616120000000 1.0
C      1  0.4579110000000  0.4649350000000  0.4979120000000 1.0
C      1  0.4757050000000  0.4500310000000  0.5154350000000 1.0
C      1  0.4897360000000  0.4771420000000  0.5502830000000 1.0
C      1  0.4777710000000  0.4539190000000  0.5418300000000 1.0
C      1  0.4597110000000  0.5322260000000  0.4781610000000 1.0
C      1  0.4654360000000  0.5371480000000  0.5156690000000 1.0
C      1  0.5253140000000  0.4521670000000  0.5067840000000 1.0
C      1  0.5524470000000  0.4875550000000  0.4918020000000 1.0
C      1  0.5571180000000  0.5142950000000  0.4485520000000 1.0
C      1  0.5167540000000  0.4644290000000  0.4623630000000 1.0
C      1  0.4391940000000  0.4957990000000  0.4554440000000 1.0
C      1  0.5405060000000  0.5603040000000  0.4963340000000 1.0
C      1  0.4737320000000  0.5021950000000  0.5476970000000 1.0
C      1  0.4870900000000  0.5259010000000  0.4701730000000 1.0
C      1  0.4879190000000  0.5025140000000  0.4535200000000 1.0
END
