TITL C-141435-3362-6 -0.78813364231706 125000 -296.63750549943 0 0 45 (C1) n - 1
REM
REM in /rds/project/t2_vol4/rds-t2-cs072/BORA/CARBON/from-Arr/AIRSS/Generating-Clusters/GAP-ML-2020/Only-C1/SD-CG/HFTN-CG
REM
REM
REM
REM
REM
REM ./C.cell (11c1c37f851c82e70ff6c80c92926a4b)
REM AIRSS Version 0.9.1 bugfix July 2018 build 013d7b7c2542+ Fri, 06 Jul 2018 19:26:36 +0100
REM compiler GCC version 9.3.0
REM options -cpp -mtune=generic -march=x86-64 -g -O0
REM seed 1897333253 -2089196133 458101545 -235368404 679947047 88456293 749149873 -834178207 1738701693 -150134984 2087976017 2013395188 -1591723214 -941344764 947618171 634505927 -1953105510 -1127912859 829272843 935215250 -1510374938 -304130178 -222497882 1615916583 -301393873 -1206414323 -609774745 -573972298 -912814874 -1173545656 670761979 -1651755728 437063315
REM
CELL 1.54180   50.00000   50.00000   50.00000   90.00000   90.00000   90.00000
LATT -1
SFAC C  
C      1  0.5511320000000  0.4967460000000  0.5419170000000 1.0
C      1  0.4932300000000  0.5267990000000  0.4367870000000 1.0
C      1  0.4485350000000  0.4772150000000  0.5086460000000 1.0
C      1  0.5061400000000  0.4476430000000  0.4832930000000 1.0
C      1  0.4606810000000  0.5022450000000  0.4619820000000 1.0
C      1  0.5364160000000  0.5121780000000  0.5232130000000 1.0
C      1  0.4757370000000  0.5163130000000  0.5248870000000 1.0
C      1  0.5061180000000  0.5523080000000  0.5261490000000 1.0
C      1  0.4455630000000  0.5695520000000  0.4968720000000 1.0
C      1  0.5215330000000  0.5327080000000  0.5375890000000 1.0
C      1  0.4767130000000  0.5457850000000  0.5278710000000 1.0
C      1  0.4824580000000  0.4919840000000  0.4795470000000 1.0
C      1  0.5114820000000  0.5356590000000  0.4601210000000 1.0
C      1  0.4515740000000  0.4881660000000  0.4827360000000 1.0
C      1  0.4574490000000  0.5614200000000  0.5180160000000 1.0
C      1  0.4623500000000  0.4511170000000  0.5109760000000 1.0
C      1  0.4535420000000  0.5498340000000  0.4514590000000 1.0
C      1  0.5518850000000  0.4715150000000  0.4790440000000 1.0
C      1  0.5083240000000  0.5026580000000  0.4324510000000 1.0
C      1  0.4560420000000  0.4940680000000  0.5299010000000 1.0
C      1  0.5199540000000  0.4952350000000  0.5041140000000 1.0
C      1  0.5301580000000  0.4934830000000  0.5620190000000 1.0
C      1  0.5118750000000  0.5163650000000  0.5601900000000 1.0
C      1  0.5262220000000  0.4324030000000  0.4693730000000 1.0
C      1  0.4713870000000  0.4862890000000  0.5538980000000 1.0
C      1  0.5188190000000  0.4686860000000  0.5549110000000 1.0
C      1  0.4820770000000  0.4375770000000  0.4993780000000 1.0
C      1  0.4656170000000  0.5253090000000  0.4465800000000 1.0
C      1  0.5287790000000  0.4900190000000  0.4756330000000 1.0
C      1  0.4905120000000  0.4656320000000  0.5499590000000 1.0
C      1  0.5479190000000  0.4461220000000  0.4671030000000 1.0
C      1  0.5042280000000  0.4764800000000  0.4385160000000 1.0
C      1  0.4939290000000  0.5093620000000  0.5006240000000 1.0
C      1  0.5154230000000  0.4633990000000  0.5109840000000 1.0
C      1  0.5217980000000  0.5598090000000  0.4739270000000 1.0
C      1  0.5585960000000  0.4726530000000  0.5282880000000 1.0
C      1  0.4948910000000  0.5348480000000  0.4857200000000 1.0
C      1  0.4454910000000  0.5641950000000  0.4706810000000 1.0
C      1  0.5033190000000  0.4731060000000  0.4678130000000 1.0
C      1  0.5267390000000  0.5108950000000  0.4546150000000 1.0
C      1  0.5340980000000  0.4580530000000  0.5327780000000 1.0
C      1  0.4900430000000  0.4533060000000  0.5240450000000 1.0
C      1  0.4854970000000  0.5107720000000  0.5547800000000 1.0
C      1  0.5650390000000  0.4741380000000  0.5022760000000 1.0
C      1  0.5106830000000  0.5559520000000  0.4983420000000 1.0
END
