TITL C-147424-6740-6 -0.0666001476319402 125000 -883.079018005783 0 0 126 (C1) n - 1
REM
REM in /rds/project/t2_vol4/rds-t2-cs072/BORA/CARBON/from-Arr/AIRSS/Generating-Clusters/GAP-ML-2020/Only-C1/SD-CG/HFTN-CG
REM
REM
REM
REM
REM
REM ./C.cell (11c1c37f851c82e70ff6c80c92926a4b)
REM AIRSS Version 0.9.1 bugfix July 2018 build 013d7b7c2542+ Fri, 06 Jul 2018 19:26:36 +0100
REM compiler GCC version 9.3.0
REM options -cpp -mtune=generic -march=x86-64 -g -O0
REM seed -1889202108 887934615 358780927 -251174530 -848796741 1740474233 -857091771 2003320022 -1405730787 750551860 874328179 1572536076 -1061149933 980002272 -1420441701 195099113 -108803293 1517482553 -1632364058 -1097063078 1789343425 -1571772568 -1163275475 734353169 477352347 89997017 -704029458 -128091361 517612863 -231067546 803451740 -786697185 511375807
REM
CELL 1.54180   50.00000   50.00000   50.00000   90.00000   90.00000   90.00000
LATT -1
SFAC C  
C      1  0.5911620000000  0.4914090000000  0.4915270000000 1.0
C      1  0.5190370000000  0.4631600000000  0.5559860000000 1.0
C      1  0.5212540000000  0.5345590000000  0.4947420000000 1.0
C      1  0.4974940000000  0.4934760000000  0.4674030000000 1.0
C      1  0.5159590000000  0.5433180000000  0.4669060000000 1.0
C      1  0.4907970000000  0.4642110000000  0.4140610000000 1.0
C      1  0.5406070000000  0.5128270000000  0.5899810000000 1.0
C      1  0.4850210000000  0.4921950000000  0.5500540000000 1.0
C      1  0.5207320000000  0.4649260000000  0.5255780000000 1.0
C      1  0.5401020000000  0.4871300000000  0.5221920000000 1.0
C      1  0.5278800000000  0.5872990000000  0.5173050000000 1.0
C      1  0.4238260000000  0.4852610000000  0.4423420000000 1.0
C      1  0.5367460000000  0.4240560000000  0.4718860000000 1.0
C      1  0.5482360000000  0.4458700000000  0.4544440000000 1.0
C      1  0.4933140000000  0.5210740000000  0.5915800000000 1.0
C      1  0.4196010000000  0.5322150000000  0.4620990000000 1.0
C      1  0.4945250000000  0.4650550000000  0.4791470000000 1.0
C      1  0.5386140000000  0.5410380000000  0.5176180000000 1.0
C      1  0.5045020000000  0.4210760000000  0.4334000000000 1.0
C      1  0.5568010000000  0.4701010000000  0.5798430000000 1.0
C      1  0.5249010000000  0.5880830000000  0.4614320000000 1.0
C      1  0.4470680000000  0.4422890000000  0.5539130000000 1.0
C      1  0.5034720000000  0.4902910000000  0.4136120000000 1.0
C      1  0.4280840000000  0.5295230000000  0.5139330000000 1.0
C      1  0.5343070000000  0.5527580000000  0.4286350000000 1.0
C      1  0.4133150000000  0.5195860000000  0.4875980000000 1.0
C      1  0.4794250000000  0.4777410000000  0.5245370000000 1.0
C      1  0.5108950000000  0.4743310000000  0.5987680000000 1.0
C      1  0.5067260000000  0.5615240000000  0.4244910000000 1.0
C      1  0.5714430000000  0.4815950000000  0.5319730000000 1.0
C      1  0.4679680000000  0.4104360000000  0.5292160000000 1.0
C      1  0.5723290000000  0.4892900000000  0.4486350000000 1.0
C      1  0.5692250000000  0.5307550000000  0.5093570000000 1.0
C      1  0.4945790000000  0.5272320000000  0.5029180000000 1.0
C      1  0.4735970000000  0.5319740000000  0.4833090000000 1.0
C      1  0.5026960000000  0.5841480000000  0.4437850000000 1.0
C      1  0.4313380000000  0.4866180000000  0.5502810000000 1.0
C      1  0.4906230000000  0.5895310000000  0.4893370000000 1.0
C      1  0.5013540000000  0.5724340000000  0.5594270000000 1.0
C      1  0.4137360000000  0.5484280000000  0.5324540000000 1.0
C      1  0.4577900000000  0.5038340000000  0.4136630000000 1.0
C      1  0.5692650000000  0.4636000000000  0.4619380000000 1.0
C      1  0.5443140000000  0.4499230000000  0.5651020000000 1.0
C      1  0.4634770000000  0.4576770000000  0.4203910000000 1.0
C      1  0.5104180000000  0.4454450000000  0.4224390000000 1.0
C      1  0.5417880000000  0.4893120000000  0.4942960000000 1.0
C      1  0.4753820000000  0.5337180000000  0.5734530000000 1.0
C      1  0.4405110000000  0.5239280000000  0.4221170000000 1.0
C      1  0.4861360000000  0.4042720000000  0.4655080000000 1.0
C      1  0.5234460000000  0.5530380000000  0.5647120000000 1.0
C      1  0.4704910000000  0.5179110000000  0.5476020000000 1.0
C      1  0.4578010000000  0.4893880000000  0.5124310000000 1.0
C      1  0.4443260000000  0.5079630000000  0.5323010000000 1.0
C      1  0.4269230000000  0.5630380000000  0.5490990000000 1.0
C      1  0.4460910000000  0.4795140000000  0.4230670000000 1.0
C      1  0.5372610000000  0.4849270000000  0.5966950000000 1.0
C      1  0.5400410000000  0.5634410000000  0.4553560000000 1.0
C      1  0.5543070000000  0.5016040000000  0.4282880000000 1.0
C      1  0.5839110000000  0.5062300000000  0.4687710000000 1.0
C      1  0.4987100000000  0.4541390000000  0.5756370000000 1.0
C      1  0.5464730000000  0.4290140000000  0.5469420000000 1.0
C      1  0.4287210000000  0.4327830000000  0.5042710000000 1.0
C      1  0.4025930000000  0.4947010000000  0.4815250000000 1.0
C      1  0.5574940000000  0.4325370000000  0.5197570000000 1.0
C      1  0.4670340000000  0.5599920000000  0.5227870000000 1.0
C      1  0.4849200000000  0.5130110000000  0.4152550000000 1.0
C      1  0.5138130000000  0.4923990000000  0.5564900000000 1.0
C      1  0.4904220000000  0.4015550000000  0.5132060000000 1.0
C      1  0.4507820000000  0.5473140000000  0.5010450000000 1.0
C      1  0.4563190000000  0.4855560000000  0.4844760000000 1.0
C      1  0.4878120000000  0.5479870000000  0.4611340000000 1.0
C      1  0.5552220000000  0.5310730000000  0.4254590000000 1.0
C      1  0.5659270000000  0.5275850000000  0.4792580000000 1.0
C      1  0.4760480000000  0.5618860000000  0.5673710000000 1.0
C      1  0.5696460000000  0.4872200000000  0.5612310000000 1.0
C      1  0.4969160000000  0.4281250000000  0.5622670000000 1.0
C      1  0.4732250000000  0.4026160000000  0.4900150000000 1.0
C      1  0.4804970000000  0.5790900000000  0.4631920000000 1.0
C      1  0.4145360000000  0.4675940000000  0.5394670000000 1.0
C      1  0.4979440000000  0.4640510000000  0.5089560000000 1.0
C      1  0.4772830000000  0.4156070000000  0.4402190000000 1.0
C      1  0.5321410000000  0.4846810000000  0.4219880000000 1.0
C      1  0.4883490000000  0.5349820000000  0.5292400000000 1.0
C      1  0.5513310000000  0.5613380000000  0.5553420000000 1.0
C      1  0.4830820000000  0.5827430000000  0.5153910000000 1.0
C      1  0.5202320000000  0.4170790000000  0.5454810000000 1.0
C      1  0.5577790000000  0.5142810000000  0.5651770000000 1.0
C      1  0.4659280000000  0.4596120000000  0.4753480000000 1.0
C      1  0.4391720000000  0.5661360000000  0.4820920000000 1.0
C      1  0.4699370000000  0.4246310000000  0.5527380000000 1.0
C      1  0.5198180000000  0.5320760000000  0.5878250000000 1.0
C      1  0.4536740000000  0.5467480000000  0.4304840000000 1.0
C      1  0.4571280000000  0.4343390000000  0.4363690000000 1.0
C      1  0.5188910000000  0.5345080000000  0.5392170000000 1.0
C      1  0.4755480000000  0.4758030000000  0.5744680000000 1.0
C      1  0.5851770000000  0.5679030000000  0.4853520000000 1.0
C      1  0.4839040000000  0.5416580000000  0.4289480000000 1.0
C      1  0.5822960000000  0.4647440000000  0.4886880000000 1.0
C      1  0.5320250000000  0.5089160000000  0.5426300000000 1.0
C      1  0.4463260000000  0.4411750000000  0.4620240000000 1.0
C      1  0.5182220000000  0.5929480000000  0.4896100000000 1.0
C      1  0.4230300000000  0.4459810000000  0.4779850000000 1.0
C      1  0.4262500000000  0.4435740000000  0.5321750000000 1.0
C      1  0.5764970000000  0.5615290000000  0.5102910000000 1.0
C      1  0.5046490000000  0.5852320000000  0.5337320000000 1.0
C      1  0.4368990000000  0.5553920000000  0.4536690000000 1.0
C      1  0.4484830000000  0.4685290000000  0.5661710000000 1.0
C      1  0.4214670000000  0.5137520000000  0.4405440000000 1.0
C      1  0.4508190000000  0.4143200000000  0.5062460000000 1.0
C      1  0.5687060000000  0.5543980000000  0.4638240000000 1.0
C      1  0.4121350000000  0.4724520000000  0.4678160000000 1.0
C      1  0.5670850000000  0.5398950000000  0.5596250000000 1.0
C      1  0.5765020000000  0.5415210000000  0.4385790000000 1.0
C      1  0.5386850000000  0.5129790000000  0.4808030000000 1.0
C      1  0.4894620000000  0.4923310000000  0.5963330000000 1.0
C      1  0.5337310000000  0.4574800000000  0.4317810000000 1.0
C      1  0.5186240000000  0.5119120000000  0.4602780000000 1.0
C      1  0.4544270000000  0.5652300000000  0.5487100000000 1.0
C      1  0.5174010000000  0.4079070000000  0.5184690000000 1.0
C      1  0.4723110000000  0.5057840000000  0.4723890000000 1.0
C      1  0.4512620000000  0.5798290000000  0.4629360000000 1.0
C      1  0.5391900000000  0.4193700000000  0.5009260000000 1.0
C      1  0.5829410000000  0.5038790000000  0.5154850000000 1.0
C      1  0.5140630000000  0.4123680000000  0.4594640000000 1.0
C      1  0.5507750000000  0.5695170000000  0.5260610000000 1.0
C      1  0.5743390000000  0.4551160000000  0.5144060000000 1.0
END
