TITL C-141430-3362-4 -133.454544276372 125000 -133.97655822005 0 0 21 (C1) n - 1
REM
REM in /rds/project/t2_vol4/rds-t2-cs072/BORA/CARBON/from-Arr/AIRSS/Generating-Clusters/GAP-ML-2020/Only-C1/SD-CG/HFTN-CG
REM
REM
REM
REM
REM
REM ./C.cell (11c1c37f851c82e70ff6c80c92926a4b)
REM AIRSS Version 0.9.1 bugfix July 2018 build 013d7b7c2542+ Fri, 06 Jul 2018 19:26:36 +0100
REM compiler GCC version 9.3.0
REM options -cpp -mtune=generic -march=x86-64 -g -O0
REM seed -1336957358 1778034385 1111298805 982824215 338140810 1521723935 -1391266745 -2003518907 -18219571 -103125929 1701950417 -8607367 -1983093566 -146992131 -776429889 933534085 339783858 -2101583205 -976885893 -220581002 1219918197 -1361318516 -1675829258 907842716 -26865790 850317845 -1826742874 1602644507 1292376382 1004417686 169146846 1985721408 1902743848
REM
CELL 1.54180   50.00000   50.00000   50.00000   90.00000   90.00000   90.00000
LATT -1
SFAC C  
C      1  0.5070350000000  0.4821190000000  0.4776550000000 1.0
C      1  0.4977970000000  0.4859180000000  0.5393950000000 1.0
C      1  0.5556710000000  0.5153880000000  0.5365770000000 1.0
C      1  0.4647080000000  0.5322650000000  0.5405490000000 1.0
C      1  0.4778640000000  0.4894260000000  0.5191200000000 1.0
C      1  0.5015130000000  0.4940770000000  0.4522740000000 1.0
C      1  0.4747850000000  0.5067240000000  0.4525610000000 1.0
C      1  0.5331080000000  0.5064550000000  0.5468220000000 1.0
C      1  0.5606490000000  0.4508090000000  0.5197690000000 1.0
C      1  0.4633730000000  0.5023390000000  0.4776340000000 1.0
C      1  0.4971670000000  0.5218060000000  0.4206610000000 1.0
C      1  0.5403470000000  0.4677340000000  0.5138320000000 1.0
C      1  0.5037080000000  0.5108840000000  0.5542840000000 1.0
C      1  0.4727080000000  0.5250350000000  0.4306130000000 1.0
C      1  0.4601370000000  0.5131220000000  0.5211360000000 1.0
C      1  0.4483930000000  0.5171550000000  0.4956240000000 1.0
C      1  0.5256890000000  0.4801870000000  0.5361470000000 1.0
C      1  0.4821280000000  0.4858050000000  0.4920030000000 1.0
C      1  0.5153750000000  0.5044810000000  0.4301590000000 1.0
C      1  0.5304460000000  0.4757430000000  0.4890290000000 1.0
C      1  0.4873990000000  0.5325280000000  0.5541570000000 1.0
END
