TITL C-142770-1136-3 50.8048492477593 125000 -1086.8626073573 0 0 153 (C1) n - 1
REM
REM in /rds/project/t2_vol4/rds-t2-cs072/BORA/CARBON/from-Arr/AIRSS/Generating-Clusters/GAP-ML-2020/Only-C1/SD-CG/HFTN-CG
REM
REM
REM
REM
REM
REM ./C.cell (11c1c37f851c82e70ff6c80c92926a4b)
REM AIRSS Version 0.9.1 bugfix July 2018 build 013d7b7c2542+ Fri, 06 Jul 2018 19:26:36 +0100
REM compiler GCC version 9.3.0
REM options -cpp -mtune=generic -march=x86-64 -g -O0
REM seed -1971322445 -806725263 -1065438663 1386761949 -1580881067 385504846 -455545083 712119590 -14444881 1956908100 400317686 1433270895 1738305493 1080005929 -767556918 940966465 -1722804577 2028172049 1380331948 1603398401 -1407001852 -638202845 -1574660500 -1597301401 1985269147 1170537468 -506064762 -201519301 932352672 -472894976 -1581255221 -1018846013 -1088337782
REM
CELL 1.54180   50.00000   50.00000   50.00000   90.00000   90.00000   90.00000
LATT -1
SFAC C  
C      1  0.5329510000000  0.4523940000000  0.4146220000000 1.0
C      1  0.4459580000000  0.4931230000000  0.5429030000000 1.0
C      1  0.4684120000000  0.4341270000000  0.5806710000000 1.0
C      1  0.4580540000000  0.4489880000000  0.4449030000000 1.0
C      1  0.5709020000000  0.4813870000000  0.4255390000000 1.0
C      1  0.4652660000000  0.5938480000000  0.4752210000000 1.0
C      1  0.5822930000000  0.4464870000000  0.4726100000000 1.0
C      1  0.4954810000000  0.4822110000000  0.5254070000000 1.0
C      1  0.5222510000000  0.4350880000000  0.5462460000000 1.0
C      1  0.4223310000000  0.5332580000000  0.5624770000000 1.0
C      1  0.5463000000000  0.4062260000000  0.4805780000000 1.0
C      1  0.5944740000000  0.4719250000000  0.4695230000000 1.0
C      1  0.5289880000000  0.4814860000000  0.5588660000000 1.0
C      1  0.5225010000000  0.4126910000000  0.4412100000000 1.0
C      1  0.5847850000000  0.4543630000000  0.5221520000000 1.0
C      1  0.4610820000000  0.4711430000000  0.5543650000000 1.0
C      1  0.4104910000000  0.4934880000000  0.5012860000000 1.0
C      1  0.4984870000000  0.5258760000000  0.5008240000000 1.0
C      1  0.4623780000000  0.4003110000000  0.4334060000000 1.0
C      1  0.4425550000000  0.5330280000000  0.5172450000000 1.0
C      1  0.5992880000000  0.4897300000000  0.4921550000000 1.0
C      1  0.5225520000000  0.4751290000000  0.5148500000000 1.0
C      1  0.5364780000000  0.5668040000000  0.5464650000000 1.0
C      1  0.5186150000000  0.4411730000000  0.5769410000000 1.0
C      1  0.4617110000000  0.5170550000000  0.5969960000000 1.0
C      1  0.4577330000000  0.5506020000000  0.4378070000000 1.0
C      1  0.5815550000000  0.5392170000000  0.5511140000000 1.0
C      1  0.4782930000000  0.5525310000000  0.5682210000000 1.0
C      1  0.5542300000000  0.5798690000000  0.4550240000000 1.0
C      1  0.5194960000000  0.3976070000000  0.4836720000000 1.0
C      1  0.5115460000000  0.5947840000000  0.4863930000000 1.0
C      1  0.4905400000000  0.5308750000000  0.4715080000000 1.0
C      1  0.4590680000000  0.4509950000000  0.5100520000000 1.0
C      1  0.4932810000000  0.4460230000000  0.5898240000000 1.0
C      1  0.5565800000000  0.4180450000000  0.5047540000000 1.0
C      1  0.4627620000000  0.5396850000000  0.4719510000000 1.0
C      1  0.5918270000000  0.5153990000000  0.4537810000000 1.0
C      1  0.4492120000000  0.4172730000000  0.5366200000000 1.0
C      1  0.5287420000000  0.5272800000000  0.5011000000000 1.0
C      1  0.4887710000000  0.4135350000000  0.5178730000000 1.0
C      1  0.5303530000000  0.5078480000000  0.6001530000000 1.0
C      1  0.5636560000000  0.4571500000000  0.5745600000000 1.0
C      1  0.4307400000000  0.5163220000000  0.4471470000000 1.0
C      1  0.5159480000000  0.4738990000000  0.4049350000000 1.0
C      1  0.5081520000000  0.4619550000000  0.4668170000000 1.0
C      1  0.5016570000000  0.4925600000000  0.5533200000000 1.0
C      1  0.5337650000000  0.5290540000000  0.4712090000000 1.0
C      1  0.4203060000000  0.4490220000000  0.4862000000000 1.0
C      1  0.5560010000000  0.5789490000000  0.4840580000000 1.0
C      1  0.4715700000000  0.5960360000000  0.5480540000000 1.0
C      1  0.5483100000000  0.4163670000000  0.4541320000000 1.0
C      1  0.4097160000000  0.5476900000000  0.4917750000000 1.0
C      1  0.5402340000000  0.5010190000000  0.5088940000000 1.0
C      1  0.4671440000000  0.4265230000000  0.4279860000000 1.0
C      1  0.4844920000000  0.5941510000000  0.4977670000000 1.0
C      1  0.5772260000000  0.4376280000000  0.5003670000000 1.0
C      1  0.4481670000000  0.5982540000000  0.5292580000000 1.0
C      1  0.5132300000000  0.5439780000000  0.4610870000000 1.0
C      1  0.5882820000000  0.5390430000000  0.4980130000000 1.0
C      1  0.5378640000000  0.4622600000000  0.5844430000000 1.0
C      1  0.5673730000000  0.4622180000000  0.5463610000000 1.0
C      1  0.5611990000000  0.5576810000000  0.5599230000000 1.0
C      1  0.5102170000000  0.4886860000000  0.4575870000000 1.0
C      1  0.5894290000000  0.4882450000000  0.4461440000000 1.0
C      1  0.4819730000000  0.4523420000000  0.4670890000000 1.0
C      1  0.4325420000000  0.4921410000000  0.4282330000000 1.0
C      1  0.5517780000000  0.5466660000000  0.5835980000000 1.0
C      1  0.5954950000000  0.4803550000000  0.5186950000000 1.0
C      1  0.4286050000000  0.4524040000000  0.5152010000000 1.0
C      1  0.4212480000000  0.4502410000000  0.5621440000000 1.0
C      1  0.5162450000000  0.4299190000000  0.4195400000000 1.0
C      1  0.4860660000000  0.5031660000000  0.4604050000000 1.0
C      1  0.4126500000000  0.5633050000000  0.5176410000000 1.0
C      1  0.4806660000000  0.5033600000000  0.5097010000000 1.0
C      1  0.5324910000000  0.5807360000000  0.4991990000000 1.0
C      1  0.4549260000000  0.4143080000000  0.4794010000000 1.0
C      1  0.5133090000000  0.4030060000000  0.5106750000000 1.0
C      1  0.5783800000000  0.5329070000000  0.5240770000000 1.0
C      1  0.5545260000000  0.5173950000000  0.5815230000000 1.0
C      1  0.4871860000000  0.5790030000000  0.5641250000000 1.0
C      1  0.5237060000000  0.4808640000000  0.6036290000000 1.0
C      1  0.4859160000000  0.5352690000000  0.5443870000000 1.0
C      1  0.5153940000000  0.5715040000000  0.5667110000000 1.0
C      1  0.5103140000000  0.5206050000000  0.5569200000000 1.0
C      1  0.4472790000000  0.4522060000000  0.5732440000000 1.0
C      1  0.5347560000000  0.5017940000000  0.4629580000000 1.0
C      1  0.3985260000000  0.4738260000000  0.4535620000000 1.0
C      1  0.4236370000000  0.5452570000000  0.5371430000000 1.0
C      1  0.5290470000000  0.4992060000000  0.4027360000000 1.0
C      1  0.4926300000000  0.4324650000000  0.5391640000000 1.0
C      1  0.5376970000000  0.5447730000000  0.4110980000000 1.0
C      1  0.4293960000000  0.5864770000000  0.5116640000000 1.0
C      1  0.4205640000000  0.5611800000000  0.4694070000000 1.0
C      1  0.4722910000000  0.5023720000000  0.4342210000000 1.0
C      1  0.4667130000000  0.4658870000000  0.4862430000000 1.0
C      1  0.5791690000000  0.4912290000000  0.5424010000000 1.0
C      1  0.5179340000000  0.5258990000000  0.4024360000000 1.0
C      1  0.4697900000000  0.5284700000000  0.4214700000000 1.0
C      1  0.5266510000000  0.4629400000000  0.4879680000000 1.0
C      1  0.4629050000000  0.5161150000000  0.5305340000000 1.0
C      1  0.4235390000000  0.5200450000000  0.4958610000000 1.0
C      1  0.4620350000000  0.4189480000000  0.5082140000000 1.0
C      1  0.4812230000000  0.5919290000000  0.4521390000000 1.0
C      1  0.4786170000000  0.5668360000000  0.5082790000000 1.0
C      1  0.4356090000000  0.5207820000000  0.5834700000000 1.0
C      1  0.5582630000000  0.4560010000000  0.4281110000000 1.0
C      1  0.5238980000000  0.5690640000000  0.4190650000000 1.0
C      1  0.4961720000000  0.5650960000000  0.4143850000000 1.0
C      1  0.5583550000000  0.5094440000000  0.5301060000000 1.0
C      1  0.5091660000000  0.5952100000000  0.4582190000000 1.0
C      1  0.5304710000000  0.5858930000000  0.4414370000000 1.0
C      1  0.4560660000000  0.5545010000000  0.4973570000000 1.0
C      1  0.5037370000000  0.4013150000000  0.4602320000000 1.0
C      1  0.4442600000000  0.5143280000000  0.4742010000000 1.0
C      1  0.4775050000000  0.4591490000000  0.5320240000000 1.0
C      1  0.5797080000000  0.5365540000000  0.4390420000000 1.0
C      1  0.4968310000000  0.5493520000000  0.5198650000000 1.0
C      1  0.5362470000000  0.4616250000000  0.5381760000000 1.0
C      1  0.5789320000000  0.5610960000000  0.4825800000000 1.0
C      1  0.4953770000000  0.4728700000000  0.6023980000000 1.0
C      1  0.4918510000000  0.5378630000000  0.4062040000000 1.0
C      1  0.4400440000000  0.5804880000000  0.4844270000000 1.0
C      1  0.4265780000000  0.4339950000000  0.5387550000000 1.0
C      1  0.4870700000000  0.4651100000000  0.4089710000000 1.0
C      1  0.4066160000000  0.4729890000000  0.4800910000000 1.0
C      1  0.4090300000000  0.4769740000000  0.4303660000000 1.0
C      1  0.5564760000000  0.5022800000000  0.4120220000000 1.0
C      1  0.5655520000000  0.4384410000000  0.4500680000000 1.0
C      1  0.4745280000000  0.4913360000000  0.5972040000000 1.0
C      1  0.5757760000000  0.5603490000000  0.4537240000000 1.0
C      1  0.5965060000000  0.5164370000000  0.4822210000000 1.0
C      1  0.5399800000000  0.5103840000000  0.5547680000000 1.0
C      1  0.4817910000000  0.5361310000000  0.5919200000000 1.0
C      1  0.4891940000000  0.4377590000000  0.4140880000000 1.0
C      1  0.4385040000000  0.4354010000000  0.4674740000000 1.0
C      1  0.5614910000000  0.5300020000000  0.4179010000000 1.0
C      1  0.4671780000000  0.4941940000000  0.4835830000000 1.0
C      1  0.4603850000000  0.4764000000000  0.4258820000000 1.0
C      1  0.5103830000000  0.5290130000000  0.5901960000000 1.0
C      1  0.4737650000000  0.4027300000000  0.4589250000000 1.0
C      1  0.4737390000000  0.6072150000000  0.5224290000000 1.0
C      1  0.5247930000000  0.5541970000000  0.5870450000000 1.0
C      1  0.4297100000000  0.5463700000000  0.4456920000000 1.0
C      1  0.5453120000000  0.4858720000000  0.4837920000000 1.0
C      1  0.4700130000000  0.4208250000000  0.5558110000000 1.0
C      1  0.4752310000000  0.5736710000000  0.4314050000000 1.0
C      1  0.4785580000000  0.4870150000000  0.5695080000000 1.0
C      1  0.4199150000000  0.4793030000000  0.5255530000000 1.0
C      1  0.5268990000000  0.5585100000000  0.5191890000000 1.0
C      1  0.5349650000000  0.4154440000000  0.5249230000000 1.0
C      1  0.4108070000000  0.4767990000000  0.5546860000000 1.0
C      1  0.5804120000000  0.5134410000000  0.5656320000000 1.0
C      1  0.4252840000000  0.5018410000000  0.5638960000000 1.0
END
