TITL C-141433-3410-2 790.063619145051 125000 -1012.79062607322 0 0 146 (C1) n - 1
REM
REM in /rds/project/t2_vol4/rds-t2-cs072/BORA/CARBON/from-Arr/AIRSS/Generating-Clusters/GAP-ML-2020/Only-C1/SD-CG/HFTN-CG
REM
REM
REM
REM
REM
REM ./C.cell (11c1c37f851c82e70ff6c80c92926a4b)
REM AIRSS Version 0.9.1 bugfix July 2018 build 013d7b7c2542+ Fri, 06 Jul 2018 19:26:36 +0100
REM compiler GCC version 9.3.0
REM options -cpp -mtune=generic -march=x86-64 -g -O0
REM seed -1177432285 3285428 -952225215 -1031175524 1748080116 -1952406831 435398681 -1921051615 1144526778 -2103237949 -1812455171 435449499 -317847237 1886640277 2069971323 -236821745 -306958261 1665731724 498236400 984676677 -1034331655 691615669 1838372320 -738789002 -1041873554 747347135 -229761859 1197425179 2052588537 -1519171681 659492596 -402676104 1819649734
REM
CELL 1.54180   50.00000   50.00000   50.00000   90.00000   90.00000   90.00000
LATT -1
SFAC C  
C      1  0.5976200000000  0.4775490000000  0.5175660000000 1.0
C      1  0.5419210000000  0.5919820000000  0.4452650000000 1.0
C      1  0.5890500000000  0.4822580000000  0.4671960000000 1.0
C      1  0.4701010000000  0.4120650000000  0.4471110000000 1.0
C      1  0.4890820000000  0.4128020000000  0.4905470000000 1.0
C      1  0.4700110000000  0.5576140000000  0.4459870000000 1.0
C      1  0.5272700000000  0.4291270000000  0.4343530000000 1.0
C      1  0.5598800000000  0.4222960000000  0.5017320000000 1.0
C      1  0.4355790000000  0.4631670000000  0.5148440000000 1.0
C      1  0.5024740000000  0.5107810000000  0.4371620000000 1.0
C      1  0.5594080000000  0.5077700000000  0.5166630000000 1.0
C      1  0.4652340000000  0.4356980000000  0.5783330000000 1.0
C      1  0.5687030000000  0.5203930000000  0.4381210000000 1.0
C      1  0.5972360000000  0.5213970000000  0.4973550000000 1.0
C      1  0.4503280000000  0.4576910000000  0.4701800000000 1.0
C      1  0.5113920000000  0.4870830000000  0.5743480000000 1.0
C      1  0.5519710000000  0.4297700000000  0.5464720000000 1.0
C      1  0.4330980000000  0.4998050000000  0.4756870000000 1.0
C      1  0.5518070000000  0.4539440000000  0.5615090000000 1.0
C      1  0.5331490000000  0.5068780000000  0.4028370000000 1.0
C      1  0.3930470000000  0.4817280000000  0.4895660000000 1.0
C      1  0.4563370000000  0.5458460000000  0.4988810000000 1.0
C      1  0.5439020000000  0.4764890000000  0.4468290000000 1.0
C      1  0.4720170000000  0.4587340000000  0.5958170000000 1.0
C      1  0.4803210000000  0.4649250000000  0.5360380000000 1.0
C      1  0.5040330000000  0.4392160000000  0.4214460000000 1.0
C      1  0.4315260000000  0.4355550000000  0.4791750000000 1.0
C      1  0.5714470000000  0.4746240000000  0.5637020000000 1.0
C      1  0.5030240000000  0.4126500000000  0.5479930000000 1.0
C      1  0.5731770000000  0.5205510000000  0.5711330000000 1.0
C      1  0.5400480000000  0.5170500000000  0.5343350000000 1.0
C      1  0.4559260000000  0.4809280000000  0.6000160000000 1.0
C      1  0.4200580000000  0.5454300000000  0.4712270000000 1.0
C      1  0.5170990000000  0.4136960000000  0.4843800000000 1.0
C      1  0.5755870000000  0.4405600000000  0.4400210000000 1.0
C      1  0.4968990000000  0.6067700000000  0.5330300000000 1.0
C      1  0.4411500000000  0.4645220000000  0.4420290000000 1.0
C      1  0.3907050000000  0.5196800000000  0.5284330000000 1.0
C      1  0.4422520000000  0.4377370000000  0.5617570000000 1.0
C      1  0.4283970000000  0.4789110000000  0.5383610000000 1.0
C      1  0.4513260000000  0.5207650000000  0.4191620000000 1.0
C      1  0.4744450000000  0.5593000000000  0.5465050000000 1.0
C      1  0.4368410000000  0.5640450000000  0.4835820000000 1.0
C      1  0.4812430000000  0.4387820000000  0.4997070000000 1.0
C      1  0.4575980000000  0.5111110000000  0.5982890000000 1.0
C      1  0.5189150000000  0.5531540000000  0.4593140000000 1.0
C      1  0.5513590000000  0.5395220000000  0.5722020000000 1.0
C      1  0.5137350000000  0.5502260000000  0.4138490000000 1.0
C      1  0.4326780000000  0.5096970000000  0.5843420000000 1.0
C      1  0.5536610000000  0.4383060000000  0.4236920000000 1.0
C      1  0.5044950000000  0.4684710000000  0.4166120000000 1.0
C      1  0.5234050000000  0.4613310000000  0.5609280000000 1.0
C      1  0.4216930000000  0.4855520000000  0.4408730000000 1.0
C      1  0.4770760000000  0.4316500000000  0.4288440000000 1.0
C      1  0.4537170000000  0.5868340000000  0.4790270000000 1.0
C      1  0.5650610000000  0.5818540000000  0.5157560000000 1.0
C      1  0.5693720000000  0.4945790000000  0.4504570000000 1.0
C      1  0.4479760000000  0.5473790000000  0.4293060000000 1.0
C      1  0.4723340000000  0.5333600000000  0.5873760000000 1.0
C      1  0.5195280000000  0.5937950000000  0.4907520000000 1.0
C      1  0.5525640000000  0.5250050000000  0.4146060000000 1.0
C      1  0.4667690000000  0.4044230000000  0.4737130000000 1.0
C      1  0.5852670000000  0.4515770000000  0.4621890000000 1.0
C      1  0.5459900000000  0.5443990000000  0.5434400000000 1.0
C      1  0.5243450000000  0.4766940000000  0.5161590000000 1.0
C      1  0.4766700000000  0.4782030000000  0.4180920000000 1.0
C      1  0.5147950000000  0.5645710000000  0.4860650000000 1.0
C      1  0.5754980000000  0.4590010000000  0.5122840000000 1.0
C      1  0.5539810000000  0.5200030000000  0.4917400000000 1.0
C      1  0.5053490000000  0.5492890000000  0.5081210000000 1.0
C      1  0.4989170000000  0.4647900000000  0.5932840000000 1.0
C      1  0.4051630000000  0.5285860000000  0.5473550000000 1.0
C      1  0.5155040000000  0.5051550000000  0.5259050000000 1.0
C      1  0.5292270000000  0.5112940000000  0.4810680000000 1.0
C      1  0.4884940000000  0.5857670000000  0.5513810000000 1.0
C      1  0.5761760000000  0.5395050000000  0.4822730000000 1.0
C      1  0.5923240000000  0.4859900000000  0.5454300000000 1.0
C      1  0.4421740000000  0.5058830000000  0.5383860000000 1.0
C      1  0.5411640000000  0.4570820000000  0.4708280000000 1.0
C      1  0.4625020000000  0.4464270000000  0.5216580000000 1.0
C      1  0.5700650000000  0.5442950000000  0.4540480000000 1.0
C      1  0.5335730000000  0.5023640000000  0.5864840000000 1.0
C      1  0.5410400000000  0.5508130000000  0.4180320000000 1.0
C      1  0.4606060000000  0.4559310000000  0.4235090000000 1.0
C      1  0.4454130000000  0.4787780000000  0.4924360000000 1.0
C      1  0.4980750000000  0.5388160000000  0.5534220000000 1.0
C      1  0.4979650000000  0.4775100000000  0.4716030000000 1.0
C      1  0.5123970000000  0.4830590000000  0.4435520000000 1.0
C      1  0.4287920000000  0.4637370000000  0.5625580000000 1.0
C      1  0.5713140000000  0.5528760000000  0.5283050000000 1.0
C      1  0.4757870000000  0.5607560000000  0.5151250000000 1.0
C      1  0.5210870000000  0.6017170000000  0.4599940000000 1.0
C      1  0.5166760000000  0.5798530000000  0.5512460000000 1.0
C      1  0.5093240000000  0.4592870000000  0.5337960000000 1.0
C      1  0.4087120000000  0.4864000000000  0.4654670000000 1.0
C      1  0.5532690000000  0.4790140000000  0.5182430000000 1.0
C      1  0.5010770000000  0.5388350000000  0.5826120000000 1.0
C      1  0.4839110000000  0.5030700000000  0.4838110000000 1.0
C      1  0.5489410000000  0.4655770000000  0.4195140000000 1.0
C      1  0.3964660000000  0.5081010000000  0.5029260000000 1.0
C      1  0.5409570000000  0.5968710000000  0.5132750000000 1.0
C      1  0.5300620000000  0.4788830000000  0.4031990000000 1.0
C      1  0.4721790000000  0.4930470000000  0.5359850000000 1.0
C      1  0.5067890000000  0.5193890000000  0.5000510000000 1.0
C      1  0.5340170000000  0.4124570000000  0.5068680000000 1.0
C      1  0.5673820000000  0.4463680000000  0.4852880000000 1.0
C      1  0.4728320000000  0.5051930000000  0.4334600000000 1.0
C      1  0.4652760000000  0.4971680000000  0.5051500000000 1.0
C      1  0.4695760000000  0.5860700000000  0.4553690000000 1.0
C      1  0.4446860000000  0.5203020000000  0.5103810000000 1.0
C      1  0.5261850000000  0.6027870000000  0.5370170000000 1.0
C      1  0.4710760000000  0.5884460000000  0.5010370000000 1.0
C      1  0.4243360000000  0.5379210000000  0.4432340000000 1.0
C      1  0.4314860000000  0.4809480000000  0.5845570000000 1.0
C      1  0.5874580000000  0.5277790000000  0.5252380000000 1.0
C      1  0.4624260000000  0.5109530000000  0.4637480000000 1.0
C      1  0.5098060000000  0.4428970000000  0.5798820000000 1.0
C      1  0.4160960000000  0.4422710000000  0.5040710000000 1.0
C      1  0.4413620000000  0.4107370000000  0.4882100000000 1.0
C      1  0.6002230000000  0.4933120000000  0.4927010000000 1.0
C      1  0.5192530000000  0.5246840000000  0.4577420000000 1.0
C      1  0.5104560000000  0.5219810000000  0.4105490000000 1.0
C      1  0.5916040000000  0.5142980000000  0.5502140000000 1.0
C      1  0.4325620000000  0.5257550000000  0.5601530000000 1.0
C      1  0.5278920000000  0.4155660000000  0.5358650000000 1.0
C      1  0.4796740000000  0.4547070000000  0.4758600000000 1.0
C      1  0.4260250000000  0.5120570000000  0.4295590000000 1.0
C      1  0.5476980000000  0.5633010000000  0.4441480000000 1.0
C      1  0.4992190000000  0.5627290000000  0.4376810000000 1.0
C      1  0.4468600000000  0.4251440000000  0.5363990000000 1.0
C      1  0.4963170000000  0.5063880000000  0.5482080000000 1.0
C      1  0.5699850000000  0.4332440000000  0.5258010000000 1.0
C      1  0.5278960000000  0.4302850000000  0.4626360000000 1.0
C      1  0.4203120000000  0.5208260000000  0.4909580000000 1.0
C      1  0.5240440000000  0.4772220000000  0.4862390000000 1.0
C      1  0.5190670000000  0.5534510000000  0.5371800000000 1.0
C      1  0.3912750000000  0.4564600000000  0.5009770000000 1.0
C      1  0.5612340000000  0.4965220000000  0.5795460000000 1.0
C      1  0.4559520000000  0.5452530000000  0.5658200000000 1.0
C      1  0.5283450000000  0.5301130000000  0.5870110000000 1.0
C      1  0.4293920000000  0.4168110000000  0.5145570000000 1.0
C      1  0.4909750000000  0.4243080000000  0.5698530000000 1.0
C      1  0.4938310000000  0.6037370000000  0.5051460000000 1.0
C      1  0.4668540000000  0.5387740000000  0.4708420000000 1.0
C      1  0.4966680000000  0.5909670000000  0.4479860000000 1.0
C      1  0.5763140000000  0.5618030000000  0.5016740000000 1.0
END
