TITL C-144798-3169-6 0.0187616634223362 125000 -205.789703383748 0 0 30 (C1) n - 1
REM
REM in /rds/project/t2_vol4/rds-t2-cs072/BORA/CARBON/from-Arr/AIRSS/Generating-Clusters/GAP-ML-2020/Only-C1/SD-CG/HFTN-CG
REM
REM
REM
REM
REM
REM ./C.cell (11c1c37f851c82e70ff6c80c92926a4b)
REM AIRSS Version 0.9.1 bugfix July 2018 build 013d7b7c2542+ Fri, 06 Jul 2018 19:26:36 +0100
REM compiler GCC version 9.3.0
REM options -cpp -mtune=generic -march=x86-64 -g -O0
REM seed 1125620974 1655275599 -290939693 -382532920 1974322196 -58942561 -1189373461 1230023989 1797608067 1339605191 1019080963 1733256311 -999551982 1289294224 -271848576 -1274868762 1830069301 1558162507 986424465 1882724711 1329766516 -1453321506 1203731742 -777713098 393368170 1587265597 -1310894647 1238798627 -592255517 -1099623550 -149854956 -487757665 -477396826
REM
CELL 1.54180   50.00000   50.00000   50.00000   90.00000   90.00000   90.00000
LATT -1
SFAC C  
C      1  0.4685980000000  0.4675730000000  0.5349150000000 1.0
C      1  0.4474950000000  0.5022800000000  0.5124200000000 1.0
C      1  0.4647230000000  0.4817990000000  0.4743730000000 1.0
C      1  0.4780680000000  0.5300820000000  0.4890170000000 1.0
C      1  0.5240210000000  0.4647290000000  0.4855100000000 1.0
C      1  0.5243850000000  0.4747230000000  0.5318520000000 1.0
C      1  0.5458930000000  0.4844200000000  0.4908530000000 1.0
C      1  0.5454990000000  0.4909150000000  0.5186400000000 1.0
C      1  0.5415250000000  0.5059420000000  0.4716920000000 1.0
C      1  0.5376630000000  0.5391930000000  0.5065010000000 1.0
C      1  0.4617840000000  0.4617090000000  0.4946300000000 1.0
C      1  0.4832650000000  0.4540600000000  0.5134370000000 1.0
C      1  0.5119090000000  0.4722830000000  0.4602410000000 1.0
C      1  0.4473280000000  0.4743670000000  0.5165050000000 1.0
C      1  0.5249900000000  0.4960840000000  0.4512290000000 1.0
C      1  0.4836380000000  0.4791350000000  0.4541110000000 1.0
C      1  0.5011860000000  0.5319920000000  0.4707900000000 1.0
C      1  0.5045300000000  0.5423460000000  0.5315950000000 1.0
C      1  0.5198530000000  0.5199590000000  0.5437210000000 1.0
C      1  0.4649850000000  0.5145650000000  0.5320030000000 1.0
C      1  0.4577170000000  0.5084970000000  0.4860440000000 1.0
C      1  0.5081080000000  0.4939680000000  0.5469510000000 1.0
C      1  0.5295160000000  0.5308730000000  0.4807520000000 1.0
C      1  0.5429840000000  0.5179460000000  0.5266420000000 1.0
C      1  0.5111980000000  0.4584600000000  0.5107480000000 1.0
C      1  0.5028150000000  0.5153800000000  0.4471270000000 1.0
C      1  0.5226970000000  0.5587820000000  0.5190540000000 1.0
C      1  0.4795650000000  0.4922210000000  0.5451800000000 1.0
C      1  0.4836800000000  0.5007440000000  0.4353440000000 1.0
C      1  0.4803820000000  0.5349740000000  0.5181250000000 1.0
END
