TITL C-144792-3172-1 -5.88652905403882 125000 -191.927956941738 0 0 30 (C1) n - 1
REM
REM in /rds/project/t2_vol4/rds-t2-cs072/BORA/CARBON/from-Arr/AIRSS/Generating-Clusters/GAP-ML-2020/Only-C1/SD-CG/HFTN-CG
REM
REM
REM
REM
REM
REM ./C.cell (11c1c37f851c82e70ff6c80c92926a4b)
REM AIRSS Version 0.9.1 bugfix July 2018 build 013d7b7c2542+ Fri, 06 Jul 2018 19:26:36 +0100
REM compiler GCC version 9.3.0
REM options -cpp -mtune=generic -march=x86-64 -g -O0
REM seed -282877353 -699517802 2124118248 -1157952616 802194784 1581563949 1508286657 1847568474 -635213929 2076807993 -564802674 -1954612423 460277539 -94216106 -1334365690 438804474 2144438026 -905459466 1596057198 498431044 -187983849 -231332336 869271748 335304029 1336207981 937328912 816596681 1335188478 -798952290 1436824761 1036599419 2111475757 -1977563876
REM
CELL 1.54180   50.00000   50.00000   50.00000   90.00000   90.00000   90.00000
LATT -1
SFAC C  
C      1  0.5386850000000  0.5216850000000  0.5119000000000 1.0
C      1  0.5113430000000  0.4536580000000  0.4890430000000 1.0
C      1  0.4936300000000  0.5197290000000  0.4985770000000 1.0
C      1  0.5024280000000  0.5484900000000  0.4522530000000 1.0
C      1  0.5259090000000  0.5211610000000  0.5359130000000 1.0
C      1  0.5204640000000  0.5278330000000  0.4894090000000 1.0
C      1  0.4916860000000  0.5226430000000  0.4504210000000 1.0
C      1  0.4580710000000  0.5480140000000  0.5074340000000 1.0
C      1  0.4753100000000  0.5294420000000  0.5196840000000 1.0
C      1  0.5624020000000  0.5084920000000  0.5082420000000 1.0
C      1  0.4557310000000  0.4932170000000  0.5092770000000 1.0
C      1  0.4522380000000  0.4720160000000  0.4755870000000 1.0
C      1  0.5167890000000  0.5518710000000  0.4732300000000 1.0
C      1  0.5123220000000  0.4985160000000  0.5424660000000 1.0
C      1  0.4890000000000  0.4615640000000  0.5094880000000 1.0
C      1  0.4846210000000  0.4899810000000  0.5450800000000 1.0
C      1  0.4749710000000  0.5197250000000  0.4746380000000 1.0
C      1  0.5505900000000  0.4832670000000  0.5071340000000 1.0
C      1  0.5170450000000  0.4321930000000  0.4748520000000 1.0
C      1  0.4581690000000  0.5444190000000  0.4821260000000 1.0
C      1  0.5254050000000  0.4815900000000  0.4913850000000 1.0
C      1  0.5120390000000  0.5041130000000  0.4464160000000 1.0
C      1  0.4612950000000  0.4661130000000  0.5019770000000 1.0
C      1  0.5035960000000  0.4930770000000  0.5096460000000 1.0
C      1  0.4662310000000  0.5054340000000  0.5315440000000 1.0
C      1  0.4559660000000  0.4991050000000  0.4802970000000 1.0
C      1  0.5227940000000  0.5025990000000  0.4710050000000 1.0
C      1  0.5458260000000  0.4676180000000  0.5309060000000 1.0
C      1  0.5222370000000  0.4702920000000  0.5415820000000 1.0
C      1  0.4932070000000  0.4621420000000  0.5384900000000 1.0
END
