TITL C-142174-2801-7 0.0750548546314635 125000 -289.034434290539 0 0 44 (C1) n - 1
REM
REM in /rds/project/t2_vol4/rds-t2-cs072/BORA/CARBON/from-Arr/AIRSS/Generating-Clusters/GAP-ML-2020/Only-C1/SD-CG/HFTN-CG
REM
REM
REM
REM
REM
REM ./C.cell (11c1c37f851c82e70ff6c80c92926a4b)
REM AIRSS Version 0.9.1 bugfix July 2018 build 013d7b7c2542+ Fri, 06 Jul 2018 19:26:36 +0100
REM compiler GCC version 9.3.0
REM options -cpp -mtune=generic -march=x86-64 -g -O0
REM seed 760835685 102319638 133059765 1880510764 451535198 -1477657289 1132402554 -1761724161 -345273341 -2039848446 -129440741 -833440305 1670127181 -1148748078 -992727289 1344888785 517800252 -1600006861 -1945605457 1016176657 -155233775 1624437997 1820111522 -574380818 -1715938220 -101664071 -1316165773 1865776822 -293284858 -1089186991 -1590178069 429215894 -1065397541
REM
CELL 1.54180   50.00000   50.00000   50.00000   90.00000   90.00000   90.00000
LATT -1
SFAC C  
C      1  0.4866690000000  0.5451240000000  0.4939590000000 1.0
C      1  0.5048530000000  0.5621380000000  0.5071190000000 1.0
C      1  0.5437770000000  0.4958730000000  0.4877190000000 1.0
C      1  0.5157020000000  0.4861660000000  0.4842420000000 1.0
C      1  0.5283470000000  0.5369810000000  0.4761350000000 1.0
C      1  0.5425610000000  0.5142430000000  0.4659630000000 1.0
C      1  0.5077020000000  0.4654900000000  0.5534980000000 1.0
C      1  0.5203010000000  0.5134470000000  0.5512510000000 1.0
C      1  0.4707360000000  0.5290920000000  0.5103910000000 1.0
C      1  0.5451310000000  0.5004630000000  0.5150970000000 1.0
C      1  0.4549620000000  0.4915680000000  0.5367050000000 1.0
C      1  0.5609360000000  0.5111050000000  0.5366890000000 1.0
C      1  0.4678050000000  0.5367220000000  0.5385420000000 1.0
C      1  0.4876830000000  0.5531840000000  0.5500560000000 1.0
C      1  0.4586310000000  0.4665800000000  0.5477200000000 1.0
C      1  0.5521530000000  0.4851940000000  0.5398320000000 1.0
C      1  0.4948750000000  0.4497180000000  0.4577580000000 1.0
C      1  0.5436520000000  0.5309210000000  0.5482640000000 1.0
C      1  0.4717420000000  0.4305250000000  0.4972030000000 1.0
C      1  0.4633250000000  0.4713270000000  0.4655080000000 1.0
C      1  0.4523760000000  0.5158820000000  0.5488150000000 1.0
C      1  0.5318030000000  0.5518710000000  0.5011270000000 1.0
C      1  0.4609290000000  0.5267890000000  0.4450410000000 1.0
C      1  0.5003310000000  0.4873250000000  0.5097210000000 1.0
C      1  0.5259500000000  0.4844380000000  0.5553340000000 1.0
C      1  0.4383550000000  0.5110940000000  0.4713610000000 1.0
C      1  0.4551030000000  0.4921360000000  0.4829880000000 1.0
C      1  0.4698610000000  0.4984400000000  0.5077350000000 1.0
C      1  0.5387200000000  0.4513180000000  0.4591990000000 1.0
C      1  0.5161020000000  0.4560220000000  0.4770660000000 1.0
C      1  0.4837250000000  0.4553030000000  0.5438020000000 1.0
C      1  0.5294840000000  0.4980280000000  0.4445770000000 1.0
C      1  0.5361220000000  0.5517840000000  0.5307450000000 1.0
C      1  0.5008420000000  0.4981930000000  0.4416340000000 1.0
C      1  0.4850250000000  0.4748110000000  0.4466600000000 1.0
C      1  0.4348790000000  0.5272070000000  0.4504650000000 1.0
C      1  0.5170870000000  0.5088830000000  0.5218080000000 1.0
C      1  0.4874710000000  0.5223300000000  0.4492620000000 1.0
C      1  0.5000470000000  0.5364320000000  0.4706020000000 1.0
C      1  0.5084610000000  0.4571920000000  0.5075000000000 1.0
C      1  0.5393450000000  0.4725570000000  0.4451560000000 1.0
C      1  0.4701310000000  0.4439960000000  0.4733150000000 1.0
C      1  0.4879760000000  0.4408750000000  0.5173420000000 1.0
C      1  0.5083340000000  0.5612320000000  0.5350950000000 1.0
END
