TITL C-149871-9033-9 -33.6245096049224 125000 -499.300055845232 0 0 73 (C1) n - 1
REM
REM in /rds/project/t2_vol4/rds-t2-cs072/BORA/CARBON/from-Arr/AIRSS/Generating-Clusters/GAP-ML-2020/Only-C1/SD-CG/HFTN-CG
REM
REM
REM
REM
REM
REM ./C.cell (11c1c37f851c82e70ff6c80c92926a4b)
REM AIRSS Version 0.9.1 bugfix July 2018 build 013d7b7c2542+ Fri, 06 Jul 2018 19:26:36 +0100
REM compiler GCC version 9.3.0
REM options -cpp -mtune=generic -march=x86-64 -g -O0
REM seed 622519061 -908616617 -1035804614 653325110 -1030521683 -41358724 522479228 -544602817 -1597348998 588432304 -2029865700 -987150609 -1488260510 1615778193 -1468857641 1983212803 351426766 1356333061 -561689 -268714435 1573554626 530727617 -1150913765 -1229448457 -488188541 -1791540335 189009505 1916789295 2112716940 153953605 -335920893 1131252979 1782259306
REM
CELL 1.54180   50.00000   50.00000   50.00000   90.00000   90.00000   90.00000
LATT -1
SFAC C  
C      1  0.4520490000000  0.4759460000000  0.5450610000000 1.0
C      1  0.5290430000000  0.4588890000000  0.4560010000000 1.0
C      1  0.5522710000000  0.5460900000000  0.4456140000000 1.0
C      1  0.5741660000000  0.4762330000000  0.4804050000000 1.0
C      1  0.4925240000000  0.5183410000000  0.5553960000000 1.0
C      1  0.5261400000000  0.5558170000000  0.4369060000000 1.0
C      1  0.4952550000000  0.4361970000000  0.5480900000000 1.0
C      1  0.5162880000000  0.5537830000000  0.5356320000000 1.0
C      1  0.4401610000000  0.4609900000000  0.4851590000000 1.0
C      1  0.4661210000000  0.5274650000000  0.5542110000000 1.0
C      1  0.5236730000000  0.5179950000000  0.4224460000000 1.0
C      1  0.5231180000000  0.5127890000000  0.4671320000000 1.0
C      1  0.5218480000000  0.5430790000000  0.4115070000000 1.0
C      1  0.4694890000000  0.5677580000000  0.4835490000000 1.0
C      1  0.5178560000000  0.5380930000000  0.4808450000000 1.0
C      1  0.4844690000000  0.4425630000000  0.4674600000000 1.0
C      1  0.5747980000000  0.4681630000000  0.5072980000000 1.0
C      1  0.4894220000000  0.5663750000000  0.5324030000000 1.0
C      1  0.5088710000000  0.5567890000000  0.4587150000000 1.0
C      1  0.4284980000000  0.5084470000000  0.4728160000000 1.0
C      1  0.4723830000000  0.4656210000000  0.5265470000000 1.0
C      1  0.5676420000000  0.4891100000000  0.5253280000000 1.0
C      1  0.5365550000000  0.5019430000000  0.5628700000000 1.0
C      1  0.4425560000000  0.5326390000000  0.4686460000000 1.0
C      1  0.4756210000000  0.5099620000000  0.5008800000000 1.0
C      1  0.4477970000000  0.5149760000000  0.5148150000000 1.0
C      1  0.5369180000000  0.4566300000000  0.5424630000000 1.0
C      1  0.4809400000000  0.5560570000000  0.4595750000000 1.0
C      1  0.4458420000000  0.5444660000000  0.5168790000000 1.0
C      1  0.5079360000000  0.4729170000000  0.4416540000000 1.0
C      1  0.5555420000000  0.4704020000000  0.4576820000000 1.0
C      1  0.4251920000000  0.4702710000000  0.5341130000000 1.0
C      1  0.5185820000000  0.4994100000000  0.5192970000000 1.0
C      1  0.5761890000000  0.5041000000000  0.4740410000000 1.0
C      1  0.5449720000000  0.5433570000000  0.4952680000000 1.0
C      1  0.5079410000000  0.4987000000000  0.5690680000000 1.0
C      1  0.5123180000000  0.4447820000000  0.4785790000000 1.0
C      1  0.5170120000000  0.4496460000000  0.5604350000000 1.0
C      1  0.5596810000000  0.5342990000000  0.5382540000000 1.0
C      1  0.4160280000000  0.4984300000000  0.5405810000000 1.0
C      1  0.4626770000000  0.4833360000000  0.4481800000000 1.0
C      1  0.4237750000000  0.4625540000000  0.5076000000000 1.0
C      1  0.4997300000000  0.4719960000000  0.5703080000000 1.0
C      1  0.4460350000000  0.5532000000000  0.4893470000000 1.0
C      1  0.4709500000000  0.4390840000000  0.5117690000000 1.0
C      1  0.5181070000000  0.4301660000000  0.5041570000000 1.0
C      1  0.5726130000000  0.5162390000000  0.5198090000000 1.0
C      1  0.4951140000000  0.4267530000000  0.5208740000000 1.0
C      1  0.5416570000000  0.4385030000000  0.5201910000000 1.0
C      1  0.4825840000000  0.4626130000000  0.4476090000000 1.0
C      1  0.5674780000000  0.5242280000000  0.4928210000000 1.0
C      1  0.4777440000000  0.4591120000000  0.5558550000000 1.0
C      1  0.4654280000000  0.5516480000000  0.5379250000000 1.0
C      1  0.5270040000000  0.4943880000000  0.4902170000000 1.0
C      1  0.5049730000000  0.5029660000000  0.4402500000000 1.0
C      1  0.5074020000000  0.5260410000000  0.5295430000000 1.0
C      1  0.4900440000000  0.4865330000000  0.5100150000000 1.0
C      1  0.5670380000000  0.4421870000000  0.5115820000000 1.0
C      1  0.5518980000000  0.5237820000000  0.5626360000000 1.0
C      1  0.5409030000000  0.4852500000000  0.5377960000000 1.0
C      1  0.4755310000000  0.5078630000000  0.4420090000000 1.0
C      1  0.5417290000000  0.5513970000000  0.5232110000000 1.0
C      1  0.5642010000000  0.4966780000000  0.4481970000000 1.0
C      1  0.5464580000000  0.5177620000000  0.4437080000000 1.0
C      1  0.4951840000000  0.5333710000000  0.5023510000000 1.0
C      1  0.4462570000000  0.5059220000000  0.5442640000000 1.0
C      1  0.4204200000000  0.5106580000000  0.4995570000000 1.0
C      1  0.4627570000000  0.4419750000000  0.4852580000000 1.0
C      1  0.5057820000000  0.4749580000000  0.4885470000000 1.0
C      1  0.4016180000000  0.5084190000000  0.5194550000000 1.0
C      1  0.4648130000000  0.5332800000000  0.4510040000000 1.0
C      1  0.4878560000000  0.5646060000000  0.5046250000000 1.0
C      1  0.4405330000000  0.4830150000000  0.4657130000000 1.0
END
