TITL C-140205-7080-7 0.0597525927753725 125000 -335.521174445131 0 0 49 (C1) n - 1
REM
REM in /rds/project/t2_vol4/rds-t2-cs072/BORA/CARBON/from-Arr/AIRSS/Generating-Clusters/GAP-ML-2020/Only-C1/SD-CG/HFTN-CG
REM
REM
REM
REM
REM
REM ./C.cell (11c1c37f851c82e70ff6c80c92926a4b)
REM AIRSS Version 0.9.1 bugfix July 2018 build 013d7b7c2542+ Fri, 06 Jul 2018 19:26:36 +0100
REM compiler GCC version 9.3.0
REM options -cpp -mtune=generic -march=x86-64 -g -O0
REM seed 619199567 1237296267 209512037 163410224 -1866272934 -2043453106 -1263194379 -1768074432 289698911 1008339881 546590141 1675409880 2086407227 -2063062380 555429807 -1198533514 1684970383 -972197045 112149732 1283664567 -1787424571 -1516754443 809104068 1078618058 1301595340 932739307 1069620268 1543948034 -145215824 1469739259 -382096633 824198057 -683977917
REM
CELL 1.54180   50.00000   50.00000   50.00000   90.00000   90.00000   90.00000
LATT -1
SFAC C  
C      1  0.5108320000000  0.5320310000000  0.5552810000000 1.0
C      1  0.4689890000000  0.5069890000000  0.4393200000000 1.0
C      1  0.4838130000000  0.5324830000000  0.5466040000000 1.0
C      1  0.4570160000000  0.5259910000000  0.5091700000000 1.0
C      1  0.4970640000000  0.5082460000000  0.4329830000000 1.0
C      1  0.4895770000000  0.4685680000000  0.5015020000000 1.0
C      1  0.4890280000000  0.4659830000000  0.4467710000000 1.0
C      1  0.4641950000000  0.5277690000000  0.4588790000000 1.0
C      1  0.5570800000000  0.5442600000000  0.5475030000000 1.0
C      1  0.5248370000000  0.5559170000000  0.5166170000000 1.0
C      1  0.5128720000000  0.4395500000000  0.4724370000000 1.0
C      1  0.4689490000000  0.5083300000000  0.5497240000000 1.0
C      1  0.5072630000000  0.4497410000000  0.5211040000000 1.0
C      1  0.4792910000000  0.4846800000000  0.5619930000000 1.0
C      1  0.4560860000000  0.5024970000000  0.5257620000000 1.0
C      1  0.5486190000000  0.5430520000000  0.5021260000000 1.0
C      1  0.4432170000000  0.4608860000000  0.4985970000000 1.0
C      1  0.5344460000000  0.4556020000000  0.5125070000000 1.0
C      1  0.4923220000000  0.4421540000000  0.5428530000000 1.0
C      1  0.4883110000000  0.5447270000000  0.4611440000000 1.0
C      1  0.5544590000000  0.4937840000000  0.4930730000000 1.0
C      1  0.5694250000000  0.5402980000000  0.5225940000000 1.0
C      1  0.5349920000000  0.5178670000000  0.4579780000000 1.0
C      1  0.5290100000000  0.5496520000000  0.5437040000000 1.0
C      1  0.4764430000000  0.5441100000000  0.5214820000000 1.0
C      1  0.4869810000000  0.4513610000000  0.4729250000000 1.0
C      1  0.5091120000000  0.5113810000000  0.5110070000000 1.0
C      1  0.5486500000000  0.5215400000000  0.4834260000000 1.0
C      1  0.5102160000000  0.5292190000000  0.4469630000000 1.0
C      1  0.5100610000000  0.4832460000000  0.4383260000000 1.0
C      1  0.5667470000000  0.5185640000000  0.5430030000000 1.0
C      1  0.4615800000000  0.4734040000000  0.5177830000000 1.0
C      1  0.4473430000000  0.5227570000000  0.4819940000000 1.0
C      1  0.5467050000000  0.4976820000000  0.5421620000000 1.0
C      1  0.5047210000000  0.4886590000000  0.5717270000000 1.0
C      1  0.5477540000000  0.4809410000000  0.5187710000000 1.0
C      1  0.4973330000000  0.5597540000000  0.5073150000000 1.0
C      1  0.5051750000000  0.4918830000000  0.4952070000000 1.0
C      1  0.4287790000000  0.4792890000000  0.4798840000000 1.0
C      1  0.4562070000000  0.4473250000000  0.4755490000000 1.0
C      1  0.5338610000000  0.4525160000000  0.4837810000000 1.0
C      1  0.5222200000000  0.5047970000000  0.5587070000000 1.0
C      1  0.5347430000000  0.4895490000000  0.4515450000000 1.0
C      1  0.5469840000000  0.4754720000000  0.4727250000000 1.0
C      1  0.4428450000000  0.4655160000000  0.4573400000000 1.0
C      1  0.4247530000000  0.5056310000000  0.4791140000000 1.0
C      1  0.4927280000000  0.5631310000000  0.4805030000000 1.0
C      1  0.4633280000000  0.4792150000000  0.4432440000000 1.0
C      1  0.4730400000000  0.4620020000000  0.5452920000000 1.0
END
