TITL C-149891-206-7 276.496102518436 125000 -220.7427428555 0 0 34 (C1) n - 1
REM
REM in /rds/project/t2_vol4/rds-t2-cs072/BORA/CARBON/from-Arr/AIRSS/Generating-Clusters/GAP-ML-2020/Only-C1/SD-CG/HFTN-CG
REM
REM
REM
REM
REM
REM ./C.cell (11c1c37f851c82e70ff6c80c92926a4b)
REM AIRSS Version 0.9.1 bugfix July 2018 build 013d7b7c2542+ Fri, 06 Jul 2018 19:26:36 +0100
REM compiler GCC version 9.3.0
REM options -cpp -mtune=generic -march=x86-64 -g -O0
REM seed 1994337497 -2061825646 -185713060 1302328258 -29726438 -43315995 117324341 1992276620 -1395545901 485741681 869739748 1749347615 -506001859 1782328529 -1000661582 -781434679 907548673 1863068834 675415909 -829730572 2134338475 -1439888379 1025178271 1250374525 -273903352 601546668 1851521382 -33057422 1065570097 351253868 372756506 -173952179 -1787682385
REM
CELL 1.54180   50.00000   50.00000   50.00000   90.00000   90.00000   90.00000
LATT -1
SFAC C  
C      1  0.5540600000000  0.4733920000000  0.4724460000000 1.0
C      1  0.4836780000000  0.4829210000000  0.4480310000000 1.0
C      1  0.5391730000000  0.4524850000000  0.4691220000000 1.0
C      1  0.4508620000000  0.4899080000000  0.5275870000000 1.0
C      1  0.4927470000000  0.5441500000000  0.4988720000000 1.0
C      1  0.5184010000000  0.5013360000000  0.5125550000000 1.0
C      1  0.5244590000000  0.5028470000000  0.4489310000000 1.0
C      1  0.4843000000000  0.5472700000000  0.5269940000000 1.0
C      1  0.4895250000000  0.4990750000000  0.5076270000000 1.0
C      1  0.5225920000000  0.4726010000000  0.5183580000000 1.0
C      1  0.5047400000000  0.5226080000000  0.4578850000000 1.0
C      1  0.4786910000000  0.5100640000000  0.4538620000000 1.0
C      1  0.5356910000000  0.5170440000000  0.4931590000000 1.0
C      1  0.5121090000000  0.5268890000000  0.5582580000000 1.0
C      1  0.4812060000000  0.4703850000000  0.4966610000000 1.0
C      1  0.4419790000000  0.4923070000000  0.4808980000000 1.0
C      1  0.4521810000000  0.4774330000000  0.5014900000000 1.0
C      1  0.5112120000000  0.4795170000000  0.4401850000000 1.0
C      1  0.4958580000000  0.4694040000000  0.5427710000000 1.0
C      1  0.4582400000000  0.5337160000000  0.5211590000000 1.0
C      1  0.4407260000000  0.5152660000000  0.5315430000000 1.0
C      1  0.5136740000000  0.5355820000000  0.4816850000000 1.0
C      1  0.5140990000000  0.4564620000000  0.4587810000000 1.0
C      1  0.4879170000000  0.4630110000000  0.4693570000000 1.0
C      1  0.4793500000000  0.4922560000000  0.5352560000000 1.0
C      1  0.4979090000000  0.4577900000000  0.5175080000000 1.0
C      1  0.4583530000000  0.5137580000000  0.4730770000000 1.0
C      1  0.5271000000000  0.5075070000000  0.5436400000000 1.0
C      1  0.4710810000000  0.5240570000000  0.4962750000000 1.0
C      1  0.5232040000000  0.4780600000000  0.5465930000000 1.0
C      1  0.5559840000000  0.5184660000000  0.5358630000000 1.0
C      1  0.4971320000000  0.5469590000000  0.5520050000000 1.0
C      1  0.5436070000000  0.4994800000000  0.4699510000000 1.0
C      1  0.5581580000000  0.5259940000000  0.5116180000000 1.0
END
