TITL C-147415-6649-7 -0.528539295775786 125000 -779.655912899093 0 0 111 (C1) n - 1
REM
REM in /rds/project/t2_vol4/rds-t2-cs072/BORA/CARBON/from-Arr/AIRSS/Generating-Clusters/GAP-ML-2020/Only-C1/SD-CG/HFTN-CG
REM
REM
REM
REM
REM
REM ./C.cell (11c1c37f851c82e70ff6c80c92926a4b)
REM AIRSS Version 0.9.1 bugfix July 2018 build 013d7b7c2542+ Fri, 06 Jul 2018 19:26:36 +0100
REM compiler GCC version 9.3.0
REM options -cpp -mtune=generic -march=x86-64 -g -O0
REM seed 414587699 184579257 -22460708 1654534598 846991352 108218914 392877685 853842798 -635112277 -2007625507 -153635340 -1840988178 619394544 1430124890 -668239167 -764612594 1073465551 -1040623 2042667922 1462317776 -883588121 303889749 -1792931559 -1405943798 850302852 -614478849 78140040 2028940941 -590936687 483145268 -197505294 1788500231 553527851
REM
CELL 1.54180   50.00000   50.00000   50.00000   90.00000   90.00000   90.00000
LATT -1
SFAC C  
C      1  0.4751990000000  0.5168900000000  0.4687700000000 1.0
C      1  0.5397160000000  0.4134780000000  0.5132530000000 1.0
C      1  0.4892150000000  0.4895650000000  0.5844580000000 1.0
C      1  0.4055460000000  0.5053180000000  0.5054500000000 1.0
C      1  0.4375060000000  0.4707330000000  0.4275750000000 1.0
C      1  0.5339510000000  0.4243450000000  0.5403980000000 1.0
C      1  0.5367380000000  0.4229560000000  0.4664990000000 1.0
C      1  0.4227790000000  0.4510480000000  0.5200390000000 1.0
C      1  0.4224620000000  0.5065120000000  0.4625740000000 1.0
C      1  0.5553820000000  0.4434730000000  0.5471230000000 1.0
C      1  0.4619910000000  0.5647330000000  0.4595880000000 1.0
C      1  0.5613390000000  0.4327630000000  0.4775700000000 1.0
C      1  0.5337430000000  0.5851880000000  0.4919190000000 1.0
C      1  0.5492900000000  0.5201430000000  0.4379920000000 1.0
C      1  0.4995640000000  0.4562150000000  0.4256790000000 1.0
C      1  0.5234880000000  0.5898190000000  0.5186190000000 1.0
C      1  0.5213800000000  0.5612720000000  0.5615360000000 1.0
C      1  0.5731310000000  0.4434620000000  0.5247200000000 1.0
C      1  0.4953210000000  0.5907610000000  0.5216920000000 1.0
C      1  0.5616470000000  0.5475580000000  0.4711270000000 1.0
C      1  0.5240190000000  0.4101720000000  0.4879760000000 1.0
C      1  0.4585030000000  0.5197850000000  0.4272500000000 1.0
C      1  0.5087650000000  0.4690000000000  0.5801180000000 1.0
C      1  0.4359930000000  0.5590490000000  0.4709210000000 1.0
C      1  0.5843110000000  0.5119590000000  0.5445600000000 1.0
C      1  0.4420970000000  0.4877000000000  0.5068230000000 1.0
C      1  0.4881090000000  0.4258730000000  0.4598450000000 1.0
C      1  0.4861150000000  0.4973600000000  0.5211060000000 1.0
C      1  0.5798090000000  0.5387810000000  0.5363340000000 1.0
C      1  0.5830840000000  0.5026150000000  0.4774000000000 1.0
C      1  0.4208640000000  0.5330720000000  0.4721050000000 1.0
C      1  0.5469470000000  0.5485510000000  0.4450080000000 1.0
C      1  0.4805910000000  0.5785030000000  0.5438960000000 1.0
C      1  0.4863810000000  0.5319210000000  0.5641850000000 1.0
C      1  0.4596830000000  0.5192210000000  0.5645700000000 1.0
C      1  0.5115100000000  0.4899470000000  0.4484080000000 1.0
C      1  0.5015100000000  0.5040220000000  0.4739000000000 1.0
C      1  0.4397150000000  0.4980840000000  0.4398940000000 1.0
C      1  0.4845190000000  0.4164490000000  0.5345020000000 1.0
C      1  0.5828130000000  0.5314580000000  0.4845510000000 1.0
C      1  0.5318540000000  0.4853600000000  0.4052510000000 1.0
C      1  0.5626910000000  0.4997660000000  0.4561520000000 1.0
C      1  0.5709090000000  0.4585510000000  0.4729300000000 1.0
C      1  0.5300230000000  0.5111520000000  0.5785050000000 1.0
C      1  0.4620530000000  0.4744150000000  0.4841120000000 1.0
C      1  0.5639010000000  0.4252470000000  0.5049280000000 1.0
C      1  0.5842400000000  0.4767240000000  0.4909760000000 1.0
C      1  0.4602630000000  0.4353900000000  0.4550040000000 1.0
C      1  0.4601820000000  0.4268380000000  0.5455180000000 1.0
C      1  0.4487860000000  0.4454280000000  0.4810940000000 1.0
C      1  0.4218630000000  0.4571200000000  0.4909360000000 1.0
C      1  0.4629530000000  0.4921640000000  0.5724770000000 1.0
C      1  0.5124620000000  0.4630220000000  0.4872060000000 1.0
C      1  0.5165600000000  0.4649500000000  0.4061000000000 1.0
C      1  0.5307340000000  0.4596140000000  0.5061920000000 1.0
C      1  0.4670700000000  0.5281510000000  0.4960530000000 1.0
C      1  0.4858430000000  0.4826990000000  0.4357700000000 1.0
C      1  0.5571660000000  0.4695770000000  0.5606080000000 1.0
C      1  0.5203410000000  0.5595400000000  0.4472580000000 1.0
C      1  0.4631100000000  0.4898240000000  0.4572340000000 1.0
C      1  0.4830120000000  0.5806780000000  0.4734640000000 1.0
C      1  0.4509780000000  0.5861690000000  0.5091810000000 1.0
C      1  0.5561600000000  0.5632610000000  0.4959710000000 1.0
C      1  0.4985480000000  0.5241760000000  0.5320000000000 1.0
C      1  0.4402870000000  0.4299550000000  0.5252570000000 1.0
C      1  0.4722510000000  0.5404440000000  0.4457640000000 1.0
C      1  0.4886530000000  0.5413270000000  0.5096640000000 1.0
C      1  0.4897580000000  0.4812930000000  0.4921720000000 1.0
C      1  0.4810900000000  0.5063280000000  0.4181840000000 1.0
C      1  0.5839590000000  0.4689130000000  0.5193420000000 1.0
C      1  0.4515760000000  0.4707590000000  0.5581430000000 1.0
C      1  0.5246520000000  0.4655050000000  0.4589240000000 1.0
C      1  0.5284880000000  0.5268280000000  0.5325790000000 1.0
C      1  0.5272510000000  0.5062430000000  0.4253060000000 1.0
C      1  0.4766700000000  0.5916670000000  0.4989240000000 1.0
C      1  0.4536240000000  0.4243780000000  0.5010990000000 1.0
C      1  0.4669970000000  0.4471000000000  0.5636190000000 1.0
C      1  0.4093290000000  0.5312860000000  0.4988410000000 1.0
C      1  0.4183370000000  0.5535830000000  0.5134330000000 1.0
C      1  0.4174580000000  0.4874370000000  0.4869340000000 1.0
C      1  0.5473510000000  0.5210630000000  0.4706860000000 1.0
C      1  0.4788480000000  0.4128220000000  0.5062420000000 1.0
C      1  0.4958050000000  0.4117250000000  0.4839590000000 1.0
C      1  0.5376450000000  0.5355270000000  0.5622230000000 1.0
C      1  0.5353870000000  0.4821500000000  0.5760700000000 1.0
C      1  0.4309480000000  0.5719970000000  0.4953960000000 1.0
C      1  0.4441240000000  0.5254870000000  0.5421730000000 1.0
C      1  0.5128790000000  0.5466900000000  0.4951490000000 1.0
C      1  0.4347760000000  0.4729030000000  0.5331560000000 1.0
C      1  0.5330010000000  0.5063970000000  0.5129200000000 1.0
C      1  0.5601870000000  0.5519740000000  0.5513220000000 1.0
C      1  0.5114870000000  0.4392140000000  0.4481170000000 1.0
C      1  0.5779810000000  0.4853870000000  0.5437930000000 1.0
C      1  0.4936310000000  0.5610090000000  0.5624450000000 1.0
C      1  0.5020390000000  0.5143070000000  0.5820620000000 1.0
C      1  0.4961890000000  0.4454780000000  0.5690340000000 1.0
C      1  0.5536900000000  0.4723770000000  0.4558840000000 1.0
C      1  0.5347070000000  0.5522090000000  0.5163340000000 1.0
C      1  0.5263060000000  0.4805720000000  0.5222170000000 1.0
C      1  0.5373640000000  0.5720920000000  0.5392120000000 1.0
C      1  0.4465620000000  0.4470940000000  0.4329030000000 1.0
C      1  0.5125740000000  0.5715170000000  0.4735530000000 1.0
C      1  0.5038990000000  0.5229400000000  0.4178810000000 1.0
C      1  0.4995190000000  0.5456770000000  0.4334870000000 1.0
C      1  0.5009010000000  0.4791920000000  0.5354320000000 1.0
C      1  0.4570000000000  0.5098180000000  0.5166760000000 1.0
C      1  0.5227450000000  0.5188060000000  0.4874910000000 1.0
C      1  0.5071020000000  0.4253780000000  0.5505540000000 1.0
C      1  0.5801720000000  0.5479090000000  0.5083460000000 1.0
C      1  0.4351310000000  0.5521060000000  0.5365080000000 1.0
C      1  0.4532390000000  0.5755650000000  0.5357370000000 1.0
END
