TITL C-141438-3330-13 312.046047476447 125000 -232.3887417201 0 0 36 (C1) n - 1
REM
REM in /rds/project/t2_vol4/rds-t2-cs072/BORA/CARBON/from-Arr/AIRSS/Generating-Clusters/GAP-ML-2020/Only-C1/SD-CG/HFTN-CG
REM
REM
REM
REM
REM
REM ./C.cell (11c1c37f851c82e70ff6c80c92926a4b)
REM AIRSS Version 0.9.1 bugfix July 2018 build 013d7b7c2542+ Fri, 06 Jul 2018 19:26:36 +0100
REM compiler GCC version 9.3.0
REM options -cpp -mtune=generic -march=x86-64 -g -O0
REM seed -1849842329 1185043821 1645667265 738116126 -2004097796 2143392209 623392502 -257795424 -1186956534 -400704235 -1932520838 -448876219 -1033630408 -2066823019 -297893829 -1133923984 1396163649 1122339931 1034087328 -1872888718 1574172625 641812046 -1708979778 -2098930553 2089054963 -956426064 1401209337 2089084637 315746991 1848747652 -123386049 -1166020269 934941918
REM
CELL 1.54180   50.00000   50.00000   50.00000   90.00000   90.00000   90.00000
LATT -1
SFAC C  
C      1  0.4771390000000  0.5129240000000  0.5150310000000 1.0
C      1  0.4503400000000  0.4810820000000  0.5368270000000 1.0
C      1  0.5369320000000  0.4789800000000  0.5309120000000 1.0
C      1  0.4609520000000  0.4898180000000  0.4313730000000 1.0
C      1  0.5186540000000  0.5373830000000  0.4580890000000 1.0
C      1  0.5210840000000  0.5194980000000  0.5570960000000 1.0
C      1  0.4534840000000  0.5000340000000  0.5547730000000 1.0
C      1  0.4747190000000  0.5617670000000  0.5074040000000 1.0
C      1  0.4789740000000  0.5378410000000  0.4951410000000 1.0
C      1  0.5115670000000  0.4875470000000  0.4862160000000 1.0
C      1  0.5470480000000  0.5034620000000  0.5227740000000 1.0
C      1  0.4964090000000  0.5019530000000  0.4647220000000 1.0
C      1  0.5544350000000  0.5097560000000  0.4950090000000 1.0
C      1  0.4546620000000  0.4935500000000  0.5101280000000 1.0
C      1  0.4921090000000  0.4552760000000  0.5279850000000 1.0
C      1  0.5566580000000  0.5352450000000  0.4834200000000 1.0
C      1  0.5028950000000  0.4567680000000  0.4818200000000 1.0
C      1  0.5184450000000  0.5107610000000  0.4453530000000 1.0
C      1  0.5394220000000  0.4929310000000  0.4787640000000 1.0
C      1  0.5001510000000  0.5027110000000  0.5555130000000 1.0
C      1  0.5242570000000  0.5195520000000  0.5297760000000 1.0
C      1  0.5039320000000  0.4431760000000  0.5069730000000 1.0
C      1  0.5426760000000  0.5495470000000  0.4664660000000 1.0
C      1  0.5272340000000  0.4670080000000  0.4470130000000 1.0
C      1  0.5394400000000  0.4915020000000  0.4488300000000 1.0
C      1  0.4939520000000  0.5311620000000  0.4724680000000 1.0
C      1  0.4729400000000  0.5653550000000  0.5335370000000 1.0
C      1  0.5037660000000  0.5001020000000  0.5133700000000 1.0
C      1  0.4592210000000  0.4681480000000  0.4978090000000 1.0
C      1  0.5065870000000  0.4802150000000  0.5357530000000 1.0
C      1  0.4761400000000  0.5178410000000  0.5463570000000 1.0
C      1  0.4729570000000  0.4843450000000  0.4540800000000 1.0
C      1  0.4734640000000  0.4627400000000  0.4750100000000 1.0
C      1  0.5180210000000  0.4461510000000  0.4578460000000 1.0
C      1  0.4762010000000  0.5463350000000  0.5511430000000 1.0
C      1  0.4631310000000  0.4575320000000  0.5252170000000 1.0
END
