TITL C-149885-8991-2 10.1149722521364 125000 -276.20827523544 0 0 41 (C1) n - 1
REM
REM in /rds/project/t2_vol4/rds-t2-cs072/BORA/CARBON/from-Arr/AIRSS/Generating-Clusters/GAP-ML-2020/Only-C1/SD-CG/HFTN-CG
REM
REM
REM
REM
REM
REM ./C.cell (11c1c37f851c82e70ff6c80c92926a4b)
REM AIRSS Version 0.9.1 bugfix July 2018 build 013d7b7c2542+ Fri, 06 Jul 2018 19:26:36 +0100
REM compiler GCC version 9.3.0
REM options -cpp -mtune=generic -march=x86-64 -g -O0
REM seed -1271779775 -389087837 -1285819759 402062498 -1597564752 -899785753 -2088054449 242581497 1705136951 -1482404788 2253728 713002665 31540016 2109051955 -1602668573 -1099097360 -1389177409 -832602831 -1132579337 1774631940 -127864351 1494679235 -16425235 1619041895 1944279798 -1748409274 350102886 348753127 -609353654 1460262682 -1747161507 -601541456 -867257626
REM
CELL 1.54180   50.00000   50.00000   50.00000   90.00000   90.00000   90.00000
LATT -1
SFAC C  
C      1  0.5476560000000  0.5425570000000  0.4961430000000 1.0
C      1  0.5341890000000  0.5643460000000  0.5080450000000 1.0
C      1  0.5015280000000  0.5274880000000  0.5345550000000 1.0
C      1  0.5233800000000  0.5046380000000  0.5389680000000 1.0
C      1  0.5072330000000  0.4627870000000  0.4480160000000 1.0
C      1  0.4650670000000  0.5486530000000  0.4706350000000 1.0
C      1  0.4939830000000  0.4461640000000  0.5325020000000 1.0
C      1  0.5105540000000  0.5570530000000  0.4927720000000 1.0
C      1  0.5311370000000  0.4524420000000  0.4894450000000 1.0
C      1  0.4849760000000  0.5061290000000  0.4627550000000 1.0
C      1  0.5339430000000  0.4637820000000  0.4631810000000 1.0
C      1  0.4718920000000  0.4640730000000  0.5398430000000 1.0
C      1  0.5316560000000  0.5106310000000  0.4755310000000 1.0
C      1  0.5336120000000  0.5387000000000  0.4689310000000 1.0
C      1  0.4765790000000  0.5121450000000  0.5413630000000 1.0
C      1  0.4451940000000  0.5388820000000  0.5137360000000 1.0
C      1  0.4666600000000  0.5443480000000  0.4979830000000 1.0
C      1  0.4503380000000  0.4911060000000  0.5039690000000 1.0
C      1  0.4652740000000  0.4599030000000  0.4729220000000 1.0
C      1  0.4832460000000  0.4865910000000  0.5514640000000 1.0
C      1  0.5429430000000  0.4951050000000  0.5194650000000 1.0
C      1  0.5119550000000  0.4825090000000  0.5512040000000 1.0
C      1  0.4537920000000  0.5141290000000  0.5220370000000 1.0
C      1  0.5015570000000  0.5096010000000  0.4880540000000 1.0
C      1  0.5092920000000  0.5511340000000  0.4652220000000 1.0
C      1  0.5374650000000  0.4658920000000  0.5151710000000 1.0
C      1  0.4969310000000  0.4855920000000  0.5026220000000 1.0
C      1  0.5122850000000  0.5531240000000  0.5466610000000 1.0
C      1  0.5287750000000  0.5688290000000  0.5355810000000 1.0
C      1  0.5045430000000  0.4906080000000  0.4460740000000 1.0
C      1  0.5332420000000  0.4911930000000  0.4556630000000 1.0
C      1  0.4956460000000  0.5353540000000  0.5047210000000 1.0
C      1  0.4537220000000  0.4665500000000  0.5176440000000 1.0
C      1  0.4870570000000  0.4360960000000  0.5074590000000 1.0
C      1  0.4904240000000  0.4484700000000  0.4641300000000 1.0
C      1  0.5057490000000  0.4390110000000  0.4869370000000 1.0
C      1  0.5490660000000  0.5139320000000  0.4998550000000 1.0
C      1  0.4606680000000  0.4884300000000  0.4751190000000 1.0
C      1  0.4622710000000  0.4476200000000  0.4985530000000 1.0
C      1  0.5192110000000  0.4584780000000  0.5368850000000 1.0
C      1  0.4853070000000  0.5359250000000  0.4581830000000 1.0
END
