TITL C-140194-7025-1 373.828267908142 125000 -552.292615938633 0 0 80 (C1) n - 1
REM
REM in /rds/project/t2_vol4/rds-t2-cs072/BORA/CARBON/from-Arr/AIRSS/Generating-Clusters/GAP-ML-2020/Only-C1/SD-CG/HFTN-CG
REM
REM
REM
REM
REM
REM ./C.cell (11c1c37f851c82e70ff6c80c92926a4b)
REM AIRSS Version 0.9.1 bugfix July 2018 build 013d7b7c2542+ Fri, 06 Jul 2018 19:26:36 +0100
REM compiler GCC version 9.3.0
REM options -cpp -mtune=generic -march=x86-64 -g -O0
REM seed -174915150 -327055540 -1036458261 -886810021 22312910 421689543 424883402 1045178902 107737900 431464638 -1227379917 1151153782 1031014830 -1159288117 1299230080 -650024530 680161627 1040507655 1247628028 -868811540 1196013533 -208655165 -192100126 -405627559 -555058077 661106558 890286795 121950078 -137271733 1819921037 -60186601 870946114 1901187961
REM
CELL 1.54180   50.00000   50.00000   50.00000   90.00000   90.00000   90.00000
LATT -1
SFAC C  
C      1  0.4684550000000  0.4898620000000  0.5094050000000 1.0
C      1  0.5182930000000  0.5336120000000  0.4340650000000 1.0
C      1  0.5269670000000  0.4399290000000  0.4772260000000 1.0
C      1  0.4805080000000  0.5195280000000  0.4853200000000 1.0
C      1  0.5482470000000  0.4428800000000  0.5001600000000 1.0
C      1  0.4496240000000  0.5727270000000  0.5358130000000 1.0
C      1  0.4298860000000  0.5295160000000  0.5555830000000 1.0
C      1  0.4315760000000  0.5042710000000  0.5451010000000 1.0
C      1  0.5341910000000  0.5077620000000  0.5224110000000 1.0
C      1  0.5789930000000  0.4927600000000  0.4955510000000 1.0
C      1  0.5370520000000  0.4865200000000  0.4790360000000 1.0
C      1  0.4903190000000  0.4584000000000  0.4418420000000 1.0
C      1  0.4628490000000  0.5751310000000  0.5141330000000 1.0
C      1  0.5456280000000  0.4915410000000  0.4507940000000 1.0
C      1  0.5293880000000  0.5656660000000  0.5083890000000 1.0
C      1  0.5016170000000  0.5548900000000  0.4434710000000 1.0
C      1  0.4450420000000  0.4920690000000  0.4640750000000 1.0
C      1  0.4477200000000  0.4690350000000  0.4487670000000 1.0
C      1  0.5615690000000  0.5149710000000  0.4516510000000 1.0
C      1  0.5711590000000  0.5099720000000  0.5442140000000 1.0
C      1  0.4994440000000  0.4267240000000  0.4791090000000 1.0
C      1  0.5524250000000  0.5558550000000  0.4917830000000 1.0
C      1  0.4643020000000  0.4318020000000  0.5113950000000 1.0
C      1  0.4489120000000  0.5484600000000  0.5493020000000 1.0
C      1  0.5119680000000  0.4682860000000  0.5130050000000 1.0
C      1  0.4986650000000  0.5363200000000  0.5256180000000 1.0
C      1  0.5767440000000  0.5148970000000  0.4751970000000 1.0
C      1  0.4449150000000  0.4611950000000  0.5405490000000 1.0
C      1  0.4740120000000  0.5501490000000  0.4464000000000 1.0
C      1  0.4409030000000  0.4721890000000  0.5136130000000 1.0
C      1  0.5209340000000  0.4683470000000  0.5675170000000 1.0
C      1  0.4739950000000  0.4870320000000  0.5687350000000 1.0
C      1  0.5138200000000  0.5163360000000  0.5647770000000 1.0
C      1  0.5260420000000  0.4862440000000  0.4312520000000 1.0
C      1  0.5294270000000  0.5405750000000  0.5565310000000 1.0
C      1  0.5568930000000  0.4724470000000  0.4984230000000 1.0
C      1  0.5731410000000  0.5348770000000  0.4958250000000 1.0
C      1  0.4358410000000  0.5240150000000  0.5022510000000 1.0
C      1  0.4412740000000  0.5186340000000  0.4548320000000 1.0
C      1  0.4934270000000  0.4642520000000  0.5671130000000 1.0
C      1  0.5447300000000  0.5369930000000  0.4458050000000 1.0
C      1  0.4266150000000  0.4993980000000  0.5164130000000 1.0
C      1  0.4771240000000  0.5724520000000  0.4910700000000 1.0
C      1  0.5082590000000  0.4374710000000  0.5262540000000 1.0
C      1  0.5296760000000  0.5123800000000  0.4937830000000 1.0
C      1  0.4609400000000  0.5575150000000  0.4710020000000 1.0
C      1  0.5333490000000  0.4432000000000  0.4501570000000 1.0
C      1  0.4628310000000  0.5252060000000  0.4371840000000 1.0
C      1  0.5180600000000  0.4588130000000  0.4337100000000 1.0
C      1  0.5570700000000  0.4880690000000  0.5573380000000 1.0
C      1  0.5434460000000  0.5581990000000  0.4646430000000 1.0
C      1  0.4476940000000  0.4833640000000  0.5576680000000 1.0
C      1  0.4789500000000  0.5035230000000  0.4279810000000 1.0
C      1  0.4633880000000  0.4401840000000  0.5386770000000 1.0
C      1  0.5383280000000  0.4369850000000  0.5267920000000 1.0
C      1  0.4913180000000  0.4251820000000  0.5053440000000 1.0
C      1  0.5148950000000  0.4679890000000  0.4838270000000 1.0
C      1  0.5069700000000  0.5745750000000  0.4889560000000 1.0
C      1  0.4394580000000  0.5367960000000  0.4764560000000 1.0
C      1  0.4924510000000  0.4742320000000  0.4686490000000 1.0
C      1  0.4843950000000  0.5131530000000  0.5642270000000 1.0
C      1  0.5431460000000  0.4617000000000  0.5476730000000 1.0
C      1  0.5324920000000  0.4942470000000  0.5722100000000 1.0
C      1  0.5201050000000  0.5545410000000  0.5336440000000 1.0
C      1  0.4624310000000  0.5196540000000  0.5129470000000 1.0
C      1  0.5050490000000  0.5273390000000  0.4944920000000 1.0
C      1  0.4729210000000  0.4918700000000  0.4798070000000 1.0
C      1  0.4535360000000  0.4472230000000  0.4675100000000 1.0
C      1  0.5494380000000  0.5284930000000  0.5410390000000 1.0
C      1  0.5399340000000  0.4782710000000  0.5229400000000 1.0
C      1  0.4473250000000  0.4482500000000  0.4952400000000 1.0
C      1  0.4891900000000  0.4424700000000  0.5489780000000 1.0
C      1  0.4931990000000  0.4862570000000  0.5231650000000 1.0
C      1  0.5168180000000  0.5691500000000  0.4632080000000 1.0
C      1  0.5797880000000  0.5127450000000  0.5163760000000 1.0
C      1  0.5079750000000  0.5093540000000  0.5343940000000 1.0
C      1  0.4697880000000  0.4761080000000  0.4314910000000 1.0
C      1  0.4728760000000  0.5307160000000  0.5405660000000 1.0
C      1  0.4802090000000  0.4384700000000  0.4613320000000 1.0
C      1  0.5076620000000  0.5077840000000  0.4268210000000 1.0
END
