TITL C-149891-206-3 184.868144900274 125000 -358.31055917512 0 0 52 (C1) n - 1
REM
REM in /rds/project/t2_vol4/rds-t2-cs072/BORA/CARBON/from-Arr/AIRSS/Generating-Clusters/GAP-ML-2020/Only-C1/SD-CG/HFTN-CG
REM
REM
REM
REM
REM
REM ./C.cell (11c1c37f851c82e70ff6c80c92926a4b)
REM AIRSS Version 0.9.1 bugfix July 2018 build 013d7b7c2542+ Fri, 06 Jul 2018 19:26:36 +0100
REM compiler GCC version 9.3.0
REM options -cpp -mtune=generic -march=x86-64 -g -O0
REM seed 1469634434 1118545139 -526771454 1182232512 -1850956763 2063357373 169361617 1673632393 -911497656 -271440011 -703157944 349529630 -192524100 -369569145 212442414 -989966949 1000883142 -300941137 865296143 1882106463 -10560375 -1446189632 -872153186 1360048370 51290164 433809150 1179803633 1532374908 407709421 1299105727 -949265826 1416295345 1893976971
REM
CELL 1.54180   50.00000   50.00000   50.00000   90.00000   90.00000   90.00000
LATT -1
SFAC C  
C      1  0.5289270000000  0.5433250000000  0.5164440000000 1.0
C      1  0.4349310000000  0.5108710000000  0.5012270000000 1.0
C      1  0.5083280000000  0.4978990000000  0.5637910000000 1.0
C      1  0.5071580000000  0.4418130000000  0.4754740000000 1.0
C      1  0.4552280000000  0.4939640000000  0.4636150000000 1.0
C      1  0.5185400000000  0.5448760000000  0.5442400000000 1.0
C      1  0.4800100000000  0.4516380000000  0.4705600000000 1.0
C      1  0.5023930000000  0.5190350000000  0.4447190000000 1.0
C      1  0.4402630000000  0.5054720000000  0.5286920000000 1.0
C      1  0.4472300000000  0.4776370000000  0.5316350000000 1.0
C      1  0.5274940000000  0.4444070000000  0.5178370000000 1.0
C      1  0.5082500000000  0.5313370000000  0.4956950000000 1.0
C      1  0.4568380000000  0.5567800000000  0.4984300000000 1.0
C      1  0.5605410000000  0.4921850000000  0.4531370000000 1.0
C      1  0.4904970000000  0.4974980000000  0.5179670000000 1.0
C      1  0.4685990000000  0.4700700000000  0.5501190000000 1.0
C      1  0.4874240000000  0.4513110000000  0.5396720000000 1.0
C      1  0.4967070000000  0.5539750000000  0.4740270000000 1.0
C      1  0.5315000000000  0.4606970000000  0.4731980000000 1.0
C      1  0.4827570000000  0.5348680000000  0.4552760000000 1.0
C      1  0.4747720000000  0.5189230000000  0.5590980000000 1.0
C      1  0.4459790000000  0.4659210000000  0.5046770000000 1.0
C      1  0.5549260000000  0.5095540000000  0.4943660000000 1.0
C      1  0.4439540000000  0.5336360000000  0.4862000000000 1.0
C      1  0.4585320000000  0.5227640000000  0.4638130000000 1.0
C      1  0.5039280000000  0.5264630000000  0.5568950000000 1.0
C      1  0.5258290000000  0.4817630000000  0.5496520000000 1.0
C      1  0.4394180000000  0.4871490000000  0.4866270000000 1.0
C      1  0.4670630000000  0.5415310000000  0.5200460000000 1.0
C      1  0.4553570000000  0.5264460000000  0.5410950000000 1.0
C      1  0.4644930000000  0.4468540000000  0.4953480000000 1.0
C      1  0.4988100000000  0.4807360000000  0.4999620000000 1.0
C      1  0.5296680000000  0.5292560000000  0.4540740000000 1.0
C      1  0.5280040000000  0.5130350000000  0.4800190000000 1.0
C      1  0.5552520000000  0.4830820000000  0.5094790000000 1.0
C      1  0.5408110000000  0.5580260000000  0.4914040000000 1.0
C      1  0.5512840000000  0.4677900000000  0.4535910000000 1.0
C      1  0.5071510000000  0.4322110000000  0.5020950000000 1.0
C      1  0.4756220000000  0.4762810000000  0.4557260000000 1.0
C      1  0.4765260000000  0.5701660000000  0.4841110000000 1.0
C      1  0.5442390000000  0.4593310000000  0.5009660000000 1.0
C      1  0.4824980000000  0.4369230000000  0.5153730000000 1.0
C      1  0.5476900000000  0.5209580000000  0.5213370000000 1.0
C      1  0.5454610000000  0.4949770000000  0.5335040000000 1.0
C      1  0.5713980000000  0.5140890000000  0.4715910000000 1.0
C      1  0.5270200000000  0.5565370000000  0.4676360000000 1.0
C      1  0.4800580000000  0.4916340000000  0.5646860000000 1.0
C      1  0.4843340000000  0.5206870000000  0.5061840000000 1.0
C      1  0.5158740000000  0.4562450000000  0.5412570000000 1.0
C      1  0.4991530000000  0.4913810000000  0.4511140000000 1.0
C      1  0.5554230000000  0.5194540000000  0.4476410000000 1.0
C      1  0.5158600000000  0.4865370000000  0.4746790000000 1.0
END
