TITL C-140214-7089-8 -0.32193372088171 125000 -736.732870477859 0 0 103 (C1) n - 1
REM
REM in /rds/project/t2_vol4/rds-t2-cs072/BORA/CARBON/from-Arr/AIRSS/Generating-Clusters/GAP-ML-2020/Only-C1/SD-CG/HFTN-CG
REM
REM
REM
REM
REM
REM ./C.cell (11c1c37f851c82e70ff6c80c92926a4b)
REM AIRSS Version 0.9.1 bugfix July 2018 build 013d7b7c2542+ Fri, 06 Jul 2018 19:26:36 +0100
REM compiler GCC version 9.3.0
REM options -cpp -mtune=generic -march=x86-64 -g -O0
REM seed 1933043660 -1575578886 -1097844919 -1718431632 1241485677 -1756026930 588650299 -1379181831 1931883614 -1382481490 1839837102 -2092457351 1221896233 251090854 1284357152 12277290 522363356 -701624300 -942254881 215140535 1869416731 -940919685 784622462 1223555671 -1900207767 1052980867 -513966191 -1937365521 313633410 1859464707 -117542489 390851315 -1919828009
REM
CELL 1.54180   50.00000   50.00000   50.00000   90.00000   90.00000   90.00000
LATT -1
SFAC C  
C      1  0.4756520000000  0.5843630000000  0.4856670000000 1.0
C      1  0.4201790000000  0.4539090000000  0.5161990000000 1.0
C      1  0.5641760000000  0.5047160000000  0.4587670000000 1.0
C      1  0.5273130000000  0.4828830000000  0.4511340000000 1.0
C      1  0.4924230000000  0.5395700000000  0.5664090000000 1.0
C      1  0.4260620000000  0.4988300000000  0.5362450000000 1.0
C      1  0.4973950000000  0.5828220000000  0.4684640000000 1.0
C      1  0.5069880000000  0.5170290000000  0.5784110000000 1.0
C      1  0.4496700000000  0.5764730000000  0.4774620000000 1.0
C      1  0.4959320000000  0.5433840000000  0.4635660000000 1.0
C      1  0.5735240000000  0.5213850000000  0.4807820000000 1.0
C      1  0.5462090000000  0.5386550000000  0.5592440000000 1.0
C      1  0.4653540000000  0.5218460000000  0.5291290000000 1.0
C      1  0.5214820000000  0.5372580000000  0.4717230000000 1.0
C      1  0.5854190000000  0.4738900000000  0.5083230000000 1.0
C      1  0.5756070000000  0.4493530000000  0.4958060000000 1.0
C      1  0.4282130000000  0.5401590000000  0.5034960000000 1.0
C      1  0.5446070000000  0.5054170000000  0.4381680000000 1.0
C      1  0.4873090000000  0.4527120000000  0.4596480000000 1.0
C      1  0.5842940000000  0.4699740000000  0.5365840000000 1.0
C      1  0.5557470000000  0.4417150000000  0.5616950000000 1.0
C      1  0.4748570000000  0.5681420000000  0.5116610000000 1.0
C      1  0.5362130000000  0.5156500000000  0.5730600000000 1.0
C      1  0.5273880000000  0.4769980000000  0.5166830000000 1.0
C      1  0.5363660000000  0.4229570000000  0.5510130000000 1.0
C      1  0.4675070000000  0.4608340000000  0.4389910000000 1.0
C      1  0.5654400000000  0.4320760000000  0.5171840000000 1.0
C      1  0.4178480000000  0.5302370000000  0.4776560000000 1.0
C      1  0.4727360000000  0.4504810000000  0.5647680000000 1.0
C      1  0.5382510000000  0.5548410000000  0.4402780000000 1.0
C      1  0.4591350000000  0.4928860000000  0.4850740000000 1.0
C      1  0.4366850000000  0.4479950000000  0.4698380000000 1.0
C      1  0.4736770000000  0.4783460000000  0.5023550000000 1.0
C      1  0.5644210000000  0.4509550000000  0.4691640000000 1.0
C      1  0.5432850000000  0.4639110000000  0.5747700000000 1.0
C      1  0.5747730000000  0.4444220000000  0.5417280000000 1.0
C      1  0.5467570000000  0.5854760000000  0.5504870000000 1.0
C      1  0.5748420000000  0.5021390000000  0.5041870000000 1.0
C      1  0.4414530000000  0.4429410000000  0.5297640000000 1.0
C      1  0.4116970000000  0.4816630000000  0.5192210000000 1.0
C      1  0.4282310000000  0.4946310000000  0.4465630000000 1.0
C      1  0.4609630000000  0.5335680000000  0.4221740000000 1.0
C      1  0.4440920000000  0.5643790000000  0.4527070000000 1.0
C      1  0.5321760000000  0.5636150000000  0.5582400000000 1.0
C      1  0.5100920000000  0.5216340000000  0.5130880000000 1.0
C      1  0.5449620000000  0.4921160000000  0.4961480000000 1.0
C      1  0.5361480000000  0.5288680000000  0.4255770000000 1.0
C      1  0.4967820000000  0.5763890000000  0.5290520000000 1.0
C      1  0.4888230000000  0.4923450000000  0.4081050000000 1.0
C      1  0.5139180000000  0.5618850000000  0.4266770000000 1.0
C      1  0.5161180000000  0.4546940000000  0.5782390000000 1.0
C      1  0.4278810000000  0.5411270000000  0.4537360000000 1.0
C      1  0.4878230000000  0.4303130000000  0.5506400000000 1.0
C      1  0.5231560000000  0.5135230000000  0.4882950000000 1.0
C      1  0.4075610000000  0.4831890000000  0.4900690000000 1.0
C      1  0.4855740000000  0.5201630000000  0.4114660000000 1.0
C      1  0.4423840000000  0.4865700000000  0.5568270000000 1.0
C      1  0.5125320000000  0.4258460000000  0.5065470000000 1.0
C      1  0.5388450000000  0.4196700000000  0.5228850000000 1.0
C      1  0.4133360000000  0.5024890000000  0.4708730000000 1.0
C      1  0.4361990000000  0.5228090000000  0.5246340000000 1.0
C      1  0.5638220000000  0.5481360000000  0.4875980000000 1.0
C      1  0.4601580000000  0.4285490000000  0.5120580000000 1.0
C      1  0.5087120000000  0.4962740000000  0.5273970000000 1.0
C      1  0.5102610000000  0.5357500000000  0.4144400000000 1.0
C      1  0.4963060000000  0.4685300000000  0.4851430000000 1.0
C      1  0.4769380000000  0.5326190000000  0.4807630000000 1.0
C      1  0.5037610000000  0.5627320000000  0.5541500000000 1.0
C      1  0.5646720000000  0.5374800000000  0.5370020000000 1.0
C      1  0.4783980000000  0.5071230000000  0.4706530000000 1.0
C      1  0.4441120000000  0.5634660000000  0.5021020000000 1.0
C      1  0.4676790000000  0.5282180000000  0.5579200000000 1.0
C      1  0.5412810000000  0.5590980000000  0.4701110000000 1.0
C      1  0.4864630000000  0.4956010000000  0.5821380000000 1.0
C      1  0.5153080000000  0.4561270000000  0.5014720000000 1.0
C      1  0.5205100000000  0.5822370000000  0.5108580000000 1.0
C      1  0.5245550000000  0.4317110000000  0.4537350000000 1.0
C      1  0.5062010000000  0.4944390000000  0.4716380000000 1.0
C      1  0.5120650000000  0.4572110000000  0.4417920000000 1.0
C      1  0.4168810000000  0.4558520000000  0.4874400000000 1.0
C      1  0.5451640000000  0.5777250000000  0.5242590000000 1.0
C      1  0.5126110000000  0.4304820000000  0.5633350000000 1.0
C      1  0.5738390000000  0.4922700000000  0.5507450000000 1.0
C      1  0.4892140000000  0.4685460000000  0.4210180000000 1.0
C      1  0.4614550000000  0.5035080000000  0.5707770000000 1.0
C      1  0.4805400000000  0.4921360000000  0.5262780000000 1.0
C      1  0.4411810000000  0.4670620000000  0.4469740000000 1.0
C      1  0.4373180000000  0.5205590000000  0.4354680000000 1.0
C      1  0.4906390000000  0.4674730000000  0.5800540000000 1.0
C      1  0.5517280000000  0.4785570000000  0.4689450000000 1.0
C      1  0.4486640000000  0.4582760000000  0.5535460000000 1.0
C      1  0.4831210000000  0.5367120000000  0.5095910000000 1.0
C      1  0.5618320000000  0.5558670000000  0.5148790000000 1.0
C      1  0.5525010000000  0.4911780000000  0.5703760000000 1.0
C      1  0.4810870000000  0.4256810000000  0.4694090000000 1.0
C      1  0.4648760000000  0.5596040000000  0.4339260000000 1.0
C      1  0.4860080000000  0.4234000000000  0.5229510000000 1.0
C      1  0.4564990000000  0.4297550000000  0.4830390000000 1.0
C      1  0.5073080000000  0.4194480000000  0.4765650000000 1.0
C      1  0.5758120000000  0.5129780000000  0.5316110000000 1.0
C      1  0.5219650000000  0.5799720000000  0.4825830000000 1.0
C      1  0.5518060000000  0.4314410000000  0.4539880000000 1.0
C      1  0.4922680000000  0.5671030000000  0.4439310000000 1.0
END
