TITL C-149876-9050-6 70.8248459591518 125000 -852.393582911895 0 0 122 (C1) n - 1
REM
REM in /rds/project/t2_vol4/rds-t2-cs072/BORA/CARBON/from-Arr/AIRSS/Generating-Clusters/GAP-ML-2020/Only-C1/SD-CG/HFTN-CG
REM
REM
REM
REM
REM
REM ./C.cell (11c1c37f851c82e70ff6c80c92926a4b)
REM AIRSS Version 0.9.1 bugfix July 2018 build 013d7b7c2542+ Fri, 06 Jul 2018 19:26:36 +0100
REM compiler GCC version 9.3.0
REM options -cpp -mtune=generic -march=x86-64 -g -O0
REM seed -809274097 1835416150 -762452611 752786531 -963218163 1725497812 -1232102341 1819035632 1069956774 756986710 -69336054 1883280586 1712518350 1749831650 -1069279374 -1916799225 -857301186 -770520599 -680197291 1998970485 749597941 391754346 1737645010 686859213 -1011997299 1547753374 1382488658 1084972425 771233103 652912852 626320691 -73927954 983166711
REM
CELL 1.54180   50.00000   50.00000   50.00000   90.00000   90.00000   90.00000
LATT -1
SFAC C  
C      1  0.4390930000000  0.5416360000000  0.4414410000000 1.0
C      1  0.5681740000000  0.4762890000000  0.5465140000000 1.0
C      1  0.4377210000000  0.4318130000000  0.4686920000000 1.0
C      1  0.5366040000000  0.5666270000000  0.5537990000000 1.0
C      1  0.4423090000000  0.5046510000000  0.4976390000000 1.0
C      1  0.5438240000000  0.5830430000000  0.5305780000000 1.0
C      1  0.5412040000000  0.5339540000000  0.4290480000000 1.0
C      1  0.4524800000000  0.4750460000000  0.4939430000000 1.0
C      1  0.4613420000000  0.5294340000000  0.5737550000000 1.0
C      1  0.4666660000000  0.4644370000000  0.5196730000000 1.0
C      1  0.5992450000000  0.5291300000000  0.4998810000000 1.0
C      1  0.5083230000000  0.5657150000000  0.5640890000000 1.0
C      1  0.4837780000000  0.5072740000000  0.4833720000000 1.0
C      1  0.4875360000000  0.4164730000000  0.5035160000000 1.0
C      1  0.4106740000000  0.5392350000000  0.4790800000000 1.0
C      1  0.5005790000000  0.5184590000000  0.5533270000000 1.0
C      1  0.5819320000000  0.5574660000000  0.5374060000000 1.0
C      1  0.5026740000000  0.5326330000000  0.5235230000000 1.0
C      1  0.4276950000000  0.4546860000000  0.4840080000000 1.0
C      1  0.4859350000000  0.4802650000000  0.5839970000000 1.0
C      1  0.4334160000000  0.5274350000000  0.5584050000000 1.0
C      1  0.4217010000000  0.4497470000000  0.5138250000000 1.0
C      1  0.4925980000000  0.4587570000000  0.4711210000000 1.0
C      1  0.5454230000000  0.5819550000000  0.4837660000000 1.0
C      1  0.4511500000000  0.4103790000000  0.4807140000000 1.0
C      1  0.5919670000000  0.4868560000000  0.5350200000000 1.0
C      1  0.4268610000000  0.5617090000000  0.5177710000000 1.0
C      1  0.4790270000000  0.5620190000000  0.4640210000000 1.0
C      1  0.4996210000000  0.4127170000000  0.5300790000000 1.0
C      1  0.5019430000000  0.5862040000000  0.5030910000000 1.0
C      1  0.5329670000000  0.4443110000000  0.4565970000000 1.0
C      1  0.5207910000000  0.4680280000000  0.4030280000000 1.0
C      1  0.5371490000000  0.4367240000000  0.5527660000000 1.0
C      1  0.5099620000000  0.4879840000000  0.5212160000000 1.0
C      1  0.5816040000000  0.5455840000000  0.4846340000000 1.0
C      1  0.5092420000000  0.4334310000000  0.4383500000000 1.0
C      1  0.5616810000000  0.4778300000000  0.4297110000000 1.0
C      1  0.4495090000000  0.5772740000000  0.5241330000000 1.0
C      1  0.4732960000000  0.4546230000000  0.5820710000000 1.0
C      1  0.5511620000000  0.5007550000000  0.4845180000000 1.0
C      1  0.4912710000000  0.5411930000000  0.5697330000000 1.0
C      1  0.5843510000000  0.4548300000000  0.4983730000000 1.0
C      1  0.5234870000000  0.5278950000000  0.5041630000000 1.0
C      1  0.5135060000000  0.4759850000000  0.5749530000000 1.0
C      1  0.5958890000000  0.4956680000000  0.4627640000000 1.0
C      1  0.4964170000000  0.4625690000000  0.5171620000000 1.0
C      1  0.4208360000000  0.4715540000000  0.4603170000000 1.0
C      1  0.5263400000000  0.5130750000000  0.4156760000000 1.0
C      1  0.5024340000000  0.4432050000000  0.4948370000000 1.0
C      1  0.4534860000000  0.4409370000000  0.4469540000000 1.0
C      1  0.5662920000000  0.5206670000000  0.5559860000000 1.0
C      1  0.4786230000000  0.4114040000000  0.4742160000000 1.0
C      1  0.5777360000000  0.4553170000000  0.4700820000000 1.0
C      1  0.5097720000000  0.5188210000000  0.4757890000000 1.0
C      1  0.4769600000000  0.4987520000000  0.5602240000000 1.0
C      1  0.5432610000000  0.4266710000000  0.5077680000000 1.0
C      1  0.4929300000000  0.5603950000000  0.5205890000000 1.0
C      1  0.4929410000000  0.4689610000000  0.4043660000000 1.0
C      1  0.5490140000000  0.4993510000000  0.5449610000000 1.0
C      1  0.5204170000000  0.4949330000000  0.5529610000000 1.0
C      1  0.4817960000000  0.4194720000000  0.5522870000000 1.0
C      1  0.4582390000000  0.5075090000000  0.5221340000000 1.0
C      1  0.5916340000000  0.5141220000000  0.5435950000000 1.0
C      1  0.5608550000000  0.4497580000000  0.5424890000000 1.0
C      1  0.4995720000000  0.5811300000000  0.4734090000000 1.0
C      1  0.6030000000000  0.5018540000000  0.4900240000000 1.0
C      1  0.5704020000000  0.5761610000000  0.5208340000000 1.0
C      1  0.5703260000000  0.5706920000000  0.4929490000000 1.0
C      1  0.4530500000000  0.4906020000000  0.4302680000000 1.0
C      1  0.4966470000000  0.5142200000000  0.4159700000000 1.0
C      1  0.4487900000000  0.4507250000000  0.5691200000000 1.0
C      1  0.5634600000000  0.5288300000000  0.4708620000000 1.0
C      1  0.4351080000000  0.4737400000000  0.5557900000000 1.0
C      1  0.4664960000000  0.5585890000000  0.5117430000000 1.0
C      1  0.4540900000000  0.4291230000000  0.5504600000000 1.0
C      1  0.5023860000000  0.5413410000000  0.4546820000000 1.0
C      1  0.5171390000000  0.4708670000000  0.4605840000000 1.0
C      1  0.4128630000000  0.5129730000000  0.4900750000000 1.0
C      1  0.5286730000000  0.4337130000000  0.4848520000000 1.0
C      1  0.5608310000000  0.5489970000000  0.5551890000000 1.0
C      1  0.4835110000000  0.4332970000000  0.4542540000000 1.0
C      1  0.5994820000000  0.4787240000000  0.5089850000000 1.0
C      1  0.4652730000000  0.5525440000000  0.4380950000000 1.0
C      1  0.4593950000000  0.5510720000000  0.4849740000000 1.0
C      1  0.4411450000000  0.5122530000000  0.4486970000000 1.0
C      1  0.4205550000000  0.5536620000000  0.4590840000000 1.0
C      1  0.5742690000000  0.4834480000000  0.4771450000000 1.0
C      1  0.5182650000000  0.4478130000000  0.5710290000000 1.0
C      1  0.4577000000000  0.4149870000000  0.5075500000000 1.0
C      1  0.4784170000000  0.4914660000000  0.4151330000000 1.0
C      1  0.4750800000000  0.4798410000000  0.4774860000000 1.0
C      1  0.4296730000000  0.5587520000000  0.4880170000000 1.0
C      1  0.5642470000000  0.5246360000000  0.4426750000000 1.0
C      1  0.5602170000000  0.4530560000000  0.4476520000000 1.0
C      1  0.4147500000000  0.4678690000000  0.5337500000000 1.0
C      1  0.4887590000000  0.6026670000000  0.5274620000000 1.0
C      1  0.5664090000000  0.4412380000000  0.5158480000000 1.0
C      1  0.4175550000000  0.4987890000000  0.4626090000000 1.0
C      1  0.4920670000000  0.5788630000000  0.5451220000000 1.0
C      1  0.5074990000000  0.4458470000000  0.4133960000000 1.0
C      1  0.5376190000000  0.5024320000000  0.5113840000000 1.0
C      1  0.4861660000000  0.5098270000000  0.5131760000000 1.0
C      1  0.5392660000000  0.4868430000000  0.4131390000000 1.0
C      1  0.5773360000000  0.4993430000000  0.4405200000000 1.0
C      1  0.4411540000000  0.4662520000000  0.4400760000000 1.0
C      1  0.4196110000000  0.5388780000000  0.5339430000000 1.0
C      1  0.4928760000000  0.4353660000000  0.5732030000000 1.0
C      1  0.4217670000000  0.5009270000000  0.5596560000000 1.0
C      1  0.5303610000000  0.5898950000000  0.5065240000000 1.0
C      1  0.4590360000000  0.4848630000000  0.5402590000000 1.0
C      1  0.5985640000000  0.5358130000000  0.5275130000000 1.0
C      1  0.4462120000000  0.4351260000000  0.5235830000000 1.0
C      1  0.4058050000000  0.5168510000000  0.5195930000000 1.0
C      1  0.4675330000000  0.5046860000000  0.5868520000000 1.0
C      1  0.4049310000000  0.4948020000000  0.5366440000000 1.0
C      1  0.4873170000000  0.5364530000000  0.4298850000000 1.0
C      1  0.5266430000000  0.5760850000000  0.4625400000000 1.0
C      1  0.4576710000000  0.5206820000000  0.4775910000000 1.0
C      1  0.5267470000000  0.4956740000000  0.4697490000000 1.0
C      1  0.5271730000000  0.4204940000000  0.5314440000000 1.0
C      1  0.4659000000000  0.5940530000000  0.5391700000000 1.0
C      1  0.5258680000000  0.5546430000000  0.4432890000000 1.0
END
