TITL C-149875-9113-4 -122.539185495405 125000 -94.9021534872049 0 0 16 (C1) n - 1
REM
REM in /rds/project/t2_vol4/rds-t2-cs072/BORA/CARBON/from-Arr/AIRSS/Generating-Clusters/GAP-ML-2020/Only-C1/SD-CG/HFTN-CG
REM
REM
REM
REM
REM
REM ./C.cell (11c1c37f851c82e70ff6c80c92926a4b)
REM AIRSS Version 0.9.1 bugfix July 2018 build 013d7b7c2542+ Fri, 06 Jul 2018 19:26:36 +0100
REM compiler GCC version 9.3.0
REM options -cpp -mtune=generic -march=x86-64 -g -O0
REM seed 150649853 -19241972 2085969159 1466377459 1920585127 -18733404 -723246345 887914063 -2098843341 -1172272503 -137824376 281458247 181201155 -1631221588 475016181 -2069049695 -1398249671 -335229446 -1077623371 -270603116 -1985051776 1647795299 798964688 -1978668083 -1742354200 -1825814929 124146703 -1095798624 1801455733 1341196825 -1564565396 -1152855277 -1617328113
REM
CELL 1.54180   50.00000   50.00000   50.00000   90.00000   90.00000   90.00000
LATT -1
SFAC C  
C      1  0.5472450000000  0.5010380000000  0.4657900000000 1.0
C      1  0.4971440000000  0.4819240000000  0.5104230000000 1.0
C      1  0.5120290000000  0.5429070000000  0.5062540000000 1.0
C      1  0.4625770000000  0.4913260000000  0.4659960000000 1.0
C      1  0.4715670000000  0.4946980000000  0.5161980000000 1.0
C      1  0.4878590000000  0.4462940000000  0.5197830000000 1.0
C      1  0.5235150000000  0.4789280000000  0.5428940000000 1.0
C      1  0.5283920000000  0.5206970000000  0.5095650000000 1.0
C      1  0.4686900000000  0.4911720000000  0.4403430000000 1.0
C      1  0.5034250000000  0.5217770000000  0.4746230000000 1.0
C      1  0.5296460000000  0.5121050000000  0.4812130000000 1.0
C      1  0.4614230000000  0.4967250000000  0.4910230000000 1.0
C      1  0.4855080000000  0.5094310000000  0.5344910000000 1.0
C      1  0.5143380000000  0.5022390000000  0.5273260000000 1.0
C      1  0.5066680000000  0.4611750000000  0.5304240000000 1.0
C      1  0.4999730000000  0.5475650000000  0.4836560000000 1.0
END
