TITL C-141708-1657-2 6.31910490857176 125000 -727.107599069511 0 0 102 (C1) n - 1
REM
REM in /rds/project/t2_vol4/rds-t2-cs072/BORA/CARBON/from-Arr/AIRSS/Generating-Clusters/GAP-ML-2020/Only-C1/SD-CG/HFTN-CG
REM
REM
REM
REM
REM
REM ./C.cell (11c1c37f851c82e70ff6c80c92926a4b)
REM AIRSS Version 0.9.1 bugfix July 2018 build 013d7b7c2542+ Fri, 06 Jul 2018 19:26:36 +0100
REM compiler GCC version 9.3.0
REM options -cpp -mtune=generic -march=x86-64 -g -O0
REM seed -394226477 -394763154 -1574212121 -2018107330 1667930742 -2124535768 -2036703248 1362834577 2040689955 -1829875326 -1195191111 -157658541 1361227691 -1633427184 1583285866 806991368 1822254776 -1750076124 -1171536935 712030330 -824453825 -597764972 1252301306 699506285 -1800117064 1072322001 317765466 -1970694975 1562810214 1596436309 -1748736238 1306122074 -932075097
REM
CELL 1.54180   50.00000   50.00000   50.00000   90.00000   90.00000   90.00000
LATT -1
SFAC C  
C      1  0.4776310000000  0.5444350000000  0.4370430000000 1.0
C      1  0.4974330000000  0.4835740000000  0.5817640000000 1.0
C      1  0.4813640000000  0.5016020000000  0.4808720000000 1.0
C      1  0.4825800000000  0.5151450000000  0.5343560000000 1.0
C      1  0.5492650000000  0.5554730000000  0.4462230000000 1.0
C      1  0.4642090000000  0.5672000000000  0.4770380000000 1.0
C      1  0.5147460000000  0.5037000000000  0.5725140000000 1.0
C      1  0.5417480000000  0.5655080000000  0.5459990000000 1.0
C      1  0.5070750000000  0.4249650000000  0.4660510000000 1.0
C      1  0.4394150000000  0.4917340000000  0.4392580000000 1.0
C      1  0.5929420000000  0.5158300000000  0.4835050000000 1.0
C      1  0.4193770000000  0.4661700000000  0.4905900000000 1.0
C      1  0.5031320000000  0.5564320000000  0.4417980000000 1.0
C      1  0.5606510000000  0.4834790000000  0.5146830000000 1.0
C      1  0.5505610000000  0.5013820000000  0.4265000000000 1.0
C      1  0.4938580000000  0.5886710000000  0.5090620000000 1.0
C      1  0.5241370000000  0.4446980000000  0.5596690000000 1.0
C      1  0.4477210000000  0.4657070000000  0.4475260000000 1.0
C      1  0.5394780000000  0.4753000000000  0.4283040000000 1.0
C      1  0.4419390000000  0.4491280000000  0.5329740000000 1.0
C      1  0.5704160000000  0.5106710000000  0.4436490000000 1.0
C      1  0.5346420000000  0.4937250000000  0.5527350000000 1.0
C      1  0.5143830000000  0.5323700000000  0.5700560000000 1.0
C      1  0.4551280000000  0.5048780000000  0.4208920000000 1.0
C      1  0.4250650000000  0.5073430000000  0.4595640000000 1.0
C      1  0.5079930000000  0.4174780000000  0.5144630000000 1.0
C      1  0.4738800000000  0.4902620000000  0.5246990000000 1.0
C      1  0.4839950000000  0.4079070000000  0.4626150000000 1.0
C      1  0.5854360000000  0.5263470000000  0.5095370000000 1.0
C      1  0.5711540000000  0.5006900000000  0.5766180000000 1.0
C      1  0.4584100000000  0.5585180000000  0.5266640000000 1.0
C      1  0.4421540000000  0.4815080000000  0.5701830000000 1.0
C      1  0.4280060000000  0.5551930000000  0.5228400000000 1.0
C      1  0.5001940000000  0.5285470000000  0.5147090000000 1.0
C      1  0.5118840000000  0.4774180000000  0.4195210000000 1.0
C      1  0.5014460000000  0.4548420000000  0.5740940000000 1.0
C      1  0.5496900000000  0.4368000000000  0.5204740000000 1.0
C      1  0.4768030000000  0.5796690000000  0.5304800000000 1.0
C      1  0.4670340000000  0.4439270000000  0.5174660000000 1.0
C      1  0.4182050000000  0.5102170000000  0.5048330000000 1.0
C      1  0.4786370000000  0.5187670000000  0.4221460000000 1.0
C      1  0.5402210000000  0.5398250000000  0.5587210000000 1.0
C      1  0.4845920000000  0.5284830000000  0.4911130000000 1.0
C      1  0.5295150000000  0.4932850000000  0.4727200000000 1.0
C      1  0.5602330000000  0.4596700000000  0.5318140000000 1.0
C      1  0.5468450000000  0.4330510000000  0.4922670000000 1.0
C      1  0.4731810000000  0.4513930000000  0.4429020000000 1.0
C      1  0.5721310000000  0.5389410000000  0.4484710000000 1.0
C      1  0.4646890000000  0.4231480000000  0.4478590000000 1.0
C      1  0.5106140000000  0.5734790000000  0.4640300000000 1.0
C      1  0.5397150000000  0.5709860000000  0.4683010000000 1.0
C      1  0.4197760000000  0.4934500000000  0.5286730000000 1.0
C      1  0.4154330000000  0.4933370000000  0.4823900000000 1.0
C      1  0.5723560000000  0.5087430000000  0.5266510000000 1.0
C      1  0.5426950000000  0.4521850000000  0.4458610000000 1.0
C      1  0.4684930000000  0.4803410000000  0.5835540000000 1.0
C      1  0.4297400000000  0.5364710000000  0.4970480000000 1.0
C      1  0.4630240000000  0.4879080000000  0.4974490000000 1.0
C      1  0.5656980000000  0.4754710000000  0.5799340000000 1.0
C      1  0.4331540000000  0.5341320000000  0.4664760000000 1.0
C      1  0.4634560000000  0.4582890000000  0.4905040000000 1.0
C      1  0.5463400000000  0.4654920000000  0.5580300000000 1.0
C      1  0.4724550000000  0.4519200000000  0.5733040000000 1.0
C      1  0.5288230000000  0.5199630000000  0.4197520000000 1.0
C      1  0.5196420000000  0.5914930000000  0.5213340000000 1.0
C      1  0.4790130000000  0.4174690000000  0.5108780000000 1.0
C      1  0.4877060000000  0.4550410000000  0.4728430000000 1.0
C      1  0.4473920000000  0.4236130000000  0.4701330000000 1.0
C      1  0.5447930000000  0.5776810000000  0.5179350000000 1.0
C      1  0.5295890000000  0.4923410000000  0.5222090000000 1.0
C      1  0.4676330000000  0.4091520000000  0.4862710000000 1.0
C      1  0.4599990000000  0.5462100000000  0.4976810000000 1.0
C      1  0.5087240000000  0.4753000000000  0.5104450000000 1.0
C      1  0.4880710000000  0.4662600000000  0.5267760000000 1.0
C      1  0.5558520000000  0.5704590000000  0.4931620000000 1.0
C      1  0.4559210000000  0.5508230000000  0.4552260000000 1.0
C      1  0.4471120000000  0.4545720000000  0.5598480000000 1.0
C      1  0.5259630000000  0.5188360000000  0.5097740000000 1.0
C      1  0.5046180000000  0.5056030000000  0.4170080000000 1.0
C      1  0.5275590000000  0.5457680000000  0.4308420000000 1.0
C      1  0.5606240000000  0.4785130000000  0.4829440000000 1.0
C      1  0.5792210000000  0.4966790000000  0.4680320000000 1.0
C      1  0.5316770000000  0.5185300000000  0.4825430000000 1.0
C      1  0.5257610000000  0.4284130000000  0.5351820000000 1.0
C      1  0.4890880000000  0.5808930000000  0.4817370000000 1.0
C      1  0.5550260000000  0.4517390000000  0.4723990000000 1.0
C      1  0.5186380000000  0.5820720000000  0.5491470000000 1.0
C      1  0.4177490000000  0.5472050000000  0.5467840000000 1.0
C      1  0.4372260000000  0.5286040000000  0.5572830000000 1.0
C      1  0.5782130000000  0.5527000000000  0.4953220000000 1.0
C      1  0.5187660000000  0.4379460000000  0.4427830000000 1.0
C      1  0.5878050000000  0.5419770000000  0.4712620000000 1.0
C      1  0.4232350000000  0.4664330000000  0.5193110000000 1.0
C      1  0.5037780000000  0.4804960000000  0.4814620000000 1.0
C      1  0.4896950000000  0.5484780000000  0.5660110000000 1.0
C      1  0.4990290000000  0.4538330000000  0.4284190000000 1.0
C      1  0.5224520000000  0.4192500000000  0.4896150000000 1.0
C      1  0.4931000000000  0.5741450000000  0.5548610000000 1.0
C      1  0.4293180000000  0.5012810000000  0.5548130000000 1.0
C      1  0.4390840000000  0.4520070000000  0.4736550000000 1.0
C      1  0.5573750000000  0.5145060000000  0.5530040000000 1.0
C      1  0.4665520000000  0.5365070000000  0.5492710000000 1.0
END
