TITL C-144793-3153-4 -32.043617913255 125000 -797.550144488462 0 0 114 (C1) n - 1
REM
REM in /rds/project/t2_vol4/rds-t2-cs072/BORA/CARBON/from-Arr/AIRSS/Generating-Clusters/GAP-ML-2020/Only-C1/SD-CG/HFTN-CG
REM
REM
REM
REM
REM
REM ./C.cell (11c1c37f851c82e70ff6c80c92926a4b)
REM AIRSS Version 0.9.1 bugfix July 2018 build 013d7b7c2542+ Fri, 06 Jul 2018 19:26:36 +0100
REM compiler GCC version 9.3.0
REM options -cpp -mtune=generic -march=x86-64 -g -O0
REM seed 1048791616 556943454 1896112918 49707920 1108353538 81410804 -1964148762 1412418738 1371113591 227426244 618986793 -1702217632 831562933 -1952849855 471464585 1435353253 534998351 1351960440 837016311 1635435486 -149829522 -1042406025 1036505969 1846500922 1807204786 -153296447 433708911 -916063358 -1087153233 -1180342971 -1688913237 1360943838 -342504337
REM
CELL 1.54180   50.00000   50.00000   50.00000   90.00000   90.00000   90.00000
LATT -1
SFAC C  
C      1  0.5333730000000  0.5293460000000  0.4177170000000 1.0
C      1  0.4834000000000  0.4949450000000  0.5933440000000 1.0
C      1  0.5022370000000  0.4450860000000  0.4752340000000 1.0
C      1  0.4545620000000  0.4587620000000  0.4450040000000 1.0
C      1  0.5268830000000  0.5034810000000  0.4080510000000 1.0
C      1  0.5483590000000  0.5547630000000  0.4570210000000 1.0
C      1  0.4432680000000  0.4817440000000  0.4321870000000 1.0
C      1  0.5447740000000  0.5294760000000  0.4440990000000 1.0
C      1  0.4140090000000  0.4835690000000  0.5231080000000 1.0
C      1  0.5302620000000  0.4328290000000  0.5560990000000 1.0
C      1  0.5681040000000  0.4646650000000  0.4581920000000 1.0
C      1  0.5280070000000  0.5833560000000  0.5135410000000 1.0
C      1  0.5361840000000  0.4773570000000  0.4959150000000 1.0
C      1  0.5238780000000  0.5146040000000  0.6044670000000 1.0
C      1  0.4823410000000  0.4879770000000  0.4017510000000 1.0
C      1  0.5719350000000  0.4856700000000  0.5264830000000 1.0
C      1  0.5395180000000  0.5825350000000  0.4882320000000 1.0
C      1  0.5222790000000  0.4644510000000  0.5984330000000 1.0
C      1  0.4374550000000  0.5163620000000  0.5528210000000 1.0
C      1  0.4769130000000  0.4564890000000  0.5760480000000 1.0
C      1  0.5478360000000  0.4453710000000  0.4654100000000 1.0
C      1  0.5204970000000  0.5137280000000  0.4614600000000 1.0
C      1  0.4587140000000  0.4267820000000  0.5406740000000 1.0
C      1  0.5596520000000  0.4904220000000  0.5870210000000 1.0
C      1  0.4909080000000  0.4625220000000  0.4046510000000 1.0
C      1  0.4355860000000  0.4411750000000  0.5325420000000 1.0
C      1  0.5053030000000  0.4776500000000  0.5313180000000 1.0
C      1  0.4501100000000  0.5084140000000  0.5031080000000 1.0
C      1  0.4987110000000  0.4160580000000  0.5189570000000 1.0
C      1  0.5471900000000  0.4434450000000  0.5325080000000 1.0
C      1  0.5297080000000  0.5180190000000  0.5169840000000 1.0
C      1  0.5245610000000  0.4636870000000  0.4718650000000 1.0
C      1  0.5636410000000  0.5142650000000  0.5253840000000 1.0
C      1  0.4828160000000  0.4752900000000  0.5120080000000 1.0
C      1  0.5488970000000  0.5544500000000  0.5524900000000 1.0
C      1  0.4952210000000  0.5312680000000  0.4585090000000 1.0
C      1  0.4283960000000  0.5323790000000  0.5125020000000 1.0
C      1  0.5217480000000  0.5394040000000  0.4993990000000 1.0
C      1  0.5131860000000  0.4857740000000  0.4527860000000 1.0
C      1  0.5021070000000  0.5065720000000  0.3948860000000 1.0
C      1  0.5279240000000  0.4653170000000  0.5206940000000 1.0
C      1  0.5099540000000  0.4569190000000  0.4230540000000 1.0
C      1  0.4798250000000  0.5731330000000  0.5324430000000 1.0
C      1  0.4976540000000  0.5198560000000  0.5941050000000 1.0
C      1  0.5675840000000  0.5552250000000  0.5064070000000 1.0
C      1  0.5642940000000  0.5295530000000  0.5518130000000 1.0
C      1  0.5417850000000  0.4246350000000  0.4853130000000 1.0
C      1  0.4374290000000  0.5531640000000  0.5337700000000 1.0
C      1  0.5540890000000  0.4280770000000  0.5091290000000 1.0
C      1  0.4908500000000  0.4028090000000  0.4734360000000 1.0
C      1  0.4987680000000  0.5818820000000  0.5128310000000 1.0
C      1  0.5112750000000  0.5472230000000  0.4147420000000 1.0
C      1  0.4615720000000  0.5791850000000  0.4755470000000 1.0
C      1  0.4694790000000  0.4339980000000  0.4443190000000 1.0
C      1  0.4625930000000  0.5011100000000  0.4190870000000 1.0
C      1  0.4966510000000  0.5588380000000  0.4381600000000 1.0
C      1  0.5104660000000  0.4189100000000  0.4891420000000 1.0
C      1  0.4410780000000  0.5206120000000  0.4542560000000 1.0
C      1  0.4275260000000  0.5519530000000  0.4904260000000 1.0
C      1  0.4835240000000  0.4906710000000  0.4639780000000 1.0
C      1  0.4803380000000  0.5480650000000  0.5519070000000 1.0
C      1  0.4583820000000  0.4299550000000  0.4933990000000 1.0
C      1  0.4529010000000  0.5742450000000  0.5234340000000 1.0
C      1  0.4793280000000  0.4332450000000  0.5592190000000 1.0
C      1  0.5284190000000  0.5511320000000  0.5745950000000 1.0
C      1  0.4333540000000  0.5458400000000  0.4629320000000 1.0
C      1  0.4706550000000  0.4167140000000  0.5173780000000 1.0
C      1  0.4299380000000  0.4954260000000  0.4533800000000 1.0
C      1  0.4324840000000  0.4422370000000  0.5042690000000 1.0
C      1  0.4670220000000  0.4161940000000  0.4671460000000 1.0
C      1  0.4946520000000  0.4680690000000  0.5957560000000 1.0
C      1  0.4576850000000  0.4856850000000  0.5247430000000 1.0
C      1  0.4521940000000  0.5649920000000  0.4522320000000 1.0
C      1  0.4617590000000  0.4712150000000  0.4703760000000 1.0
C      1  0.4336340000000  0.4691500000000  0.5371600000000 1.0
C      1  0.5300930000000  0.4804750000000  0.4265650000000 1.0
C      1  0.5364770000000  0.4887680000000  0.6041770000000 1.0
C      1  0.4662070000000  0.4839110000000  0.5730170000000 1.0
C      1  0.5108060000000  0.5060380000000  0.5367220000000 1.0
C      1  0.5658710000000  0.4645190000000  0.5440310000000 1.0
C      1  0.4494500000000  0.5423440000000  0.5557530000000 1.0
C      1  0.4967360000000  0.4417690000000  0.4440650000000 1.0
C      1  0.5579590000000  0.4831530000000  0.4397910000000 1.0
C      1  0.5618580000000  0.5178610000000  0.5778870000000 1.0
C      1  0.4996220000000  0.5438630000000  0.5750680000000 1.0
C      1  0.4625430000000  0.5011840000000  0.5487600000000 1.0
C      1  0.4680850000000  0.5573770000000  0.4304690000000 1.0
C      1  0.5476100000000  0.5529660000000  0.4861910000000 1.0
C      1  0.4783570000000  0.5210960000000  0.5039250000000 1.0
C      1  0.5416560000000  0.5327540000000  0.5917160000000 1.0
C      1  0.4378350000000  0.4862340000000  0.4808400000000 1.0
C      1  0.5046550000000  0.4238860000000  0.5467640000000 1.0
C      1  0.4933000000000  0.5415060000000  0.4867880000000 1.0
C      1  0.5599300000000  0.4664080000000  0.5712080000000 1.0
C      1  0.5754020000000  0.5274720000000  0.5013200000000 1.0
C      1  0.4719930000000  0.5136270000000  0.4491010000000 1.0
C      1  0.4174110000000  0.5115060000000  0.5306730000000 1.0
C      1  0.4848840000000  0.5212980000000  0.5353710000000 1.0
C      1  0.4768900000000  0.4541390000000  0.4896980000000 1.0
C      1  0.5785830000000  0.5107590000000  0.4761970000000 1.0
C      1  0.4889760000000  0.5737110000000  0.4838750000000 1.0
C      1  0.4920460000000  0.4972150000000  0.4927470000000 1.0
C      1  0.5669800000000  0.4755140000000  0.5007370000000 1.0
C      1  0.4434320000000  0.5749550000000  0.4968240000000 1.0
C      1  0.4920890000000  0.5324610000000  0.4005370000000 1.0
C      1  0.5375220000000  0.4492100000000  0.5781190000000 1.0
C      1  0.5052760000000  0.5779270000000  0.4581650000000 1.0
C      1  0.5332030000000  0.5796780000000  0.4608920000000 1.0
C      1  0.4671040000000  0.5323950000000  0.4133180000000 1.0
C      1  0.5810890000000  0.4821100000000  0.4782710000000 1.0
C      1  0.4209000000000  0.4689010000000  0.4982760000000 1.0
C      1  0.5651080000000  0.5099280000000  0.4500750000000 1.0
C      1  0.5225910000000  0.5041560000000  0.4914400000000 1.0
C      1  0.5498760000000  0.5675500000000  0.5278420000000 1.0
END
