TITL C-142786-1180-7 -0.164877948632232 125000 -414.785186988723 0 0 61 (C1) n - 1
REM
REM in /rds/project/t2_vol4/rds-t2-cs072/BORA/CARBON/from-Arr/AIRSS/Generating-Clusters/GAP-ML-2020/Only-C1/SD-CG/HFTN-CG
REM
REM
REM
REM
REM
REM ./C.cell (11c1c37f851c82e70ff6c80c92926a4b)
REM AIRSS Version 0.9.1 bugfix July 2018 build 013d7b7c2542+ Fri, 06 Jul 2018 19:26:36 +0100
REM compiler GCC version 9.3.0
REM options -cpp -mtune=generic -march=x86-64 -g -O0
REM seed 803889748 -751646319 1241969593 708500096 -473948687 738893502 -2013553471 538404939 953529094 987435991 821965982 -232963272 -1511421187 -97542768 -55898747 -843451327 -1445920898 1917802007 -1073664175 -836029053 -1963585960 -972104739 168195337 418965810 -1075378063 -638315515 -638806341 1409640339 -1103638426 -1274614180 -422583885 -1545609955 974061969
REM
CELL 1.54180   50.00000   50.00000   50.00000   90.00000   90.00000   90.00000
LATT -1
SFAC C  
C      1  0.4368840000000  0.4616090000000  0.5088710000000 1.0
C      1  0.5020200000000  0.5382810000000  0.4500150000000 1.0
C      1  0.4802450000000  0.4700340000000  0.5573780000000 1.0
C      1  0.4639470000000  0.5359150000000  0.5337760000000 1.0
C      1  0.4811040000000  0.4696460000000  0.5015240000000 1.0
C      1  0.5033400000000  0.5234390000000  0.5569230000000 1.0
C      1  0.4615920000000  0.5101440000000  0.4592330000000 1.0
C      1  0.5305290000000  0.5333250000000  0.4551390000000 1.0
C      1  0.4086600000000  0.5129990000000  0.5119650000000 1.0
C      1  0.4608190000000  0.5628500000000  0.5300230000000 1.0
C      1  0.5500750000000  0.4567800000000  0.4711230000000 1.0
C      1  0.5447110000000  0.4581490000000  0.4435660000000 1.0
C      1  0.4359280000000  0.4910200000000  0.5488900000000 1.0
C      1  0.4889900000000  0.5578630000000  0.4661730000000 1.0
C      1  0.5300220000000  0.5626200000000  0.4945750000000 1.0
C      1  0.5088980000000  0.4770390000000  0.5073560000000 1.0
C      1  0.4626490000000  0.5557730000000  0.4792490000000 1.0
C      1  0.5016130000000  0.4470950000000  0.4646350000000 1.0
C      1  0.4666250000000  0.5701270000000  0.5044740000000 1.0
C      1  0.4625390000000  0.4931890000000  0.5575620000000 1.0
C      1  0.5191910000000  0.5000620000000  0.5617440000000 1.0
C      1  0.5059710000000  0.5731380000000  0.4829920000000 1.0
C      1  0.5611140000000  0.4935860000000  0.5303470000000 1.0
C      1  0.4637450000000  0.4925060000000  0.5053360000000 1.0
C      1  0.4763560000000  0.4462930000000  0.5406970000000 1.0
C      1  0.5607000000000  0.5243480000000  0.4912710000000 1.0
C      1  0.5409710000000  0.4496420000000  0.5248640000000 1.0
C      1  0.5414980000000  0.5051020000000  0.4534590000000 1.0
C      1  0.4262930000000  0.5111080000000  0.4913460000000 1.0
C      1  0.4843550000000  0.5161410000000  0.4421040000000 1.0
C      1  0.5129650000000  0.5037430000000  0.4972620000000 1.0
C      1  0.5094880000000  0.4277280000000  0.4863360000000 1.0
C      1  0.4695940000000  0.5206560000000  0.5066360000000 1.0
C      1  0.5205150000000  0.5433890000000  0.5418550000000 1.0
C      1  0.4393150000000  0.4844660000000  0.4905400000000 1.0
C      1  0.5164090000000  0.5632890000000  0.5219760000000 1.0
C      1  0.4774920000000  0.4640290000000  0.4722240000000 1.0
C      1  0.4752110000000  0.5195620000000  0.5544800000000 1.0
C      1  0.5083430000000  0.4738520000000  0.5607080000000 1.0
C      1  0.5230340000000  0.4525140000000  0.5475880000000 1.0
C      1  0.4608800000000  0.4517270000000  0.5170960000000 1.0
C      1  0.5593730000000  0.4701330000000  0.5149760000000 1.0
C      1  0.5654870000000  0.4752710000000  0.4866050000000 1.0
C      1  0.4974310000000  0.5256560000000  0.5010490000000 1.0
C      1  0.4163090000000  0.5008190000000  0.5351630000000 1.0
C      1  0.5122220000000  0.4772050000000  0.4260490000000 1.0
C      1  0.4935500000000  0.5760280000000  0.5089020000000 1.0
C      1  0.4566780000000  0.4830470000000  0.4672980000000 1.0
C      1  0.5432740000000  0.5437960000000  0.4788750000000 1.0
C      1  0.5185540000000  0.4932410000000  0.4697070000000 1.0
C      1  0.5630560000000  0.5208140000000  0.5189050000000 1.0
C      1  0.4506760000000  0.5284040000000  0.4798380000000 1.0
C      1  0.5413640000000  0.4843080000000  0.4324120000000 1.0
C      1  0.5187050000000  0.4309440000000  0.5117870000000 1.0
C      1  0.5028490000000  0.4354990000000  0.5357010000000 1.0
C      1  0.5224110000000  0.4654690000000  0.4781450000000 1.0
C      1  0.5624210000000  0.5013720000000  0.4752260000000 1.0
C      1  0.5162840000000  0.4518880000000  0.4391500000000 1.0
C      1  0.4935950000000  0.4959170000000  0.4252450000000 1.0
C      1  0.5450450000000  0.5042620000000  0.5517080000000 1.0
C      1  0.5460890000000  0.5311500000000  0.5399490000000 1.0
END
