TITL C-141438-3330-1 -1198.18081157391 125000 -1068.05275743508 0 0 152 (C1) n - 1
REM
REM in /rds/project/t2_vol4/rds-t2-cs072/BORA/CARBON/from-Arr/AIRSS/Generating-Clusters/GAP-ML-2020/Only-C1/SD-CG/HFTN-CG
REM
REM
REM
REM
REM
REM ./C.cell (11c1c37f851c82e70ff6c80c92926a4b)
REM AIRSS Version 0.9.1 bugfix July 2018 build 013d7b7c2542+ Fri, 06 Jul 2018 19:26:36 +0100
REM compiler GCC version 9.3.0
REM options -cpp -mtune=generic -march=x86-64 -g -O0
REM seed -1116678530 -2061018804 -816360739 1021717941 2022627655 -1254241442 -1950861847 1372632207 -851724923 145272330 -267999237 -674630568 1803453932 1910571092 -791556723 -1552812832 1951320906 1432294594 -1719119646 1500220665 2066849837 -651195230 -1765566173 -408950796 -1445404043 1435559228 994072614 267215650 518854226 1916991893 -380889041 -826987074 -175008801
REM
CELL 1.54180   50.00000   50.00000   50.00000   90.00000   90.00000   90.00000
LATT -1
SFAC C  
C      1  0.4931480000000  0.4725990000000  0.5555760000000 1.0
C      1  0.5115000000000  0.4693590000000  0.4203820000000 1.0
C      1  0.4499150000000  0.4500510000000  0.5648070000000 1.0
C      1  0.4064740000000  0.4685300000000  0.5053000000000 1.0
C      1  0.4280920000000  0.5331900000000  0.5564820000000 1.0
C      1  0.5710830000000  0.4603230000000  0.5677010000000 1.0
C      1  0.5694580000000  0.5515150000000  0.5399140000000 1.0
C      1  0.4349840000000  0.4911380000000  0.5769830000000 1.0
C      1  0.4270750000000  0.4542370000000  0.5483580000000 1.0
C      1  0.4684780000000  0.3972920000000  0.4561590000000 1.0
C      1  0.4498550000000  0.5874200000000  0.5108180000000 1.0
C      1  0.4962360000000  0.5938290000000  0.4953750000000 1.0
C      1  0.4768710000000  0.4892960000000  0.4504740000000 1.0
C      1  0.6050170000000  0.4862720000000  0.5451110000000 1.0
C      1  0.4408260000000  0.4357020000000  0.4642950000000 1.0
C      1  0.4028190000000  0.5272310000000  0.4666010000000 1.0
C      1  0.5119510000000  0.5146760000000  0.4008880000000 1.0
C      1  0.5002400000000  0.5840930000000  0.4425230000000 1.0
C      1  0.4466600000000  0.5498600000000  0.4695650000000 1.0
C      1  0.5101600000000  0.4732560000000  0.5312700000000 1.0
C      1  0.4704430000000  0.5582480000000  0.5845760000000 1.0
C      1  0.5342200000000  0.5621320000000  0.5731850000000 1.0
C      1  0.5171970000000  0.4021370000000  0.4661610000000 1.0
C      1  0.4911460000000  0.4477340000000  0.4673000000000 1.0
C      1  0.5791020000000  0.5039390000000  0.5823610000000 1.0
C      1  0.4865820000000  0.5149260000000  0.4486890000000 1.0
C      1  0.4317650000000  0.5141270000000  0.4176330000000 1.0
C      1  0.4225420000000  0.4932030000000  0.4347590000000 1.0
C      1  0.4847830000000  0.4857020000000  0.4968980000000 1.0
C      1  0.5761970000000  0.4375240000000  0.5518750000000 1.0
C      1  0.5213730000000  0.5043410000000  0.5302400000000 1.0
C      1  0.4196490000000  0.4802570000000  0.5542080000000 1.0
C      1  0.5568710000000  0.5709070000000  0.5235780000000 1.0
C      1  0.4439930000000  0.5311220000000  0.4932650000000 1.0
C      1  0.4718510000000  0.5400280000000  0.4546530000000 1.0
C      1  0.4485010000000  0.4084640000000  0.4708510000000 1.0
C      1  0.5746290000000  0.5670810000000  0.5013550000000 1.0
C      1  0.5579040000000  0.5473600000000  0.5656240000000 1.0
C      1  0.4847520000000  0.5188740000000  0.6074710000000 1.0
C      1  0.5004340000000  0.4410660000000  0.4132450000000 1.0
C      1  0.4629470000000  0.5682160000000  0.5595160000000 1.0
C      1  0.5392450000000  0.4968120000000  0.4535470000000 1.0
C      1  0.5093290000000  0.5782960000000  0.5653540000000 1.0
C      1  0.4972960000000  0.4899390000000  0.4030650000000 1.0
C      1  0.5174820000000  0.4034610000000  0.5195410000000 1.0
C      1  0.4166270000000  0.5216120000000  0.5329080000000 1.0
C      1  0.4961190000000  0.5691170000000  0.5889070000000 1.0
C      1  0.5108790000000  0.4428640000000  0.4895290000000 1.0
C      1  0.5624450000000  0.4289510000000  0.5294930000000 1.0
C      1  0.3978340000000  0.5383330000000  0.4903900000000 1.0
C      1  0.5627560000000  0.4473270000000  0.5066350000000 1.0
C      1  0.5292270000000  0.4574560000000  0.5432830000000 1.0
C      1  0.5037170000000  0.5525590000000  0.5298360000000 1.0
C      1  0.5399080000000  0.5888700000000  0.4741760000000 1.0
C      1  0.4710380000000  0.4444150000000  0.5212140000000 1.0
C      1  0.4635350000000  0.4841650000000  0.4750510000000 1.0
C      1  0.4987170000000  0.5412710000000  0.4044560000000 1.0
C      1  0.4786920000000  0.4935980000000  0.6177360000000 1.0
C      1  0.5225390000000  0.4306320000000  0.5582690000000 1.0
C      1  0.4226640000000  0.4184580000000  0.5111550000000 1.0
C      1  0.4689550000000  0.5008140000000  0.5202250000000 1.0
C      1  0.5577140000000  0.5542140000000  0.4309290000000 1.0
C      1  0.5377760000000  0.4834460000000  0.4818880000000 1.0
C      1  0.4193950000000  0.5410500000000  0.5100620000000 1.0
C      1  0.6016180000000  0.5142360000000  0.4773220000000 1.0
C      1  0.6023590000000  0.5168850000000  0.5058090000000 1.0
C      1  0.4386780000000  0.5591800000000  0.5489210000000 1.0
C      1  0.5385100000000  0.5089750000000  0.4097850000000 1.0
C      1  0.4207080000000  0.4533000000000  0.4552560000000 1.0
C      1  0.4915200000000  0.4052780000000  0.5323330000000 1.0
C      1  0.4215100000000  0.4458110000000  0.5192170000000 1.0
C      1  0.4401670000000  0.5194890000000  0.5789910000000 1.0
C      1  0.4428240000000  0.5991970000000  0.4862660000000 1.0
C      1  0.5593380000000  0.5226520000000  0.5824180000000 1.0
C      1  0.5039010000000  0.5224150000000  0.5458260000000 1.0
C      1  0.4554420000000  0.5797890000000  0.4719610000000 1.0
C      1  0.6009600000000  0.4906440000000  0.5190540000000 1.0
C      1  0.5892130000000  0.4661760000000  0.4736670000000 1.0
C      1  0.5776390000000  0.5292960000000  0.4670530000000 1.0
C      1  0.5155230000000  0.4122650000000  0.4922810000000 1.0
C      1  0.4296720000000  0.4665540000000  0.4300500000000 1.0
C      1  0.5478940000000  0.4764480000000  0.5537020000000 1.0
C      1  0.5673290000000  0.4702960000000  0.4307780000000 1.0
C      1  0.4597910000000  0.4535050000000  0.4784390000000 1.0
C      1  0.4686280000000  0.4872380000000  0.4010530000000 1.0
C      1  0.5499100000000  0.4375890000000  0.4609490000000 1.0
C      1  0.5254640000000  0.4435960000000  0.5840760000000 1.0
C      1  0.5659550000000  0.5122440000000  0.4459870000000 1.0
C      1  0.5082230000000  0.5643500000000  0.4201850000000 1.0
C      1  0.4328610000000  0.5664480000000  0.5230990000000 1.0
C      1  0.4541410000000  0.4627680000000  0.4114670000000 1.0
C      1  0.5098260000000  0.4197930000000  0.4293630000000 1.0
C      1  0.5842770000000  0.4912610000000  0.4393750000000 1.0
C      1  0.5347020000000  0.5386660000000  0.4951900000000 1.0
C      1  0.4480590000000  0.4573120000000  0.5081760000000 1.0
C      1  0.4423240000000  0.4872180000000  0.5123270000000 1.0
C      1  0.4666000000000  0.5280940000000  0.5109190000000 1.0
C      1  0.4873630000000  0.5754270000000  0.5427540000000 1.0
C      1  0.4625070000000  0.5323980000000  0.5933770000000 1.0
C      1  0.4679660000000  0.4148220000000  0.5180530000000 1.0
C      1  0.5280780000000  0.5893910000000  0.4484750000000 1.0
C      1  0.5617380000000  0.5250690000000  0.4944740000000 1.0
C      1  0.4401880000000  0.5014420000000  0.4842620000000 1.0
C      1  0.4082580000000  0.4719420000000  0.4760780000000 1.0
C      1  0.4317730000000  0.5401390000000  0.4288150000000 1.0
C      1  0.5913740000000  0.4833680000000  0.5692950000000 1.0
C      1  0.5563480000000  0.5268160000000  0.4224550000000 1.0
C      1  0.5131610000000  0.5263910000000  0.6028720000000 1.0
C      1  0.4216270000000  0.5444200000000  0.4537760000000 1.0
C      1  0.4457300000000  0.4068670000000  0.5010060000000 1.0
C      1  0.4785960000000  0.5904820000000  0.5179720000000 1.0
C      1  0.5487690000000  0.4965350000000  0.5313360000000 1.0
C      1  0.4531480000000  0.4703540000000  0.5846510000000 1.0
C      1  0.4925920000000  0.5519290000000  0.4749810000000 1.0
C      1  0.4559510000000  0.5123240000000  0.4016370000000 1.0
C      1  0.5185080000000  0.5531400000000  0.5962120000000 1.0
C      1  0.5354460000000  0.5105600000000  0.5940660000000 1.0
C      1  0.5151950000000  0.5190290000000  0.5052030000000 1.0
C      1  0.4758210000000  0.4465540000000  0.5514400000000 1.0
C      1  0.4968840000000  0.4686650000000  0.4480240000000 1.0
C      1  0.5294760000000  0.5642840000000  0.5143380000000 1.0
C      1  0.4708090000000  0.5368440000000  0.4045490000000 1.0
C      1  0.4824870000000  0.5023430000000  0.5466070000000 1.0
C      1  0.5373520000000  0.4152410000000  0.5367360000000 1.0
C      1  0.4789180000000  0.4736270000000  0.5990920000000 1.0
C      1  0.5800080000000  0.4714140000000  0.5015790000000 1.0
C      1  0.5577730000000  0.4946260000000  0.5017520000000 1.0
C      1  0.4852300000000  0.5814540000000  0.4694020000000 1.0
C      1  0.5394800000000  0.4518460000000  0.4855490000000 1.0
C      1  0.5234470000000  0.5881040000000  0.4973800000000 1.0
C      1  0.4587310000000  0.5490840000000  0.4269150000000 1.0
C      1  0.4164820000000  0.4924130000000  0.5277050000000 1.0
C      1  0.6015420000000  0.4893570000000  0.4628490000000 1.0
C      1  0.5718420000000  0.5561900000000  0.4561800000000 1.0
C      1  0.5491840000000  0.4586890000000  0.5888100000000 1.0
C      1  0.5357910000000  0.5714650000000  0.4271690000000 1.0
C      1  0.4912700000000  0.5397230000000  0.5049010000000 1.0
C      1  0.5722160000000  0.4528880000000  0.4527890000000 1.0
C      1  0.5139600000000  0.5146370000000  0.4596980000000 1.0
C      1  0.5811400000000  0.5394500000000  0.5134220000000 1.0
C      1  0.5322520000000  0.4193180000000  0.4483110000000 1.0
C      1  0.5650050000000  0.5747450000000  0.4761740000000 1.0
C      1  0.5200360000000  0.5416340000000  0.4692270000000 1.0
C      1  0.5330550000000  0.4835130000000  0.5845090000000 1.0
C      1  0.4735060000000  0.4436810000000  0.4078970000000 1.0
C      1  0.4945450000000  0.4229200000000  0.5540550000000 1.0
C      1  0.5108970000000  0.4981020000000  0.4859790000000 1.0
C      1  0.5390150000000  0.4823650000000  0.4250020000000 1.0
C      1  0.5058570000000  0.4682070000000  0.5834130000000 1.0
C      1  0.4939020000000  0.4013180000000  0.4479510000000 1.0
C      1  0.4152930000000  0.4987190000000  0.4644300000000 1.0
C      1  0.4953040000000  0.4598490000000  0.5094440000000 1.0
END
