TITL C-141717-1885-2 -25.5569729424327 125000 -206.825132522732 0 0 32 (C1) n - 1
REM
REM in /rds/project/t2_vol4/rds-t2-cs072/BORA/CARBON/from-Arr/AIRSS/Generating-Clusters/GAP-ML-2020/Only-C1/SD-CG/HFTN-CG
REM
REM
REM
REM
REM
REM ./C.cell (11c1c37f851c82e70ff6c80c92926a4b)
REM AIRSS Version 0.9.1 bugfix July 2018 build 013d7b7c2542+ Fri, 06 Jul 2018 19:26:36 +0100
REM compiler GCC version 9.3.0
REM options -cpp -mtune=generic -march=x86-64 -g -O0
REM seed 895247822 260205173 1970611818 -1011861844 -1096203208 -37389781 -1058578279 1843543843 1213599019 -1900809052 -594169495 1459047541 783105800 26506316 900265604 763548103 -293925618 -70849776 1636278697 -1691267493 1277766154 -1644448140 -1194215167 -1747567088 -570864722 999500578 -1187964226 -393401990 -802303752 299356231 -892152879 -355824970 -1623966757
REM
CELL 1.54180   50.00000   50.00000   50.00000   90.00000   90.00000   90.00000
LATT -1
SFAC C  
C      1  0.5120920000000  0.5052850000000  0.4587310000000 1.0
C      1  0.5434590000000  0.5055360000000  0.4925260000000 1.0
C      1  0.5457540000000  0.5068900000000  0.5204750000000 1.0
C      1  0.5256660000000  0.5535240000000  0.5138750000000 1.0
C      1  0.5391100000000  0.4784010000000  0.4849920000000 1.0
C      1  0.4874300000000  0.4508860000000  0.5209510000000 1.0
C      1  0.4743590000000  0.5239840000000  0.4770040000000 1.0
C      1  0.4745860000000  0.4748500000000  0.5061810000000 1.0
C      1  0.5041790000000  0.5674380000000  0.5254350000000 1.0
C      1  0.4894340000000  0.4355820000000  0.4961910000000 1.0
C      1  0.5083240000000  0.4571330000000  0.4528450000000 1.0
C      1  0.5344170000000  0.4621080000000  0.5079060000000 1.0
C      1  0.5099880000000  0.4915390000000  0.5347120000000 1.0
C      1  0.5357950000000  0.4810880000000  0.5304430000000 1.0
C      1  0.5321220000000  0.5295590000000  0.5314610000000 1.0
C      1  0.4965170000000  0.4927760000000  0.5075090000000 1.0
C      1  0.5221150000000  0.5225990000000  0.4801230000000 1.0
C      1  0.5230190000000  0.4781920000000  0.4612640000000 1.0
C      1  0.4676980000000  0.5107350000000  0.5371440000000 1.0
C      1  0.4727600000000  0.4556120000000  0.4821910000000 1.0
C      1  0.4473390000000  0.5310400000000  0.4810900000000 1.0
C      1  0.5283190000000  0.5495570000000  0.4862730000000 1.0
C      1  0.4950900000000  0.5196030000000  0.4974360000000 1.0
C      1  0.4709280000000  0.4856580000000  0.4438050000000 1.0
C      1  0.5119410000000  0.4462380000000  0.5077380000000 1.0
C      1  0.4466330000000  0.5138170000000  0.4999850000000 1.0
C      1  0.4565070000000  0.4953120000000  0.5184810000000 1.0
C      1  0.4843670000000  0.5298850000000  0.5461680000000 1.0
C      1  0.4838650000000  0.5070970000000  0.4559540000000 1.0
C      1  0.4859610000000  0.5582920000000  0.5403380000000 1.0
C      1  0.5106080000000  0.5178320000000  0.5455140000000 1.0
C      1  0.4796180000000  0.4619520000000  0.4552580000000 1.0
END
