TITL C-141420-3584-1 -0.154417901435353 125000 -449.700910244205 0 0 66 (C1) n - 1
REM
REM in /rds/project/t2_vol4/rds-t2-cs072/BORA/CARBON/from-Arr/AIRSS/Generating-Clusters/GAP-ML-2020/Only-C1/SD-CG/HFTN-CG
REM
REM
REM
REM
REM
REM ./C.cell (11c1c37f851c82e70ff6c80c92926a4b)
REM AIRSS Version 0.9.1 bugfix July 2018 build 013d7b7c2542+ Fri, 06 Jul 2018 19:26:36 +0100
REM compiler GCC version 9.3.0
REM options -cpp -mtune=generic -march=x86-64 -g -O0
REM seed -409256223 1402554892 1163895145 -1217594545 -325872186 1443001531 -1376657531 -1900411887 -306586751 -1326710288 1163127072 -617532008 955419523 -1783592520 349012143 -1151706053 2034643265 63556683 -720956879 -1585914151 -162485444 367393793 -934543988 534444419 1543167287 603062097 735429287 -1212227409 -1097198716 -880111756 873754604 766200630 -1301222652
REM
CELL 1.54180   50.00000   50.00000   50.00000   90.00000   90.00000   90.00000
LATT -1
SFAC C  
C      1  0.5111640000000  0.4974940000000  0.5799620000000 1.0
C      1  0.4227190000000  0.5004840000000  0.4788750000000 1.0
C      1  0.4899090000000  0.4480680000000  0.4606230000000 1.0
C      1  0.4711300000000  0.4977650000000  0.5098390000000 1.0
C      1  0.4240770000000  0.5131150000000  0.5071010000000 1.0
C      1  0.5566020000000  0.4933770000000  0.4633540000000 1.0
C      1  0.4370600000000  0.4720110000000  0.5346310000000 1.0
C      1  0.5441590000000  0.5179220000000  0.5358670000000 1.0
C      1  0.5316380000000  0.4844900000000  0.5689210000000 1.0
C      1  0.4530580000000  0.4492810000000  0.5250530000000 1.0
C      1  0.5066780000000  0.5682760000000  0.4525320000000 1.0
C      1  0.5367180000000  0.4436180000000  0.5040730000000 1.0
C      1  0.4198920000000  0.4844760000000  0.5172790000000 1.0
C      1  0.4827010000000  0.4386410000000  0.4873560000000 1.0
C      1  0.4794260000000  0.5508560000000  0.5409300000000 1.0
C      1  0.4380220000000  0.5304220000000  0.5219480000000 1.0
C      1  0.4709640000000  0.4858520000000  0.4864440000000 1.0
C      1  0.5714480000000  0.4710920000000  0.5010670000000 1.0
C      1  0.5457150000000  0.4657090000000  0.4616440000000 1.0
C      1  0.4567050000000  0.5326000000000  0.5419980000000 1.0
C      1  0.5618480000000  0.5212120000000  0.5101890000000 1.0
C      1  0.5273450000000  0.4924630000000  0.4996630000000 1.0
C      1  0.4924540000000  0.5141320000000  0.5679570000000 1.0
C      1  0.5202890000000  0.5608050000000  0.5209180000000 1.0
C      1  0.4765190000000  0.5261420000000  0.4576210000000 1.0
C      1  0.4870860000000  0.5212680000000  0.5051560000000 1.0
C      1  0.5460190000000  0.4523920000000  0.5300320000000 1.0
C      1  0.4700060000000  0.4604340000000  0.4443470000000 1.0
C      1  0.4190360000000  0.4738790000000  0.4910610000000 1.0
C      1  0.5261460000000  0.5414620000000  0.5417140000000 1.0
C      1  0.5250140000000  0.4677340000000  0.5432270000000 1.0
C      1  0.5755160000000  0.4850550000000  0.5492180000000 1.0
C      1  0.5012500000000  0.5380840000000  0.5550190000000 1.0
C      1  0.4744620000000  0.4583960000000  0.5425400000000 1.0
C      1  0.4583410000000  0.4821240000000  0.5516230000000 1.0
C      1  0.5190150000000  0.4656360000000  0.4901350000000 1.0
C      1  0.4592700000000  0.5073180000000  0.4416720000000 1.0
C      1  0.5513410000000  0.5410340000000  0.4658890000000 1.0
C      1  0.5044350000000  0.4450950000000  0.5063010000000 1.0
C      1  0.5098180000000  0.5128310000000  0.4889660000000 1.0
C      1  0.5005660000000  0.4538430000000  0.5341850000000 1.0
C      1  0.4705010000000  0.5384600000000  0.4852220000000 1.0
C      1  0.4790700000000  0.5645540000000  0.4916560000000 1.0
C      1  0.4872040000000  0.5782430000000  0.4693420000000 1.0
C      1  0.5203110000000  0.5158550000000  0.4403040000000 1.0
C      1  0.5591620000000  0.5435350000000  0.4947360000000 1.0
C      1  0.4784480000000  0.4856000000000  0.4332450000000 1.0
C      1  0.5156990000000  0.4644070000000  0.4594570000000 1.0
C      1  0.4442180000000  0.4648990000000  0.4554600000000 1.0
C      1  0.5564480000000  0.4520570000000  0.4852420000000 1.0
C      1  0.5307080000000  0.5622500000000  0.4704620000000 1.0
C      1  0.4357730000000  0.4535080000000  0.4802760000000 1.0
C      1  0.5553000000000  0.5009530000000  0.5583330000000 1.0
C      1  0.5272780000000  0.4941190000000  0.5277430000000 1.0
C      1  0.4662030000000  0.5087360000000  0.5574530000000 1.0
C      1  0.5015240000000  0.5376570000000  0.4465450000000 1.0
C      1  0.5199930000000  0.5333700000000  0.4704740000000 1.0
C      1  0.5380440000000  0.5638920000000  0.4993600000000 1.0
C      1  0.5709140000000  0.4669740000000  0.5294470000000 1.0
C      1  0.5052660000000  0.4903310000000  0.4450030000000 1.0
C      1  0.4554650000000  0.4406850000000  0.4977690000000 1.0
C      1  0.4900400000000  0.5006240000000  0.4689820000000 1.0
C      1  0.5481920000000  0.5169150000000  0.4496430000000 1.0
C      1  0.5599910000000  0.4966020000000  0.4932630000000 1.0
C      1  0.4376160000000  0.4943700000000  0.4549510000000 1.0
C      1  0.4910730000000  0.5645160000000  0.5187030000000 1.0
END
