TITL C-141720-2962-1 -28.8981027941825 125000 -746.770227319738 0 0 107 (C1) n - 1
REM
REM in /rds/project/t2_vol4/rds-t2-cs072/BORA/CARBON/from-Arr/AIRSS/Generating-Clusters/GAP-ML-2020/Only-C1/SD-CG/HFTN-CG
REM
REM
REM
REM
REM
REM ./C.cell (11c1c37f851c82e70ff6c80c92926a4b)
REM AIRSS Version 0.9.1 bugfix July 2018 build 013d7b7c2542+ Fri, 06 Jul 2018 19:26:36 +0100
REM compiler GCC version 9.3.0
REM options -cpp -mtune=generic -march=x86-64 -g -O0
REM seed 1336378209 -1596175080 2122751893 -340035625 1416309789 1330461404 1016154374 160260650 -983116191 1005734092 409965551 432238547 -491550074 -534224713 -1351536405 775042595 1347397828 140897805 -1625839304 309242532 -257718965 755151779 -1782689007 -1483459320 760323709 -2043860116 1401355056 421484764 1325596027 -1974716377 1033417523 -870675368 1834435151
REM
CELL 1.54180   50.00000   50.00000   50.00000   90.00000   90.00000   90.00000
LATT -1
SFAC C  
C      1  0.4962060000000  0.4988880000000  0.5108510000000 1.0
C      1  0.4595720000000  0.5187470000000  0.4981010000000 1.0
C      1  0.4272080000000  0.5120450000000  0.5425110000000 1.0
C      1  0.5678350000000  0.4395940000000  0.4855970000000 1.0
C      1  0.5218220000000  0.4845090000000  0.5102520000000 1.0
C      1  0.5482010000000  0.4650640000000  0.5557790000000 1.0
C      1  0.4542500000000  0.4246470000000  0.5337650000000 1.0
C      1  0.5659140000000  0.4851470000000  0.5606300000000 1.0
C      1  0.5859460000000  0.4811270000000  0.4777070000000 1.0
C      1  0.5273010000000  0.4325740000000  0.5218730000000 1.0
C      1  0.4585630000000  0.5727110000000  0.5441050000000 1.0
C      1  0.4714310000000  0.4597830000000  0.5622500000000 1.0
C      1  0.5022400000000  0.5162460000000  0.5354080000000 1.0
C      1  0.4771010000000  0.5297030000000  0.4267810000000 1.0
C      1  0.4741670000000  0.5129740000000  0.5482470000000 1.0
C      1  0.5818950000000  0.5243260000000  0.5055680000000 1.0
C      1  0.5030110000000  0.4297920000000  0.5390140000000 1.0
C      1  0.4213540000000  0.5546700000000  0.5218170000000 1.0
C      1  0.5268140000000  0.5367580000000  0.4325640000000 1.0
C      1  0.4793580000000  0.4327770000000  0.4485830000000 1.0
C      1  0.4207280000000  0.4640830000000  0.4862550000000 1.0
C      1  0.5313130000000  0.5068930000000  0.4341950000000 1.0
C      1  0.5606900000000  0.5586170000000  0.5361520000000 1.0
C      1  0.4869950000000  0.5828510000000  0.5024330000000 1.0
C      1  0.5424310000000  0.5377070000000  0.5756930000000 1.0
C      1  0.4345520000000  0.5576090000000  0.5472600000000 1.0
C      1  0.5784040000000  0.5043740000000  0.4614840000000 1.0
C      1  0.5005310000000  0.5687170000000  0.5229960000000 1.0
C      1  0.4371050000000  0.5682370000000  0.5013650000000 1.0
C      1  0.4683600000000  0.4633040000000  0.5009780000000 1.0
C      1  0.5609810000000  0.4658110000000  0.4418710000000 1.0
C      1  0.5411640000000  0.5493410000000  0.4529720000000 1.0
C      1  0.4260010000000  0.4601440000000  0.5378380000000 1.0
C      1  0.5029110000000  0.5249180000000  0.4691430000000 1.0
C      1  0.5161470000000  0.5423300000000  0.5818060000000 1.0
C      1  0.5819010000000  0.5282000000000  0.4771660000000 1.0
C      1  0.4743670000000  0.4874960000000  0.5678520000000 1.0
C      1  0.5222850000000  0.4595090000000  0.4760570000000 1.0
C      1  0.4381030000000  0.4253440000000  0.5097560000000 1.0
C      1  0.5383350000000  0.5907360000000  0.5080920000000 1.0
C      1  0.5304760000000  0.4317380000000  0.4556300000000 1.0
C      1  0.4752720000000  0.4734070000000  0.4763430000000 1.0
C      1  0.5596400000000  0.4948370000000  0.4403800000000 1.0
C      1  0.4487420000000  0.4462430000000  0.5505080000000 1.0
C      1  0.4553270000000  0.5078470000000  0.5251220000000 1.0
C      1  0.5525690000000  0.5711120000000  0.4660050000000 1.0
C      1  0.4883100000000  0.5243460000000  0.4946620000000 1.0
C      1  0.5472180000000  0.4221880000000  0.4782400000000 1.0
C      1  0.5630840000000  0.5470960000000  0.5095950000000 1.0
C      1  0.5153710000000  0.5784810000000  0.5460620000000 1.0
C      1  0.4360840000000  0.5333290000000  0.4596440000000 1.0
C      1  0.5177180000000  0.4745140000000  0.5601600000000 1.0
C      1  0.4539680000000  0.4322780000000  0.4630750000000 1.0
C      1  0.5611790000000  0.5363860000000  0.5560230000000 1.0
C      1  0.5163780000000  0.4559240000000  0.5039900000000 1.0
C      1  0.5287240000000  0.5359370000000  0.4761660000000 1.0
C      1  0.5031660000000  0.4201320000000  0.4590110000000 1.0
C      1  0.4991090000000  0.4934730000000  0.5802090000000 1.0
C      1  0.5040470000000  0.5660290000000  0.5689390000000 1.0
C      1  0.4982670000000  0.4514320000000  0.5567100000000 1.0
C      1  0.4684700000000  0.4809890000000  0.4315420000000 1.0
C      1  0.5105360000000  0.4932160000000  0.4171950000000 1.0
C      1  0.5094930000000  0.4636410000000  0.4159750000000 1.0
C      1  0.4540970000000  0.5409390000000  0.4388330000000 1.0
C      1  0.5735910000000  0.5087220000000  0.5494040000000 1.0
C      1  0.4607020000000  0.5653520000000  0.4546330000000 1.0
C      1  0.4217430000000  0.4481880000000  0.5106770000000 1.0
C      1  0.5012190000000  0.5818940000000  0.4768820000000 1.0
C      1  0.4031760000000  0.5116820000000  0.5009950000000 1.0
C      1  0.4105330000000  0.5278810000000  0.5213830000000 1.0
C      1  0.4958310000000  0.5219890000000  0.5847490000000 1.0
C      1  0.4398990000000  0.5596160000000  0.4739780000000 1.0
C      1  0.5332950000000  0.4880420000000  0.4831410000000 1.0
C      1  0.4210470000000  0.4848470000000  0.5464020000000 1.0
C      1  0.5037390000000  0.4097670000000  0.4854020000000 1.0
C      1  0.5837090000000  0.5022470000000  0.5222610000000 1.0
C      1  0.4805060000000  0.4167800000000  0.5272890000000 1.0
C      1  0.5000220000000  0.4726070000000  0.4623160000000 1.0
C      1  0.4175860000000  0.4930300000000  0.4872300000000 1.0
C      1  0.4890460000000  0.5685710000000  0.4546020000000 1.0
C      1  0.4988400000000  0.5423250000000  0.4415450000000 1.0
C      1  0.5412250000000  0.5805070000000  0.5341180000000 1.0
C      1  0.5291330000000  0.4464850000000  0.4062610000000 1.0
C      1  0.5407740000000  0.4468180000000  0.4320940000000 1.0
C      1  0.5520880000000  0.4459610000000  0.5332890000000 1.0
C      1  0.5333910000000  0.5389980000000  0.5030310000000 1.0
C      1  0.4796690000000  0.4099880000000  0.4994890000000 1.0
C      1  0.4611110000000  0.5788530000000  0.5147800000000 1.0
C      1  0.4831690000000  0.5022270000000  0.4205840000000 1.0
C      1  0.4385320000000  0.5336030000000  0.5613460000000 1.0
C      1  0.4543390000000  0.4179450000000  0.4878300000000 1.0
C      1  0.5311420000000  0.5854630000000  0.4824370000000 1.0
C      1  0.5157270000000  0.4999560000000  0.4617290000000 1.0
C      1  0.4761180000000  0.5616720000000  0.5649950000000 1.0
C      1  0.5836190000000  0.4780070000000  0.5066780000000 1.0
C      1  0.5709530000000  0.5556390000000  0.4807260000000 1.0
C      1  0.5074290000000  0.5393830000000  0.5169460000000 1.0
C      1  0.4715260000000  0.4846960000000  0.5162170000000 1.0
C      1  0.4408560000000  0.5064980000000  0.4731800000000 1.0
C      1  0.4529630000000  0.4819440000000  0.4573920000000 1.0
C      1  0.4869070000000  0.4580950000000  0.4343570000000 1.0
C      1  0.4685180000000  0.5339840000000  0.5699350000000 1.0
C      1  0.5292890000000  0.4139560000000  0.4982880000000 1.0
C      1  0.5755580000000  0.4580330000000  0.4650620000000 1.0
C      1  0.4370520000000  0.4565650000000  0.4637400000000 1.0
C      1  0.5229550000000  0.4951040000000  0.5381010000000 1.0
C      1  0.5707330000000  0.4522600000000  0.5117160000000 1.0
END
