TITL C-142175-2738-6 -54.978526996519 125000 -461.532872122254 0 0 67 (C1) n - 1
REM
REM in /rds/project/t2_vol4/rds-t2-cs072/BORA/CARBON/from-Arr/AIRSS/Generating-Clusters/GAP-ML-2020/Only-C1/SD-CG/HFTN-CG
REM
REM
REM
REM
REM
REM ./C.cell (11c1c37f851c82e70ff6c80c92926a4b)
REM AIRSS Version 0.9.1 bugfix July 2018 build 013d7b7c2542+ Fri, 06 Jul 2018 19:26:36 +0100
REM compiler GCC version 9.3.0
REM options -cpp -mtune=generic -march=x86-64 -g -O0
REM seed 1460537568 1517274371 1205788639 1655374560 -954810488 -469874909 -1463999740 -1346844609 -1020289360 -1807915397 -1994635270 -27884994 1417378929 -797780421 842894588 -1607875925 876741892 493321569 1615626031 -1537208925 -693316176 -77124765 1278413604 -1236020700 1755177240 -1155742845 977324298 269487653 1152577365 1488304408 1738119779 1419382836 1937237945
REM
CELL 1.54180   50.00000   50.00000   50.00000   90.00000   90.00000   90.00000
LATT -1
SFAC C  
C      1  0.4496280000000  0.5243800000000  0.5053370000000 1.0
C      1  0.4934540000000  0.5638250000000  0.5387270000000 1.0
C      1  0.4834890000000  0.4496670000000  0.5516800000000 1.0
C      1  0.5201370000000  0.5189110000000  0.5081510000000 1.0
C      1  0.5112050000000  0.4491830000000  0.5532520000000 1.0
C      1  0.4491830000000  0.4514780000000  0.4790300000000 1.0
C      1  0.5071070000000  0.5505990000000  0.4738530000000 1.0
C      1  0.5509250000000  0.4461400000000  0.4967480000000 1.0
C      1  0.5595090000000  0.5283570000000  0.5350660000000 1.0
C      1  0.4551060000000  0.5524200000000  0.5096620000000 1.0
C      1  0.5237080000000  0.4960990000000  0.4908730000000 1.0
C      1  0.5566210000000  0.4646760000000  0.4751680000000 1.0
C      1  0.5001420000000  0.5329690000000  0.5754360000000 1.0
C      1  0.4613220000000  0.5533850000000  0.4601230000000 1.0
C      1  0.4703110000000  0.5283490000000  0.4499160000000 1.0
C      1  0.5219420000000  0.5112860000000  0.4410190000000 1.0
C      1  0.5194150000000  0.4406220000000  0.4628270000000 1.0
C      1  0.4346240000000  0.5079680000000  0.5230130000000 1.0
C      1  0.5288860000000  0.4301880000000  0.4879890000000 1.0
C      1  0.4953040000000  0.5153560000000  0.5209010000000 1.0
C      1  0.4762080000000  0.5120990000000  0.4974630000000 1.0
C      1  0.5249870000000  0.4362660000000  0.5327260000000 1.0
C      1  0.5348630000000  0.5489790000000  0.4716090000000 1.0
C      1  0.5288390000000  0.4804150000000  0.4336070000000 1.0
C      1  0.5738100000000  0.5155280000000  0.4883600000000 1.0
C      1  0.5420330000000  0.5289090000000  0.4529360000000 1.0
C      1  0.4332470000000  0.4948660000000  0.4686030000000 1.0
C      1  0.4899120000000  0.5241630000000  0.4727770000000 1.0
C      1  0.4871940000000  0.4778830000000  0.4630860000000 1.0
C      1  0.4748210000000  0.5244250000000  0.5721730000000 1.0
C      1  0.4927400000000  0.4483380000000  0.4619660000000 1.0
C      1  0.4856900000000  0.4922590000000  0.4209920000000 1.0
C      1  0.4984060000000  0.4885340000000  0.5347810000000 1.0
C      1  0.4726730000000  0.4375290000000  0.4799260000000 1.0
C      1  0.4660290000000  0.5639620000000  0.4858500000000 1.0
C      1  0.5556500000000  0.4919460000000  0.4836520000000 1.0
C      1  0.5071360000000  0.5721580000000  0.5152660000000 1.0
C      1  0.4828870000000  0.4297830000000  0.5058700000000 1.0
C      1  0.5211200000000  0.4764970000000  0.5521880000000 1.0
C      1  0.4340120000000  0.4734590000000  0.4860050000000 1.0
C      1  0.4677420000000  0.4837050000000  0.4416870000000 1.0
C      1  0.5621720000000  0.5016380000000  0.5433500000000 1.0
C      1  0.4514940000000  0.4646400000000  0.5299480000000 1.0
C      1  0.4688440000000  0.4409860000000  0.5283930000000 1.0
C      1  0.5344540000000  0.5648220000000  0.5180250000000 1.0
C      1  0.4655940000000  0.5563940000000  0.5359430000000 1.0
C      1  0.5380480000000  0.4607910000000  0.4530790000000 1.0
C      1  0.5066540000000  0.4743150000000  0.4194450000000 1.0
C      1  0.4503970000000  0.5042700000000  0.4503920000000 1.0
C      1  0.5125310000000  0.5489080000000  0.5560860000000 1.0
C      1  0.5495130000000  0.5553000000000  0.4961940000000 1.0
C      1  0.5479140000000  0.4518850000000  0.5252070000000 1.0
C      1  0.5622270000000  0.5127940000000  0.4638190000000 1.0
C      1  0.4557280000000  0.5391780000000  0.5558050000000 1.0
C      1  0.4599540000000  0.4992880000000  0.5655270000000 1.0
C      1  0.4941390000000  0.5180900000000  0.4293470000000 1.0
C      1  0.4342850000000  0.4801930000000  0.5147430000000 1.0
C      1  0.4942990000000  0.5693720000000  0.4902460000000 1.0
C      1  0.5075550000000  0.5012020000000  0.4656740000000 1.0
C      1  0.5384610000000  0.5489550000000  0.5414660000000 1.0
C      1  0.4798780000000  0.4827430000000  0.4916510000000 1.0
C      1  0.4722820000000  0.4780210000000  0.5494460000000 1.0
C      1  0.5111910000000  0.4255080000000  0.5097510000000 1.0
C      1  0.4404750000000  0.5148380000000  0.5496090000000 1.0
C      1  0.5665660000000  0.5349030000000  0.5069670000000 1.0
C      1  0.5486390000000  0.4777100000000  0.5437590000000 1.0
C      1  0.5046860000000  0.4756940000000  0.5058380000000 1.0
END
