TITL C-140205-7080-4 -8.77144497194064 125000 -662.154752698215 0 0 95 (C1) n - 1
REM
REM in /rds/project/t2_vol4/rds-t2-cs072/BORA/CARBON/from-Arr/AIRSS/Generating-Clusters/GAP-ML-2020/Only-C1/SD-CG/HFTN-CG
REM
REM
REM
REM
REM
REM ./C.cell (11c1c37f851c82e70ff6c80c92926a4b)
REM AIRSS Version 0.9.1 bugfix July 2018 build 013d7b7c2542+ Fri, 06 Jul 2018 19:26:36 +0100
REM compiler GCC version 9.3.0
REM options -cpp -mtune=generic -march=x86-64 -g -O0
REM seed -457429943 -1112510757 -558546945 -1701244871 -2022133238 242364876 -1525472545 -1242817270 -960105088 -229782480 127175338 614522363 -1463933822 -1596321409 -599681995 -625840600 825883550 -258747113 -1162763139 324725895 -1185900816 1854478113 -935538813 1399271829 1705810865 1212263162 664639625 -1748369353 626277585 2088390452 -578002598 -932542323 1932994740
REM
CELL 1.54180   50.00000   50.00000   50.00000   90.00000   90.00000   90.00000
LATT -1
SFAC C  
C      1  0.5118960000000  0.5043470000000  0.5414380000000 1.0
C      1  0.4185930000000  0.4528340000000  0.5146440000000 1.0
C      1  0.5342470000000  0.5210320000000  0.5815980000000 1.0
C      1  0.4426000000000  0.5288550000000  0.4645460000000 1.0
C      1  0.4376290000000  0.5095200000000  0.5533930000000 1.0
C      1  0.5469020000000  0.4332890000000  0.4658760000000 1.0
C      1  0.4147050000000  0.5002360000000  0.4931680000000 1.0
C      1  0.4894530000000  0.5270130000000  0.4252400000000 1.0
C      1  0.4998600000000  0.4694340000000  0.4857920000000 1.0
C      1  0.5750600000000  0.5290620000000  0.5014230000000 1.0
C      1  0.5623380000000  0.5230870000000  0.4494480000000 1.0
C      1  0.5042370000000  0.5667040000000  0.4537960000000 1.0
C      1  0.5496300000000  0.5535340000000  0.5444920000000 1.0
C      1  0.5122610000000  0.5051510000000  0.5879480000000 1.0
C      1  0.4268660000000  0.4652450000000  0.5370840000000 1.0
C      1  0.5052160000000  0.5886330000000  0.5028560000000 1.0
C      1  0.4563330000000  0.5134160000000  0.4858510000000 1.0
C      1  0.4271970000000  0.5354060000000  0.5241030000000 1.0
C      1  0.4369400000000  0.5383570000000  0.5512770000000 1.0
C      1  0.4865610000000  0.4375640000000  0.4276540000000 1.0
C      1  0.4804470000000  0.4688390000000  0.5540290000000 1.0
C      1  0.4602240000000  0.4363960000000  0.5143020000000 1.0
C      1  0.5089480000000  0.5592230000000  0.5682420000000 1.0
C      1  0.4610590000000  0.5064250000000  0.5340430000000 1.0
C      1  0.4882770000000  0.5168550000000  0.5754240000000 1.0
C      1  0.5384870000000  0.5350480000000  0.4364830000000 1.0
C      1  0.4926850000000  0.4554390000000  0.4085090000000 1.0
C      1  0.5377130000000  0.4820820000000  0.4388820000000 1.0
C      1  0.4744440000000  0.5014380000000  0.4218790000000 1.0
C      1  0.5549170000000  0.4802570000000  0.5430330000000 1.0
C      1  0.5673430000000  0.4374120000000  0.4852430000000 1.0
C      1  0.5314800000000  0.4255130000000  0.5099540000000 1.0
C      1  0.5069270000000  0.4311910000000  0.5264790000000 1.0
C      1  0.4117300000000  0.5108380000000  0.5190740000000 1.0
C      1  0.4965800000000  0.4195740000000  0.4797580000000 1.0
C      1  0.5342310000000  0.5445140000000  0.5681960000000 1.0
C      1  0.5838380000000  0.4747120000000  0.5055760000000 1.0
C      1  0.4829950000000  0.5504960000000  0.4408740000000 1.0
C      1  0.4940510000000  0.4588700000000  0.5785460000000 1.0
C      1  0.4689560000000  0.5650890000000  0.4823410000000 1.0
C      1  0.5576470000000  0.4368760000000  0.5121420000000 1.0
C      1  0.5828120000000  0.4607190000000  0.4802080000000 1.0
C      1  0.5050970000000  0.4208190000000  0.5542440000000 1.0
C      1  0.4611920000000  0.4821370000000  0.5172740000000 1.0
C      1  0.5118240000000  0.5804520000000  0.5492540000000 1.0
C      1  0.4918070000000  0.4794940000000  0.5111550000000 1.0
C      1  0.4538920000000  0.5281070000000  0.5118170000000 1.0
C      1  0.5512940000000  0.4551210000000  0.4461740000000 1.0
C      1  0.5252750000000  0.4210520000000  0.4825470000000 1.0
C      1  0.4935550000000  0.5790630000000  0.4782390000000 1.0
C      1  0.4489010000000  0.4640630000000  0.4487620000000 1.0
C      1  0.4844640000000  0.5447070000000  0.5707950000000 1.0
C      1  0.5003330000000  0.4318100000000  0.5765740000000 1.0
C      1  0.4847950000000  0.4254910000000  0.5063970000000 1.0
C      1  0.5824390000000  0.5023730000000  0.5111970000000 1.0
C      1  0.5670890000000  0.5058020000000  0.5357360000000 1.0
C      1  0.5117090000000  0.5072970000000  0.5130290000000 1.0
C      1  0.5178580000000  0.5210180000000  0.4218140000000 1.0
C      1  0.4380270000000  0.4436920000000  0.4967290000000 1.0
C      1  0.4415060000000  0.4635220000000  0.4758450000000 1.0
C      1  0.4985050000000  0.5285840000000  0.4990260000000 1.0
C      1  0.5674480000000  0.4608850000000  0.5252120000000 1.0
C      1  0.4150680000000  0.5144320000000  0.4674730000000 1.0
C      1  0.5638940000000  0.5346210000000  0.5289280000000 1.0
C      1  0.4964010000000  0.4913340000000  0.4664510000000 1.0
C      1  0.4632270000000  0.4402500000000  0.4435990000000 1.0
C      1  0.4720850000000  0.5663560000000  0.5309650000000 1.0
C      1  0.4845780000000  0.5137660000000  0.4787780000000 1.0
C      1  0.4947520000000  0.4824550000000  0.4125780000000 1.0
C      1  0.4188820000000  0.4930590000000  0.5403250000000 1.0
C      1  0.4596860000000  0.5518850000000  0.4587640000000 1.0
C      1  0.5209430000000  0.4931590000000  0.4172930000000 1.0
C      1  0.4621920000000  0.5523130000000  0.5542000000000 1.0
C      1  0.5335690000000  0.5870730000000  0.5086150000000 1.0
C      1  0.5517460000000  0.5820770000000  0.4893300000000 1.0
C      1  0.4724820000000  0.5496830000000  0.5075980000000 1.0
C      1  0.4429830000000  0.4873300000000  0.4925810000000 1.0
C      1  0.5296050000000  0.4695890000000  0.4904760000000 1.0
C      1  0.4502190000000  0.4902650000000  0.4351310000000 1.0
C      1  0.4839060000000  0.4252450000000  0.4546480000000 1.0
C      1  0.5332310000000  0.4969110000000  0.4928840000000 1.0
C      1  0.5650400000000  0.4956580000000  0.4433280000000 1.0
C      1  0.4312420000000  0.5084370000000  0.4464890000000 1.0
C      1  0.5149380000000  0.4783470000000  0.5789840000000 1.0
C      1  0.5034860000000  0.4625900000000  0.5340560000000 1.0
C      1  0.5312400000000  0.5580850000000  0.4510250000000 1.0
C      1  0.5674010000000  0.5376290000000  0.4745090000000 1.0
C      1  0.5367460000000  0.5776510000000  0.5358180000000 1.0
C      1  0.4924110000000  0.5854450000000  0.5291710000000 1.0
C      1  0.5243960000000  0.4985140000000  0.4637700000000 1.0
C      1  0.4833900000000  0.5001880000000  0.5521590000000 1.0
C      1  0.5749790000000  0.4708200000000  0.4546110000000 1.0
C      1  0.4572280000000  0.4586380000000  0.5361000000000 1.0
C      1  0.5254500000000  0.4787920000000  0.5506680000000 1.0
C      1  0.5512800000000  0.5613870000000  0.4720300000000 1.0
END
