TITL C-140202-7025-8 3.17110577042734 125000 -691.091732461035 0 0 98 (C1) n - 1
REM
REM in /rds/project/t2_vol4/rds-t2-cs072/BORA/CARBON/from-Arr/AIRSS/Generating-Clusters/GAP-ML-2020/Only-C1/SD-CG/HFTN-CG
REM
REM
REM
REM
REM
REM ./C.cell (11c1c37f851c82e70ff6c80c92926a4b)
REM AIRSS Version 0.9.1 bugfix July 2018 build 013d7b7c2542+ Fri, 06 Jul 2018 19:26:36 +0100
REM compiler GCC version 9.3.0
REM options -cpp -mtune=generic -march=x86-64 -g -O0
REM seed 1598260932 311896925 1838077043 -592665341 -846397882 951306867 -676038900 -684368169 -42090982 -1105005444 491405073 -784722649 -393456735 -762733283 -1359337872 -364385549 1558127477 -1533268623 -4251661 -2105860622 -1107580388 968627018 1501495870 -962069350 2021014171 -2146605645 -1563935901 -1268151208 -1714513975 1634094776 -289824421 1188435031 984776540
REM
CELL 1.54180   50.00000   50.00000   50.00000   90.00000   90.00000   90.00000
LATT -1
SFAC C  
C      1  0.4781400000000  0.5911620000000  0.5131560000000 1.0
C      1  0.4411840000000  0.4843040000000  0.5271350000000 1.0
C      1  0.4996560000000  0.5103520000000  0.5480590000000 1.0
C      1  0.5097240000000  0.5341880000000  0.4803420000000 1.0
C      1  0.4588490000000  0.5022280000000  0.5887470000000 1.0
C      1  0.4913700000000  0.5090970000000  0.5191220000000 1.0
C      1  0.5976320000000  0.4707230000000  0.4714040000000 1.0
C      1  0.5067390000000  0.5554620000000  0.4591070000000 1.0
C      1  0.4901910000000  0.4745630000000  0.5838020000000 1.0
C      1  0.5979460000000  0.4771730000000  0.4979040000000 1.0
C      1  0.5633590000000  0.5467230000000  0.5271720000000 1.0
C      1  0.5116770000000  0.4519400000000  0.4305140000000 1.0
C      1  0.4773070000000  0.4328030000000  0.4554830000000 1.0
C      1  0.4517340000000  0.5147790000000  0.4150510000000 1.0
C      1  0.4276390000000  0.5118500000000  0.5249740000000 1.0
C      1  0.5239320000000  0.4228580000000  0.5057250000000 1.0
C      1  0.4974550000000  0.4805520000000  0.4760190000000 1.0
C      1  0.5852810000000  0.4795660000000  0.5433660000000 1.0
C      1  0.4792090000000  0.4528340000000  0.5454760000000 1.0
C      1  0.4633270000000  0.4404880000000  0.4818160000000 1.0
C      1  0.4650240000000  0.4925080000000  0.5067470000000 1.0
C      1  0.4622050000000  0.5602040000000  0.4680880000000 1.0
C      1  0.4683310000000  0.5113730000000  0.4628060000000 1.0
C      1  0.5547030000000  0.4583570000000  0.5180680000000 1.0
C      1  0.4872000000000  0.5741320000000  0.4666650000000 1.0
C      1  0.4950950000000  0.5078990000000  0.4673070000000 1.0
C      1  0.5241080000000  0.5002810000000  0.4199340000000 1.0
C      1  0.5383060000000  0.4465720000000  0.4947100000000 1.0
C      1  0.5530630000000  0.4672290000000  0.4484270000000 1.0
C      1  0.5973030000000  0.5054330000000  0.5063200000000 1.0
C      1  0.4317320000000  0.5074060000000  0.4332370000000 1.0
C      1  0.4711830000000  0.4943810000000  0.4112420000000 1.0
C      1  0.5064410000000  0.5369150000000  0.5666380000000 1.0
C      1  0.5641650000000  0.4721540000000  0.5605000000000 1.0
C      1  0.5246030000000  0.4424880000000  0.5527630000000 1.0
C      1  0.5633040000000  0.5404560000000  0.4995390000000 1.0
C      1  0.4544670000000  0.5142540000000  0.4885090000000 1.0
C      1  0.4906320000000  0.5277570000000  0.5893350000000 1.0
C      1  0.5224690000000  0.4337430000000  0.4500020000000 1.0
C      1  0.5211710000000  0.4896180000000  0.5525660000000 1.0
C      1  0.5353680000000  0.5394060000000  0.5629790000000 1.0
C      1  0.5504180000000  0.5239580000000  0.4574730000000 1.0
C      1  0.4599270000000  0.5763010000000  0.5274470000000 1.0
C      1  0.4779770000000  0.4231200000000  0.5019230000000 1.0
C      1  0.4150400000000  0.5309200000000  0.4739810000000 1.0
C      1  0.5064430000000  0.5889140000000  0.5160350000000 1.0
C      1  0.4214690000000  0.4687470000000  0.5107880000000 1.0
C      1  0.4335990000000  0.4449080000000  0.4803800000000 1.0
C      1  0.4263200000000  0.4696780000000  0.4650240000000 1.0
C      1  0.5442600000000  0.4447680000000  0.4644720000000 1.0
C      1  0.4525450000000  0.5437360000000  0.5597190000000 1.0
C      1  0.4690950000000  0.5661010000000  0.5522700000000 1.0
C      1  0.5014540000000  0.4200880000000  0.4623460000000 1.0
C      1  0.4635410000000  0.5394610000000  0.4218970000000 1.0
C      1  0.4910160000000  0.5347860000000  0.5030560000000 1.0
C      1  0.5768440000000  0.4829150000000  0.4576290000000 1.0
C      1  0.5164020000000  0.5727420000000  0.5373910000000 1.0
C      1  0.4166910000000  0.4428040000000  0.5026700000000 1.0
C      1  0.4374110000000  0.4798270000000  0.4409740000000 1.0
C      1  0.5047790000000  0.4639030000000  0.5598980000000 1.0
C      1  0.5334090000000  0.5238600000000  0.4349420000000 1.0
C      1  0.4918340000000  0.5352520000000  0.4179910000000 1.0
C      1  0.4817880000000  0.4505090000000  0.4329110000000 1.0
C      1  0.5382430000000  0.5045220000000  0.5027110000000 1.0
C      1  0.4167080000000  0.4851480000000  0.4873230000000 1.0
C      1  0.4972870000000  0.5075360000000  0.4109210000000 1.0
C      1  0.5020950000000  0.4145350000000  0.4897880000000 1.0
C      1  0.5132840000000  0.5446580000000  0.4341130000000 1.0
C      1  0.5319410000000  0.4735970000000  0.4283910000000 1.0
C      1  0.4853700000000  0.4301020000000  0.5292940000000 1.0
C      1  0.5554020000000  0.5199020000000  0.5649980000000 1.0
C      1  0.5406500000000  0.5575040000000  0.5417310000000 1.0
C      1  0.4624190000000  0.4708230000000  0.4258480000000 1.0
C      1  0.4552000000000  0.4689610000000  0.5493040000000 1.0
C      1  0.5747640000000  0.5113720000000  0.4637400000000 1.0
C      1  0.5385260000000  0.5285100000000  0.4849830000000 1.0
C      1  0.4624160000000  0.5426400000000  0.4936570000000 1.0
C      1  0.5465090000000  0.4927940000000  0.5687690000000 1.0
C      1  0.4970290000000  0.5627090000000  0.5557230000000 1.0
C      1  0.5145340000000  0.4905630000000  0.5086090000000 1.0
C      1  0.5834760000000  0.5225910000000  0.4889790000000 1.0
C      1  0.5909640000000  0.5059270000000  0.5347220000000 1.0
C      1  0.4619220000000  0.5292840000000  0.5819870000000 1.0
C      1  0.4614040000000  0.4777180000000  0.5756830000000 1.0
C      1  0.5132140000000  0.4672700000000  0.4936200000000 1.0
C      1  0.4735130000000  0.4712160000000  0.4882060000000 1.0
C      1  0.4373610000000  0.5361060000000  0.5356280000000 1.0
C      1  0.4932170000000  0.5869190000000  0.4908030000000 1.0
C      1  0.4892810000000  0.4997180000000  0.5957180000000 1.0
C      1  0.5135500000000  0.4266080000000  0.5321710000000 1.0
C      1  0.5505750000000  0.4502540000000  0.5471070000000 1.0
C      1  0.4230500000000  0.5123270000000  0.4942240000000 1.0
C      1  0.4465200000000  0.5547030000000  0.5154220000000 1.0
C      1  0.4268010000000  0.5312650000000  0.4497400000000 1.0
C      1  0.5748750000000  0.5264650000000  0.5449920000000 1.0
C      1  0.4492850000000  0.5497750000000  0.4449230000000 1.0
C      1  0.5835940000000  0.4642550000000  0.5190230000000 1.0
C      1  0.5395370000000  0.4882100000000  0.5251800000000 1.0
END
