TITL C-141429-3332-6 0.0496346165448987 125000 -279.339856930933 0 0 41 (C1) n - 1
REM
REM in /rds/project/t2_vol4/rds-t2-cs072/BORA/CARBON/from-Arr/AIRSS/Generating-Clusters/GAP-ML-2020/Only-C1/SD-CG/HFTN-CG
REM
REM
REM
REM
REM
REM ./C.cell (11c1c37f851c82e70ff6c80c92926a4b)
REM AIRSS Version 0.9.1 bugfix July 2018 build 013d7b7c2542+ Fri, 06 Jul 2018 19:26:36 +0100
REM compiler GCC version 9.3.0
REM options -cpp -mtune=generic -march=x86-64 -g -O0
REM seed 1778937794 680585852 638301714 -1261465903 -2048686296 -446503294 1092385182 607387284 -826726564 -938203679 369032415 968567076 -232838453 -434680799 -278607100 687140716 474280993 8440250 1126770360 -2008492559 -1359809109 -1911869199 -439450089 19426398 -968514365 1142870710 390107166 -2077391437 946204570 -1355825513 1530833876 1288312729 -1009088979
REM
CELL 1.54180   50.00000   50.00000   50.00000   90.00000   90.00000   90.00000
LATT -1
SFAC C  
C      1  0.4751860000000  0.4660690000000  0.4326720000000 1.0
C      1  0.5409650000000  0.4637400000000  0.5079120000000 1.0
C      1  0.5470400000000  0.5248050000000  0.5244000000000 1.0
C      1  0.5146420000000  0.4701680000000  0.4429820000000 1.0
C      1  0.4824540000000  0.4465540000000  0.4712700000000 1.0
C      1  0.4471590000000  0.5075220000000  0.5157690000000 1.0
C      1  0.5162970000000  0.4608070000000  0.5401410000000 1.0
C      1  0.4676510000000  0.5367450000000  0.4802730000000 1.0
C      1  0.4666820000000  0.4651880000000  0.5162580000000 1.0
C      1  0.5653960000000  0.4989980000000  0.4867510000000 1.0
C      1  0.5184180000000  0.5544510000000  0.5186960000000 1.0
C      1  0.5146480000000  0.4502310000000  0.5138350000000 1.0
C      1  0.5130120000000  0.5044340000000  0.5559440000000 1.0
C      1  0.5220890000000  0.4846600000000  0.4671430000000 1.0
C      1  0.4988140000000  0.4783450000000  0.5528970000000 1.0
C      1  0.4692560000000  0.5148450000000  0.4625540000000 1.0
C      1  0.5433050000000  0.5510770000000  0.5304130000000 1.0
C      1  0.4560410000000  0.5335670000000  0.5072810000000 1.0
C      1  0.5137320000000  0.5519920000000  0.4896700000000 1.0
C      1  0.4698180000000  0.5246440000000  0.5517670000000 1.0
C      1  0.4634490000000  0.4651330000000  0.4592030000000 1.0
C      1  0.4965990000000  0.4477780000000  0.4459190000000 1.0
C      1  0.4964230000000  0.4858010000000  0.4877180000000 1.0
C      1  0.4654430000000  0.4884790000000  0.4749310000000 1.0
C      1  0.5382580000000  0.5029340000000  0.5418430000000 1.0
C      1  0.4580420000000  0.5019770000000  0.5424780000000 1.0
C      1  0.4701270000000  0.5443230000000  0.5296060000000 1.0
C      1  0.5413080000000  0.4760320000000  0.5338910000000 1.0
C      1  0.5299830000000  0.5321850000000  0.4766900000000 1.0
C      1  0.4929310000000  0.5112960000000  0.4461310000000 1.0
C      1  0.4998750000000  0.5054790000000  0.5084430000000 1.0
C      1  0.4979220000000  0.5279550000000  0.5563920000000 1.0
C      1  0.5179750000000  0.5133430000000  0.4596200000000 1.0
C      1  0.5454950000000  0.4799320000000  0.4848900000000 1.0
C      1  0.5500090000000  0.5199210000000  0.4950080000000 1.0
C      1  0.4715340000000  0.4767190000000  0.5422180000000 1.0
C      1  0.4941630000000  0.4874140000000  0.4308800000000 1.0
C      1  0.4904500000000  0.4559300000000  0.4982470000000 1.0
C      1  0.4514410000000  0.4844160000000  0.5007600000000 1.0
C      1  0.4974010000000  0.5500240000000  0.5361110000000 1.0
C      1  0.4885670000000  0.5540870000000  0.4803920000000 1.0
END
