TITL C-149901-9070-6 0.16578888563543 125000 -381.570968857043 0 0 56 (C1) n - 1
REM
REM in /rds/project/t2_vol4/rds-t2-cs072/BORA/CARBON/from-Arr/AIRSS/Generating-Clusters/GAP-ML-2020/Only-C1/SD-CG/HFTN-CG
REM
REM
REM
REM
REM
REM ./C.cell (11c1c37f851c82e70ff6c80c92926a4b)
REM AIRSS Version 0.9.1 bugfix July 2018 build 013d7b7c2542+ Fri, 06 Jul 2018 19:26:36 +0100
REM compiler GCC version 9.3.0
REM options -cpp -mtune=generic -march=x86-64 -g -O0
REM seed 158000882 -1289143402 -1855772472 702497229 -1830742301 1859002348 -1829958199 -1657073000 -1055311902 1116631523 -309514257 -660284107 -1407222978 654372089 1785657739 411751516 315453291 1350922161 704009931 837467649 -6869978 -1763883901 -1147088227 647256838 -998262114 1076765956 302778546 -2145034412 -1796246672 -748985127 1866571760 -1500063924 1978897154
REM
CELL 1.54180   50.00000   50.00000   50.00000   90.00000   90.00000   90.00000
LATT -1
SFAC C  
C      1  0.4845740000000  0.4761620000000  0.4391960000000 1.0
C      1  0.5638500000000  0.4642690000000  0.4917070000000 1.0
C      1  0.5182970000000  0.4487560000000  0.4651500000000 1.0
C      1  0.4777540000000  0.5584490000000  0.5116600000000 1.0
C      1  0.4690370000000  0.4811790000000  0.5493640000000 1.0
C      1  0.4687670000000  0.4424500000000  0.4689870000000 1.0
C      1  0.5364560000000  0.5201250000000  0.4463350000000 1.0
C      1  0.4569430000000  0.5283570000000  0.5412840000000 1.0
C      1  0.4933830000000  0.5558060000000  0.5362940000000 1.0
C      1  0.4473170000000  0.4760150000000  0.4917700000000 1.0
C      1  0.4421740000000  0.4980490000000  0.5102800000000 1.0
C      1  0.4427240000000  0.4806650000000  0.4622210000000 1.0
C      1  0.5579500000000  0.5390340000000  0.5080730000000 1.0
C      1  0.4868200000000  0.5596150000000  0.4843180000000 1.0
C      1  0.4519400000000  0.5008820000000  0.5369870000000 1.0
C      1  0.5250220000000  0.5025890000000  0.4803060000000 1.0
C      1  0.4898280000000  0.5354310000000  0.4425580000000 1.0
C      1  0.4750730000000  0.4416920000000  0.5148150000000 1.0
C      1  0.5246280000000  0.4808550000000  0.5006270000000 1.0
C      1  0.5366940000000  0.4540370000000  0.4889930000000 1.0
C      1  0.4899060000000  0.5052780000000  0.4455480000000 1.0
C      1  0.5364080000000  0.4712440000000  0.5447840000000 1.0
C      1  0.4532670000000  0.5250140000000  0.4709900000000 1.0
C      1  0.5333510000000  0.4447030000000  0.5368270000000 1.0
C      1  0.5505350000000  0.5200390000000  0.4725470000000 1.0
C      1  0.4398820000000  0.5059440000000  0.4541880000000 1.0
C      1  0.4811860000000  0.5084910000000  0.4748540000000 1.0
C      1  0.5440210000000  0.5469830000000  0.4846720000000 1.0
C      1  0.4818440000000  0.4639850000000  0.5310830000000 1.0
C      1  0.5469540000000  0.5465050000000  0.5326020000000 1.0
C      1  0.4430420000000  0.5243500000000  0.4981630000000 1.0
C      1  0.5690190000000  0.4874100000000  0.5057150000000 1.0
C      1  0.5256000000000  0.4363040000000  0.5119980000000 1.0
C      1  0.4795810000000  0.5380750000000  0.5547760000000 1.0
C      1  0.4983690000000  0.5121510000000  0.5178550000000 1.0
C      1  0.4626980000000  0.4630240000000  0.4502340000000 1.0
C      1  0.4930460000000  0.5189190000000  0.5701860000000 1.0
C      1  0.4988050000000  0.4305020000000  0.5033480000000 1.0
C      1  0.5223960000000  0.5156290000000  0.5672930000000 1.0
C      1  0.5353160000000  0.5376070000000  0.5566610000000 1.0
C      1  0.5163700000000  0.5418570000000  0.4493150000000 1.0
C      1  0.4560910000000  0.4478170000000  0.4941760000000 1.0
C      1  0.5444500000000  0.4869680000000  0.5216100000000 1.0
C      1  0.4900780000000  0.4910080000000  0.5651150000000 1.0
C      1  0.5198370000000  0.4874160000000  0.5614510000000 1.0
C      1  0.5689610000000  0.5142910000000  0.4947100000000 1.0
C      1  0.5153380000000  0.5500740000000  0.4775360000000 1.0
C      1  0.4963700000000  0.4832750000000  0.5117770000000 1.0
C      1  0.4792010000000  0.4833480000000  0.4882270000000 1.0
C      1  0.5197990000000  0.4964550000000  0.4502370000000 1.0
C      1  0.4545160000000  0.5423120000000  0.5164070000000 1.0
C      1  0.5118180000000  0.4688600000000  0.4463550000000 1.0
C      1  0.4715660000000  0.5477600000000  0.4626680000000 1.0
C      1  0.5038690000000  0.5212330000000  0.4898800000000 1.0
C      1  0.4960300000000  0.4343230000000  0.4749230000000 1.0
C      1  0.5212480000000  0.5564300000000  0.5403670000000 1.0
END
