TITL C-140204-7283-5 -59.5444517752764 125000 -384.986236720574 0 0 57 (C1) n - 1
REM
REM in /rds/project/t2_vol4/rds-t2-cs072/BORA/CARBON/from-Arr/AIRSS/Generating-Clusters/GAP-ML-2020/Only-C1/SD-CG/HFTN-CG
REM
REM
REM
REM
REM
REM ./C.cell (11c1c37f851c82e70ff6c80c92926a4b)
REM AIRSS Version 0.9.1 bugfix July 2018 build 013d7b7c2542+ Fri, 06 Jul 2018 19:26:36 +0100
REM compiler GCC version 9.3.0
REM options -cpp -mtune=generic -march=x86-64 -g -O0
REM seed -1444705340 -846071652 -559270834 -1755058467 -1213817437 -292017098 735435958 -1089335191 -1227386612 -1031588057 1208392383 501694270 -997104246 -1536341234 1448212873 -25499055 -507280749 1108962682 -1909598862 -1244943341 2133275341 -1767215072 -1590975545 1467431846 903798583 -629723835 -1077090643 2142612534 -613080159 -140509295 227060953 1050878532 1561899087
REM
CELL 1.54180   50.00000   50.00000   50.00000   90.00000   90.00000   90.00000
LATT -1
SFAC C  
C      1  0.4353490000000  0.5025720000000  0.5081090000000 1.0
C      1  0.4832700000000  0.5312910000000  0.4417510000000 1.0
C      1  0.4403790000000  0.5148650000000  0.4680890000000 1.0
C      1  0.5231950000000  0.5073450000000  0.5051350000000 1.0
C      1  0.4770640000000  0.5568120000000  0.4984090000000 1.0
C      1  0.4449730000000  0.4644140000000  0.4733950000000 1.0
C      1  0.4933330000000  0.4626380000000  0.4496730000000 1.0
C      1  0.5257130000000  0.5156460000000  0.4550500000000 1.0
C      1  0.5160140000000  0.4603610000000  0.5002270000000 1.0
C      1  0.4488270000000  0.5539220000000  0.4981270000000 1.0
C      1  0.4934740000000  0.5441270000000  0.4786590000000 1.0
C      1  0.5449950000000  0.4938720000000  0.4518640000000 1.0
C      1  0.4574010000000  0.4398870000000  0.5167530000000 1.0
C      1  0.4937030000000  0.4869850000000  0.4326580000000 1.0
C      1  0.5044200000000  0.5127680000000  0.4352630000000 1.0
C      1  0.5580310000000  0.5019530000000  0.5329720000000 1.0
C      1  0.5224540000000  0.5617090000000  0.4483150000000 1.0
C      1  0.5382920000000  0.5435020000000  0.4607540000000 1.0
C      1  0.4822020000000  0.5018100000000  0.4855240000000 1.0
C      1  0.4588500000000  0.5159220000000  0.4457910000000 1.0
C      1  0.4351500000000  0.4899730000000  0.4817730000000 1.0
C      1  0.5135380000000  0.4583300000000  0.4685390000000 1.0
C      1  0.5128480000000  0.4465940000000  0.5450760000000 1.0
C      1  0.4930150000000  0.5525320000000  0.5216550000000 1.0
C      1  0.5673540000000  0.5184450000000  0.4887620000000 1.0
C      1  0.4803510000000  0.5238220000000  0.5566640000000 1.0
C      1  0.5446160000000  0.4703800000000  0.4946800000000 1.0
C      1  0.5199460000000  0.5542980000000  0.5290070000000 1.0
C      1  0.4781810000000  0.4820260000000  0.5693740000000 1.0
C      1  0.4532110000000  0.4617900000000  0.5357760000000 1.0
C      1  0.4805440000000  0.4992050000000  0.5147730000000 1.0
C      1  0.5516330000000  0.5294690000000  0.5373270000000 1.0
C      1  0.4636000000000  0.4666680000000  0.4518270000000 1.0
C      1  0.4647510000000  0.4898650000000  0.4359610000000 1.0
C      1  0.4958700000000  0.5548880000000  0.4524810000000 1.0
C      1  0.4533570000000  0.4903720000000  0.5293750000000 1.0
C      1  0.5879140000000  0.5138600000000  0.4692230000000 1.0
C      1  0.5717610000000  0.5010500000000  0.4538010000000 1.0
C      1  0.5520990000000  0.4977620000000  0.5042710000000 1.0
C      1  0.4878120000000  0.4368280000000  0.5537870000000 1.0
C      1  0.5078350000000  0.4858370000000  0.5176660000000 1.0
C      1  0.5075850000000  0.5160320000000  0.4814790000000 1.0
C      1  0.5485950000000  0.4814890000000  0.5473630000000 1.0
C      1  0.5063620000000  0.4899710000000  0.5676680000000 1.0
C      1  0.4821410000000  0.4272480000000  0.5252370000000 1.0
C      1  0.5082360000000  0.4380570000000  0.5177890000000 1.0
C      1  0.5391510000000  0.4701980000000  0.4661450000000 1.0
C      1  0.5269460000000  0.5351660000000  0.5510840000000 1.0
C      1  0.4693610000000  0.4571900000000  0.5591320000000 1.0
C      1  0.4390150000000  0.5289590000000  0.4941000000000 1.0
C      1  0.5077100000000  0.5188350000000  0.5640950000000 1.0
C      1  0.4623450000000  0.5015080000000  0.5572740000000 1.0
C      1  0.5209460000000  0.4750180000000  0.5462490000000 1.0
C      1  0.4807140000000  0.5287420000000  0.5292330000000 1.0
C      1  0.5514590000000  0.5424860000000  0.4876210000000 1.0
C      1  0.4473450000000  0.4448150000000  0.4924450000000 1.0
C      1  0.5447670000000  0.5478900000000  0.5147720000000 1.0
END
