TITL C-140194-7025-10 205.102455354879 125000 -850.368686602916 0 0 118 (C1) n - 1
REM
REM in /rds/project/t2_vol4/rds-t2-cs072/BORA/CARBON/from-Arr/AIRSS/Generating-Clusters/GAP-ML-2020/Only-C1/SD-CG/HFTN-CG
REM
REM
REM
REM
REM
REM ./C.cell (11c1c37f851c82e70ff6c80c92926a4b)
REM AIRSS Version 0.9.1 bugfix July 2018 build 013d7b7c2542+ Fri, 06 Jul 2018 19:26:36 +0100
REM compiler GCC version 9.3.0
REM options -cpp -mtune=generic -march=x86-64 -g -O0
REM seed -1191393788 -2089928855 -119890577 -169937554 -285154435 111024344 1310088814 1022754399 -2141002364 1991932157 -159184350 -1176425260 -1294143390 -44634942 -1226276919 1885266302 -442397124 -711131758 1342578019 -1008685866 2118009616 -678282413 -698349973 837077822 2137222032 1120511119 -507445210 885967160 -685597964 -659561899 1314305567 1890023889 -335814750
REM
CELL 1.54180   50.00000   50.00000   50.00000   90.00000   90.00000   90.00000
LATT -1
SFAC C  
C      1  0.4864270000000  0.5407640000000  0.5306880000000 1.0
C      1  0.4649390000000  0.5148650000000  0.4835940000000 1.0
C      1  0.4127590000000  0.5161440000000  0.4629020000000 1.0
C      1  0.4723370000000  0.4434160000000  0.4251740000000 1.0
C      1  0.4536040000000  0.5244630000000  0.4362330000000 1.0
C      1  0.4257530000000  0.4410200000000  0.5227910000000 1.0
C      1  0.5376230000000  0.5499590000000  0.4489730000000 1.0
C      1  0.4321060000000  0.5512730000000  0.5160670000000 1.0
C      1  0.4477230000000  0.4153070000000  0.4879570000000 1.0
C      1  0.4848580000000  0.5794330000000  0.4731230000000 1.0
C      1  0.5686540000000  0.5676110000000  0.5206550000000 1.0
C      1  0.4892300000000  0.5175220000000  0.5899960000000 1.0
C      1  0.4273510000000  0.4416660000000  0.4536060000000 1.0
C      1  0.4138750000000  0.5113280000000  0.5368560000000 1.0
C      1  0.5193580000000  0.5058880000000  0.4598420000000 1.0
C      1  0.5336940000000  0.5766720000000  0.5508840000000 1.0
C      1  0.4650770000000  0.4819290000000  0.4577900000000 1.0
C      1  0.5595040000000  0.4403960000000  0.4806790000000 1.0
C      1  0.4108780000000  0.4420420000000  0.4981650000000 1.0
C      1  0.4243390000000  0.4273110000000  0.4780310000000 1.0
C      1  0.4873580000000  0.5596770000000  0.5652870000000 1.0
C      1  0.5143310000000  0.5336020000000  0.4942760000000 1.0
C      1  0.4961840000000  0.5258240000000  0.4186930000000 1.0
C      1  0.4865870000000  0.4283240000000  0.5530080000000 1.0
C      1  0.4007450000000  0.4649260000000  0.4850350000000 1.0
C      1  0.5088250000000  0.4755600000000  0.5919900000000 1.0
C      1  0.5312730000000  0.4925140000000  0.5869670000000 1.0
C      1  0.5464880000000  0.4557530000000  0.4352330000000 1.0
C      1  0.4332110000000  0.5104660000000  0.5575470000000 1.0
C      1  0.5430990000000  0.4289030000000  0.5234130000000 1.0
C      1  0.5045990000000  0.4494520000000  0.5838150000000 1.0
C      1  0.5119120000000  0.5469840000000  0.5214200000000 1.0
C      1  0.5097260000000  0.5009500000000  0.5381280000000 1.0
C      1  0.5184830000000  0.5188700000000  0.5895810000000 1.0
C      1  0.5883670000000  0.4838390000000  0.5233470000000 1.0
C      1  0.4525850000000  0.4899880000000  0.4825010000000 1.0
C      1  0.5467750000000  0.5349230000000  0.4264210000000 1.0
C      1  0.5927020000000  0.5003610000000  0.4695770000000 1.0
C      1  0.4481730000000  0.5341830000000  0.5621290000000 1.0
C      1  0.5381900000000  0.5200000000000  0.5058440000000 1.0
C      1  0.4108190000000  0.4661950000000  0.4574950000000 1.0
C      1  0.5395470000000  0.5830510000000  0.4821280000000 1.0
C      1  0.5848880000000  0.5267700000000  0.4584040000000 1.0
C      1  0.4833000000000  0.4893950000000  0.5898840000000 1.0
C      1  0.5167100000000  0.4233600000000  0.4563230000000 1.0
C      1  0.5497940000000  0.5854670000000  0.5088340000000 1.0
C      1  0.5291100000000  0.5919580000000  0.5273500000000 1.0
C      1  0.4608420000000  0.4731940000000  0.5045250000000 1.0
C      1  0.4049960000000  0.5138460000000  0.4915080000000 1.0
C      1  0.4812700000000  0.4539780000000  0.4934170000000 1.0
C      1  0.5344950000000  0.4258990000000  0.4789310000000 1.0
C      1  0.4631320000000  0.4888500000000  0.5280480000000 1.0
C      1  0.5222160000000  0.4234680000000  0.5045050000000 1.0
C      1  0.5834720000000  0.5494300000000  0.5037620000000 1.0
C      1  0.5750860000000  0.4602540000000  0.5304700000000 1.0
C      1  0.4657870000000  0.4156590000000  0.4637860000000 1.0
C      1  0.5071040000000  0.4889380000000  0.4794980000000 1.0
C      1  0.5394000000000  0.4383810000000  0.5501240000000 1.0
C      1  0.4943690000000  0.4305590000000  0.5070370000000 1.0
C      1  0.4454620000000  0.4821390000000  0.5541260000000 1.0
C      1  0.5463290000000  0.5034160000000  0.4651820000000 1.0
C      1  0.4435650000000  0.5647320000000  0.4929620000000 1.0
C      1  0.3985650000000  0.4876230000000  0.5010900000000 1.0
C      1  0.5660620000000  0.4561520000000  0.4571130000000 1.0
C      1  0.5576330000000  0.4609680000000  0.5542580000000 1.0
C      1  0.4536290000000  0.4331750000000  0.4422760000000 1.0
C      1  0.5248740000000  0.5214240000000  0.4140840000000 1.0
C      1  0.5106110000000  0.5883230000000  0.4842400000000 1.0
C      1  0.5297980000000  0.5239380000000  0.5336050000000 1.0
C      1  0.5187330000000  0.5342080000000  0.4649330000000 1.0
C      1  0.4488160000000  0.4225750000000  0.5166990000000 1.0
C      1  0.5307280000000  0.5409580000000  0.5783950000000 1.0
C      1  0.4841480000000  0.4998400000000  0.4158290000000 1.0
C      1  0.5156590000000  0.5632190000000  0.5687950000000 1.0
C      1  0.5841720000000  0.4994200000000  0.4979050000000 1.0
C      1  0.4463730000000  0.5540410000000  0.5410440000000 1.0
C      1  0.5829600000000  0.4798860000000  0.4518860000000 1.0
C      1  0.4641030000000  0.4723610000000  0.5755450000000 1.0
C      1  0.4924520000000  0.4119450000000  0.4612900000000 1.0
C      1  0.5053270000000  0.5942660000000  0.5121750000000 1.0
C      1  0.5027790000000  0.4795370000000  0.4109680000000 1.0
C      1  0.5184100000000  0.4779990000000  0.5260690000000 1.0
C      1  0.4790740000000  0.5868270000000  0.5201620000000 1.0
C      1  0.5865440000000  0.5081150000000  0.5388340000000 1.0
C      1  0.4901250000000  0.5142590000000  0.4953230000000 1.0
C      1  0.4229640000000  0.4649360000000  0.5393760000000 1.0
C      1  0.5678970000000  0.5099010000000  0.5604760000000 1.0
C      1  0.5543980000000  0.5647360000000  0.4657400000000 1.0
C      1  0.5147560000000  0.4326140000000  0.5626850000000 1.0
C      1  0.4732190000000  0.5377350000000  0.5771440000000 1.0
C      1  0.5730640000000  0.4931900000000  0.4284740000000 1.0
C      1  0.5718080000000  0.5219270000000  0.4323520000000 1.0
C      1  0.5278050000000  0.4828940000000  0.5004010000000 1.0
C      1  0.5778610000000  0.5494270000000  0.4749430000000 1.0
C      1  0.4844310000000  0.5102520000000  0.5261460000000 1.0
C      1  0.4330000000000  0.5343880000000  0.4528310000000 1.0
C      1  0.4617830000000  0.4969060000000  0.4332840000000 1.0
C      1  0.4062170000000  0.4851240000000  0.5286040000000 1.0
C      1  0.4720000000000  0.5675460000000  0.5411640000000 1.0
C      1  0.4123460000000  0.4921230000000  0.4490760000000 1.0
C      1  0.5543230000000  0.4860970000000  0.5703200000000 1.0
C      1  0.5280450000000  0.4926230000000  0.4091780000000 1.0
C      1  0.5515290000000  0.4989090000000  0.4927770000000 1.0
C      1  0.4759230000000  0.4227070000000  0.5274440000000 1.0
C      1  0.4888130000000  0.4684770000000  0.4700920000000 1.0
C      1  0.4772770000000  0.4471270000000  0.5734500000000 1.0
C      1  0.5514830000000  0.5343950000000  0.5582200000000 1.0
C      1  0.5575510000000  0.5612140000000  0.5464520000000 1.0
C      1  0.4664760000000  0.5805650000000  0.4957710000000 1.0
C      1  0.5897490000000  0.5241870000000  0.5144670000000 1.0
C      1  0.5218530000000  0.4416950000000  0.4344040000000 1.0
C      1  0.4716650000000  0.5628390000000  0.4532880000000 1.0
C      1  0.4979290000000  0.4526290000000  0.4208430000000 1.0
C      1  0.4138660000000  0.5292090000000  0.5143850000000 1.0
C      1  0.4453950000000  0.5568900000000  0.4651740000000 1.0
C      1  0.5648410000000  0.4414690000000  0.5103090000000 1.0
C      1  0.5507110000000  0.4790850000000  0.4187810000000 1.0
C      1  0.4760550000000  0.5420790000000  0.4329180000000 1.0
END
