TITL C-140225-7683-8 -45.3797887176218 125000 -313.492572782607 0 0 47 (C1) n - 1
REM
REM in /rds/project/t2_vol4/rds-t2-cs072/BORA/CARBON/from-Arr/AIRSS/Generating-Clusters/GAP-ML-2020/Only-C1/SD-CG/HFTN-CG
REM
REM
REM
REM
REM
REM ./C.cell (11c1c37f851c82e70ff6c80c92926a4b)
REM AIRSS Version 0.9.1 bugfix July 2018 build 013d7b7c2542+ Fri, 06 Jul 2018 19:26:36 +0100
REM compiler GCC version 9.3.0
REM options -cpp -mtune=generic -march=x86-64 -g -O0
REM seed -1437863453 460953291 20291893 -1258216026 643882732 1431424977 551019219 934628876 1819259469 619350725 1165854830 2086178096 -688208218 1534447462 2040284238 -1759858686 290262770 1737924643 -1655802457 -472765658 2024995434 2865 -379735113 -1774149662 1221833160 -778849531 1913503727 1340565455 2052557874 -30204587 915116556 -657351440 -1484622634
REM
CELL 1.54180   50.00000   50.00000   50.00000   90.00000   90.00000   90.00000
LATT -1
SFAC C  
C      1  0.5309230000000  0.4885830000000  0.5492160000000 1.0
C      1  0.4885920000000  0.5028870000000  0.5765160000000 1.0
C      1  0.4834470000000  0.4617800000000  0.5271610000000 1.0
C      1  0.4638110000000  0.5243030000000  0.4435800000000 1.0
C      1  0.4852810000000  0.5000650000000  0.4981970000000 1.0
C      1  0.5425020000000  0.5183340000000  0.5036350000000 1.0
C      1  0.4419080000000  0.5199890000000  0.4638480000000 1.0
C      1  0.5160110000000  0.5542340000000  0.5274780000000 1.0
C      1  0.4878550000000  0.4481610000000  0.5508970000000 1.0
C      1  0.4829240000000  0.5039180000000  0.4484660000000 1.0
C      1  0.5092640000000  0.4565170000000  0.5650310000000 1.0
C      1  0.4815510000000  0.4585410000000  0.4779940000000 1.0
C      1  0.4530340000000  0.4528240000000  0.4862790000000 1.0
C      1  0.4569760000000  0.5080690000000  0.5372760000000 1.0
C      1  0.4708710000000  0.5163980000000  0.5612180000000 1.0
C      1  0.4724280000000  0.5442550000000  0.5498490000000 1.0
C      1  0.5241270000000  0.4615560000000  0.4589080000000 1.0
C      1  0.4748570000000  0.4888580000000  0.4716170000000 1.0
C      1  0.5460380000000  0.5374400000000  0.4457080000000 1.0
C      1  0.4437180000000  0.4766270000000  0.4979260000000 1.0
C      1  0.5051230000000  0.5451370000000  0.4875710000000 1.0
C      1  0.5351060000000  0.4953270000000  0.5200760000000 1.0
C      1  0.4613370000000  0.5434070000000  0.5023520000000 1.0
C      1  0.4993920000000  0.5527210000000  0.4610270000000 1.0
C      1  0.5613710000000  0.5208360000000  0.4580520000000 1.0
C      1  0.5281750000000  0.5430310000000  0.5045320000000 1.0
C      1  0.5416840000000  0.4524150000000  0.4792700000000 1.0
C      1  0.5585350000000  0.4746410000000  0.4872410000000 1.0
C      1  0.5003000000000  0.4585840000000  0.5031380000000 1.0
C      1  0.4856310000000  0.5291710000000  0.4993870000000 1.0
C      1  0.4717800000000  0.5494630000000  0.4553140000000 1.0
C      1  0.5092980000000  0.4884170000000  0.5680350000000 1.0
C      1  0.5418260000000  0.4512920000000  0.5256040000000 1.0
C      1  0.5562970000000  0.4741530000000  0.5147890000000 1.0
C      1  0.5185960000000  0.5362450000000  0.4461130000000 1.0
C      1  0.4970340000000  0.5567250000000  0.5442580000000 1.0
C      1  0.4992130000000  0.4504120000000  0.4571410000000 1.0
C      1  0.5341010000000  0.4588970000000  0.5508730000000 1.0
C      1  0.5237140000000  0.4911450000000  0.4679360000000 1.0
C      1  0.4661120000000  0.4861320000000  0.5186190000000 1.0
C      1  0.5099540000000  0.5088860000000  0.4489450000000 1.0
C      1  0.4543580000000  0.5361990000000  0.5280840000000 1.0
C      1  0.4509010000000  0.5453980000000  0.4764260000000 1.0
C      1  0.4459370000000  0.4948160000000  0.4751630000000 1.0
C      1  0.5263480000000  0.4434830000000  0.5031880000000 1.0
C      1  0.5501810000000  0.5028390000000  0.4780370000000 1.0
C      1  0.5115780000000  0.4868870000000  0.4980330000000 1.0
END
