TITL C-140196-7024-7 -0.0705864586257426 125000 -362.721681324905 0 0 55 (C1) n - 1
REM
REM in /rds/project/t2_vol4/rds-t2-cs072/BORA/CARBON/from-Arr/AIRSS/Generating-Clusters/GAP-ML-2020/Only-C1/SD-CG/HFTN-CG
REM
REM
REM
REM
REM
REM ./C.cell (11c1c37f851c82e70ff6c80c92926a4b)
REM AIRSS Version 0.9.1 bugfix July 2018 build 013d7b7c2542+ Fri, 06 Jul 2018 19:26:36 +0100
REM compiler GCC version 9.3.0
REM options -cpp -mtune=generic -march=x86-64 -g -O0
REM seed 2073903904 -808383264 -895473601 560153944 -266053822 -126201036 -262848174 1047584629 1436702446 1139070561 -153947990 -1610611715 -1995043566 102443800 365679350 982420349 1190075071 -622938620 221496058 -33176381 -1816635696 1111563021 -1409902242 795364031 1309023063 1241147041 776749746 200388893 200457054 919127936 -500168035 -1302109230 -994518145
REM
CELL 1.54180   50.00000   50.00000   50.00000   90.00000   90.00000   90.00000
LATT -1
SFAC C  
C      1  0.5021200000000  0.4329390000000  0.5044530000000 1.0
C      1  0.5567070000000  0.4906610000000  0.4830940000000 1.0
C      1  0.4646190000000  0.5406010000000  0.4595760000000 1.0
C      1  0.4874010000000  0.5623910000000  0.4986320000000 1.0
C      1  0.4576940000000  0.5251910000000  0.5139090000000 1.0
C      1  0.5445860000000  0.5356020000000  0.4442930000000 1.0
C      1  0.4904120000000  0.4929170000000  0.5681110000000 1.0
C      1  0.5355300000000  0.5472700000000  0.5203030000000 1.0
C      1  0.4642280000000  0.5129080000000  0.4592490000000 1.0
C      1  0.5318780000000  0.5394890000000  0.4709790000000 1.0
C      1  0.5155900000000  0.5400720000000  0.4323310000000 1.0
C      1  0.4851610000000  0.5566680000000  0.4702970000000 1.0
C      1  0.4617550000000  0.4703100000000  0.4635510000000 1.0
C      1  0.5405260000000  0.5029400000000  0.5514750000000 1.0
C      1  0.5511160000000  0.4719570000000  0.5044160000000 1.0
C      1  0.4639610000000  0.5538200000000  0.5116360000000 1.0
C      1  0.5166110000000  0.4660070000000  0.5456680000000 1.0
C      1  0.5473770000000  0.5411110000000  0.4943390000000 1.0
C      1  0.4725190000000  0.4888170000000  0.4417670000000 1.0
C      1  0.5117780000000  0.4748090000000  0.5172380000000 1.0
C      1  0.4622310000000  0.4414550000000  0.4687330000000 1.0
C      1  0.4952780000000  0.4483650000000  0.5513620000000 1.0
C      1  0.5147010000000  0.5119210000000  0.4276080000000 1.0
C      1  0.5430140000000  0.5092480000000  0.4368960000000 1.0
C      1  0.4467380000000  0.4954190000000  0.4765060000000 1.0
C      1  0.5240100000000  0.4551300000000  0.4983060000000 1.0
C      1  0.5478670000000  0.5278240000000  0.5386030000000 1.0
C      1  0.4864480000000  0.5080100000000  0.5071800000000 1.0
C      1  0.4634590000000  0.4345270000000  0.5186650000000 1.0
C      1  0.4672510000000  0.5073170000000  0.5580520000000 1.0
C      1  0.5664540000000  0.5118030000000  0.5220300000000 1.0
C      1  0.4829990000000  0.4769820000000  0.5092180000000 1.0
C      1  0.4537200000000  0.4817330000000  0.5493080000000 1.0
C      1  0.5399580000000  0.4912350000000  0.4591720000000 1.0
C      1  0.5187080000000  0.4895840000000  0.5626370000000 1.0
C      1  0.5112690000000  0.4599890000000  0.4721910000000 1.0
C      1  0.4606920000000  0.5299170000000  0.5439190000000 1.0
C      1  0.4860890000000  0.4750040000000  0.4794830000000 1.0
C      1  0.5204000000000  0.4724600000000  0.4493670000000 1.0
C      1  0.5000540000000  0.4886750000000  0.4344620000000 1.0
C      1  0.5567240000000  0.4866180000000  0.5296040000000 1.0
C      1  0.5622910000000  0.5162630000000  0.4952890000000 1.0
C      1  0.4898540000000  0.4316020000000  0.5300990000000 1.0
C      1  0.5094130000000  0.5535370000000  0.4569570000000 1.0
C      1  0.4954680000000  0.5665570000000  0.5459440000000 1.0
C      1  0.5187490000000  0.5103690000000  0.4770820000000 1.0
C      1  0.5101000000000  0.5607390000000  0.5220970000000 1.0
C      1  0.4763450000000  0.4671360000000  0.5606210000000 1.0
C      1  0.4706330000000  0.5562110000000  0.5413900000000 1.0
C      1  0.4746610000000  0.4312420000000  0.4910040000000 1.0
C      1  0.4387870000000  0.4819120000000  0.5245410000000 1.0
C      1  0.4405290000000  0.5028350000000  0.5030220000000 1.0
C      1  0.4897840000000  0.5050700000000  0.4773520000000 1.0
C      1  0.5166560000000  0.5045480000000  0.5084060000000 1.0
C      1  0.4570920000000  0.4622850000000  0.5175790000000 1.0
END
