TITL C-140214-7089-4 128.691097622327 125000 -549.832142362234 0 0 79 (C1) n - 1
REM
REM in /rds/project/t2_vol4/rds-t2-cs072/BORA/CARBON/from-Arr/AIRSS/Generating-Clusters/GAP-ML-2020/Only-C1/SD-CG/HFTN-CG
REM
REM
REM
REM
REM
REM ./C.cell (11c1c37f851c82e70ff6c80c92926a4b)
REM AIRSS Version 0.9.1 bugfix July 2018 build 013d7b7c2542+ Fri, 06 Jul 2018 19:26:36 +0100
REM compiler GCC version 9.3.0
REM options -cpp -mtune=generic -march=x86-64 -g -O0
REM seed -2037049643 1051477690 1920156073 1145718511 -1682412985 1295535422 504797529 -258334085 1747482529 -2112450529 824439268 -204014644 952517044 -1076545135 651514776 471464279 -1042631165 -898037254 520913712 203262274 -550555734 -1504717104 1226353150 1605660409 -1551506762 -927499478 -346501956 -1599708983 288704513 1098685057 -580777974 1698540142 -1045521218
REM
CELL 1.54180   50.00000   50.00000   50.00000   90.00000   90.00000   90.00000
LATT -1
SFAC C  
C      1  0.4833570000000  0.4148010000000  0.5002670000000 1.0
C      1  0.5083880000000  0.5698470000000  0.5381690000000 1.0
C      1  0.5373620000000  0.4893020000000  0.5626720000000 1.0
C      1  0.5632960000000  0.5371150000000  0.5089210000000 1.0
C      1  0.5181350000000  0.5305390000000  0.4932430000000 1.0
C      1  0.4649560000000  0.5677680000000  0.5132440000000 1.0
C      1  0.4498180000000  0.5330950000000  0.5547560000000 1.0
C      1  0.4752230000000  0.5255770000000  0.4809830000000 1.0
C      1  0.4834170000000  0.4756940000000  0.4934790000000 1.0
C      1  0.5311130000000  0.4428990000000  0.4631090000000 1.0
C      1  0.5765850000000  0.5049690000000  0.5414110000000 1.0
C      1  0.4930630000000  0.4637900000000  0.5560290000000 1.0
C      1  0.4882730000000  0.5103860000000  0.5709520000000 1.0
C      1  0.4676260000000  0.4111850000000  0.4763780000000 1.0
C      1  0.4648440000000  0.4626170000000  0.5523980000000 1.0
C      1  0.5739740000000  0.4767870000000  0.5357480000000 1.0
C      1  0.5022260000000  0.5150610000000  0.4744890000000 1.0
C      1  0.4474020000000  0.4845840000000  0.5562800000000 1.0
C      1  0.5465080000000  0.5203690000000  0.4469620000000 1.0
C      1  0.5598020000000  0.5068940000000  0.4720850000000 1.0
C      1  0.4935530000000  0.4685480000000  0.4258670000000 1.0
C      1  0.5593980000000  0.4517820000000  0.4640520000000 1.0
C      1  0.5310770000000  0.5450860000000  0.4478410000000 1.0
C      1  0.4590830000000  0.4457760000000  0.4535580000000 1.0
C      1  0.4597300000000  0.5081400000000  0.5654200000000 1.0
C      1  0.5010990000000  0.5510650000000  0.4465340000000 1.0
C      1  0.5193560000000  0.5626640000000  0.4882890000000 1.0
C      1  0.5495320000000  0.4670070000000  0.5484400000000 1.0
C      1  0.4938600000000  0.5384030000000  0.5686420000000 1.0
C      1  0.4390330000000  0.5551150000000  0.5135970000000 1.0
C      1  0.5132550000000  0.4912280000000  0.4225720000000 1.0
C      1  0.4484780000000  0.4201900000000  0.4598160000000 1.0
C      1  0.5315360000000  0.4523240000000  0.5304840000000 1.0
C      1  0.5372380000000  0.4949250000000  0.5136970000000 1.0
C      1  0.4956060000000  0.4115010000000  0.4748430000000 1.0
C      1  0.5494330000000  0.4806190000000  0.4593330000000 1.0
C      1  0.5020470000000  0.4863950000000  0.4769770000000 1.0
C      1  0.5490840000000  0.5534330000000  0.5264470000000 1.0
C      1  0.4243330000000  0.5096780000000  0.5195530000000 1.0
C      1  0.4580780000000  0.4490300000000  0.5280950000000 1.0
C      1  0.5425330000000  0.5397070000000  0.5515080000000 1.0
C      1  0.5533200000000  0.5133840000000  0.5569510000000 1.0
C      1  0.4808570000000  0.5321970000000  0.4364530000000 1.0
C      1  0.4256020000000  0.5047990000000  0.4909980000000 1.0
C      1  0.5033290000000  0.5264170000000  0.5182780000000 1.0
C      1  0.4456840000000  0.4705920000000  0.4615060000000 1.0
C      1  0.4722190000000  0.4879910000000  0.4244720000000 1.0
C      1  0.5444260000000  0.5180440000000  0.4955010000000 1.0
C      1  0.5253840000000  0.4692550000000  0.4769360000000 1.0
C      1  0.5047810000000  0.4454570000000  0.5374690000000 1.0
C      1  0.5652900000000  0.4548580000000  0.4924740000000 1.0
C      1  0.4302750000000  0.4854000000000  0.5329740000000 1.0
C      1  0.5108320000000  0.4993510000000  0.5272930000000 1.0
C      1  0.5079010000000  0.4291110000000  0.4557790000000 1.0
C      1  0.4370810000000  0.4648920000000  0.5142280000000 1.0
C      1  0.4752550000000  0.5185780000000  0.5105100000000 1.0
C      1  0.4324440000000  0.5344310000000  0.5318110000000 1.0
C      1  0.4704430000000  0.5588980000000  0.4846380000000 1.0
C      1  0.5073760000000  0.4903200000000  0.5593470000000 1.0
C      1  0.4795450000000  0.5697250000000  0.5370730000000 1.0
C      1  0.4828840000000  0.4915590000000  0.5158660000000 1.0
C      1  0.4330760000000  0.4767520000000  0.4869830000000 1.0
C      1  0.5833130000000  0.4992120000000  0.4948230000000 1.0
C      1  0.5397020000000  0.5609240000000  0.4685850000000 1.0
C      1  0.5381230000000  0.4958620000000  0.4356640000000 1.0
C      1  0.5270020000000  0.5692390000000  0.5168140000000 1.0
C      1  0.5172760000000  0.5511740000000  0.5586850000000 1.0
C      1  0.5829340000000  0.5180440000000  0.5165860000000 1.0
C      1  0.5804990000000  0.4733610000000  0.5064970000000 1.0
C      1  0.5388110000000  0.4650130000000  0.5034450000000 1.0
C      1  0.4572320000000  0.5197390000000  0.4556670000000 1.0
C      1  0.4873840000000  0.4466740000000  0.4429070000000 1.0
C      1  0.4905020000000  0.5102530000000  0.4217350000000 1.0
C      1  0.4710460000000  0.5516470000000  0.5575640000000 1.0
C      1  0.4823930000000  0.4340220000000  0.5211770000000 1.0
C      1  0.4946830000000  0.5662080000000  0.4700630000000 1.0
C      1  0.4545520000000  0.4925060000000  0.4457220000000 1.0
C      1  0.4399950000000  0.5513310000000  0.4857010000000 1.0
C      1  0.4338420000000  0.5268890000000  0.4736860000000 1.0
END
