TITL C-140207-7293-7 0.0302250409229217 125000 -318.71617523382 0 0 47 (C1) n - 1
REM
REM in /rds/project/t2_vol4/rds-t2-cs072/BORA/CARBON/from-Arr/AIRSS/Generating-Clusters/GAP-ML-2020/Only-C1/SD-CG/HFTN-CG
REM
REM
REM
REM
REM
REM ./C.cell (11c1c37f851c82e70ff6c80c92926a4b)
REM AIRSS Version 0.9.1 bugfix July 2018 build 013d7b7c2542+ Fri, 06 Jul 2018 19:26:36 +0100
REM compiler GCC version 9.3.0
REM options -cpp -mtune=generic -march=x86-64 -g -O0
REM seed 1737354013 -1535357231 1426505104 -1996181381 -1693809650 -343953866 405615384 -1820197625 577108660 1518166336 809726471 -948377355 1735593538 632916131 -1497366515 -1776928061 -671829032 1146267900 -2064946478 1920475705 -270829959 -927704758 -811395472 -766570853 1856229107 -680268244 -532430871 -256682055 1467076973 833831306 -1200117978 1634683571 -1611714124
REM
CELL 1.54180   50.00000   50.00000   50.00000   90.00000   90.00000   90.00000
LATT -1
SFAC C  
C      1  0.4533920000000  0.5172520000000  0.5448770000000 1.0
C      1  0.5329940000000  0.5345140000000  0.5220390000000 1.0
C      1  0.4504290000000  0.4698430000000  0.5279030000000 1.0
C      1  0.4434390000000  0.5279300000000  0.5190610000000 1.0
C      1  0.4925210000000  0.4621000000000  0.5462580000000 1.0
C      1  0.5197350000000  0.4718610000000  0.5439820000000 1.0
C      1  0.4746850000000  0.4534840000000  0.5243010000000 1.0
C      1  0.5300970000000  0.5060200000000  0.4722200000000 1.0
C      1  0.5760230000000  0.4884010000000  0.5017520000000 1.0
C      1  0.5103530000000  0.4423260000000  0.4899620000000 1.0
C      1  0.5228840000000  0.5626580000000  0.4758280000000 1.0
C      1  0.4791090000000  0.4823700000000  0.5614640000000 1.0
C      1  0.5519090000000  0.4964500000000  0.5174640000000 1.0
C      1  0.5414260000000  0.5174370000000  0.4989660000000 1.0
C      1  0.4543540000000  0.4887730000000  0.5494720000000 1.0
C      1  0.4493840000000  0.5019860000000  0.4717540000000 1.0
C      1  0.5359640000000  0.5516210000000  0.4570300000000 1.0
C      1  0.5006650000000  0.5117810000000  0.4693460000000 1.0
C      1  0.5184000000000  0.4314610000000  0.4649380000000 1.0
C      1  0.5197980000000  0.4896810000000  0.4254020000000 1.0
C      1  0.4801360000000  0.5282640000000  0.5547850000000 1.0
C      1  0.4377800000000  0.5095940000000  0.4989060000000 1.0
C      1  0.4696010000000  0.4590600000000  0.4742030000000 1.0
C      1  0.5298560000000  0.4612290000000  0.4970180000000 1.0
C      1  0.5043820000000  0.5619880000000  0.4959370000000 1.0
C      1  0.4900110000000  0.5520670000000  0.5416360000000 1.0
C      1  0.5220620000000  0.4984160000000  0.5553930000000 1.0
C      1  0.5329190000000  0.5114670000000  0.4234830000000 1.0
C      1  0.5361770000000  0.4717990000000  0.5212640000000 1.0
C      1  0.4584460000000  0.5520410000000  0.5115430000000 1.0
C      1  0.4460510000000  0.4738520000000  0.4793270000000 1.0
C      1  0.5706010000000  0.4790760000000  0.4783080000000 1.0
C      1  0.4682220000000  0.5671220000000  0.5320870000000 1.0
C      1  0.5070510000000  0.4684240000000  0.4369170000000 1.0
C      1  0.4824940000000  0.4736310000000  0.4520720000000 1.0
C      1  0.5272230000000  0.4547880000000  0.4527290000000 1.0
C      1  0.4830690000000  0.4471450000000  0.4974190000000 1.0
C      1  0.5406100000000  0.5140200000000  0.5403370000000 1.0
C      1  0.5404700000000  0.4752090000000  0.4727090000000 1.0
C      1  0.4762770000000  0.5012160000000  0.4582910000000 1.0
C      1  0.4376830000000  0.4807110000000  0.5056220000000 1.0
C      1  0.5129900000000  0.5541330000000  0.5235800000000 1.0
C      1  0.4884670000000  0.5183750000000  0.4939200000000 1.0
C      1  0.4782480000000  0.5475840000000  0.4915690000000 1.0
C      1  0.5374280000000  0.5242840000000  0.4489950000000 1.0
C      1  0.4954660000000  0.5058810000000  0.5642640000000 1.0
C      1  0.4887170000000  0.5006760000000  0.5136680000000 1.0
END
