TITL C-141422-3332-10 90.8679695125372 125000 -653.567215511851 0 0 94 (C1) n - 1
REM
REM in /rds/project/t2_vol4/rds-t2-cs072/BORA/CARBON/from-Arr/AIRSS/Generating-Clusters/GAP-ML-2020/Only-C1/SD-CG/HFTN-CG
REM
REM
REM
REM
REM
REM ./C.cell (11c1c37f851c82e70ff6c80c92926a4b)
REM AIRSS Version 0.9.1 bugfix July 2018 build 013d7b7c2542+ Fri, 06 Jul 2018 19:26:36 +0100
REM compiler GCC version 9.3.0
REM options -cpp -mtune=generic -march=x86-64 -g -O0
REM seed 1335164979 -1008930346 -1954291770 -332788740 -1628724870 896688983 -1687238322 1180303689 875606665 -1415984224 -1971400244 -248285778 509592626 -1214982720 541444716 -389804648 2141037730 -208382533 -1734531649 -775633035 131273276 788710015 1226641867 -277815033 -237285526 -1511291307 1543797732 -174558944 -62766852 -604268397 1691710573 1220775846 -870866464
REM
CELL 1.54180   50.00000   50.00000   50.00000   90.00000   90.00000   90.00000
LATT -1
SFAC C  
C      1  0.5143610000000  0.5129720000000  0.4684760000000 1.0
C      1  0.4685360000000  0.5234780000000  0.5646620000000 1.0
C      1  0.5226540000000  0.4746350000000  0.5467050000000 1.0
C      1  0.4644250000000  0.4312080000000  0.4843390000000 1.0
C      1  0.4549950000000  0.5668020000000  0.4768360000000 1.0
C      1  0.5854810000000  0.4824970000000  0.5009880000000 1.0
C      1  0.5415890000000  0.5159390000000  0.4279800000000 1.0
C      1  0.5802130000000  0.5311930000000  0.4911110000000 1.0
C      1  0.5499020000000  0.4448330000000  0.5622450000000 1.0
C      1  0.4755220000000  0.4514420000000  0.5543600000000 1.0
C      1  0.4479900000000  0.5207190000000  0.5447040000000 1.0
C      1  0.5561310000000  0.4559050000000  0.4866210000000 1.0
C      1  0.4275080000000  0.4741220000000  0.5316560000000 1.0
C      1  0.5418030000000  0.5688350000000  0.5101130000000 1.0
C      1  0.5738540000000  0.5351740000000  0.5389200000000 1.0
C      1  0.4878560000000  0.5163400000000  0.4796990000000 1.0
C      1  0.5739920000000  0.4888210000000  0.4550310000000 1.0
C      1  0.4943220000000  0.4811540000000  0.5146070000000 1.0
C      1  0.4832480000000  0.4583010000000  0.4436150000000 1.0
C      1  0.5152940000000  0.4191410000000  0.4826540000000 1.0
C      1  0.5277540000000  0.4709650000000  0.4371380000000 1.0
C      1  0.5196380000000  0.5264850000000  0.5292010000000 1.0
C      1  0.5166100000000  0.4187580000000  0.5306790000000 1.0
C      1  0.4684100000000  0.4894680000000  0.5067180000000 1.0
C      1  0.5049020000000  0.5665470000000  0.4707020000000 1.0
C      1  0.5260670000000  0.4934230000000  0.4197340000000 1.0
C      1  0.5466220000000  0.4638970000000  0.5825000000000 1.0
C      1  0.4514970000000  0.5731930000000  0.5059360000000 1.0
C      1  0.5367580000000  0.5311040000000  0.4760300000000 1.0
C      1  0.5041940000000  0.4519860000000  0.5576460000000 1.0
C      1  0.5250860000000  0.5394790000000  0.4319340000000 1.0
C      1  0.4756460000000  0.5442490000000  0.4362650000000 1.0
C      1  0.5261020000000  0.4814990000000  0.5756290000000 1.0
C      1  0.5323660000000  0.4218670000000  0.5072530000000 1.0
C      1  0.5321360000000  0.5358300000000  0.5575910000000 1.0
C      1  0.4396260000000  0.5498760000000  0.5400880000000 1.0
C      1  0.5418520000000  0.4950850000000  0.5096310000000 1.0
C      1  0.4323120000000  0.5497880000000  0.4710580000000 1.0
C      1  0.4551270000000  0.5142050000000  0.5149650000000 1.0
C      1  0.5261740000000  0.5532800000000  0.4577420000000 1.0
C      1  0.4978080000000  0.5433440000000  0.5185500000000 1.0
C      1  0.5629490000000  0.5456150000000  0.5121860000000 1.0
C      1  0.5206710000000  0.4849710000000  0.4638330000000 1.0
C      1  0.4781320000000  0.4836430000000  0.4253440000000 1.0
C      1  0.5110890000000  0.5306890000000  0.5760220000000 1.0
C      1  0.5158980000000  0.4959730000000  0.5277060000000 1.0
C      1  0.5231640000000  0.4309690000000  0.5552510000000 1.0
C      1  0.4983380000000  0.5315290000000  0.4247250000000 1.0
C      1  0.5522470000000  0.4416070000000  0.5108870000000 1.0
C      1  0.4161490000000  0.4958570000000  0.4827820000000 1.0
C      1  0.4507680000000  0.4381980000000  0.5092220000000 1.0
C      1  0.4786320000000  0.4980090000000  0.5741650000000 1.0
C      1  0.5059980000000  0.5840450000000  0.5261060000000 1.0
C      1  0.5336580000000  0.4744520000000  0.4884580000000 1.0
C      1  0.4247360000000  0.5141200000000  0.5023670000000 1.0
C      1  0.5406100000000  0.5259420000000  0.5060260000000 1.0
C      1  0.5647210000000  0.5259000000000  0.4681100000000 1.0
C      1  0.4682360000000  0.4338230000000  0.5322940000000 1.0
C      1  0.5645470000000  0.5112850000000  0.4436750000000 1.0
C      1  0.5325880000000  0.5910400000000  0.5250610000000 1.0
C      1  0.4334540000000  0.4845110000000  0.4424780000000 1.0
C      1  0.5059660000000  0.4635330000000  0.4954720000000 1.0
C      1  0.5522330000000  0.4590550000000  0.5360250000000 1.0
C      1  0.5182800000000  0.4272940000000  0.4569290000000 1.0
C      1  0.4531360000000  0.5266370000000  0.4330180000000 1.0
C      1  0.4737510000000  0.4919080000000  0.4787420000000 1.0
C      1  0.4931110000000  0.4721300000000  0.4689410000000 1.0
C      1  0.5929870000000  0.5101300000000  0.5053080000000 1.0
C      1  0.4775410000000  0.5309500000000  0.5024890000000 1.0
C      1  0.4198500000000  0.5049960000000  0.4564730000000 1.0
C      1  0.5586960000000  0.5400710000000  0.5605780000000 1.0
C      1  0.5112470000000  0.5657610000000  0.5013380000000 1.0
C      1  0.5061170000000  0.5022160000000  0.5819390000000 1.0
C      1  0.4988760000000  0.5023020000000  0.4190440000000 1.0
C      1  0.4784040000000  0.5636150000000  0.4598220000000 1.0
C      1  0.4291180000000  0.4573860000000  0.5097600000000 1.0
C      1  0.5831900000000  0.5091760000000  0.5328000000000 1.0
C      1  0.5113370000000  0.4463670000000  0.4389140000000 1.0
C      1  0.4882070000000  0.4177110000000  0.4933760000000 1.0
C      1  0.4222730000000  0.4678840000000  0.4838540000000 1.0
C      1  0.4199710000000  0.5414820000000  0.4955970000000 1.0
C      1  0.5664480000000  0.4842350000000  0.5253130000000 1.0
C      1  0.4401620000000  0.4889530000000  0.5499540000000 1.0
C      1  0.4611780000000  0.5687360000000  0.5341720000000 1.0
C      1  0.4878530000000  0.5634620000000  0.5416710000000 1.0
C      1  0.4633140000000  0.4765140000000  0.5627050000000 1.0
C      1  0.4360800000000  0.4609820000000  0.4592050000000 1.0
C      1  0.4539680000000  0.4974860000000  0.4278600000000 1.0
C      1  0.4896200000000  0.4181930000000  0.5217330000000 1.0
C      1  0.4315540000000  0.5305460000000  0.4506930000000 1.0
C      1  0.4282760000000  0.5584540000000  0.5155700000000 1.0
C      1  0.4594460000000  0.4449400000000  0.4589390000000 1.0
C      1  0.4877710000000  0.5442260000000  0.5662950000000 1.0
C      1  0.5770890000000  0.4726550000000  0.4764630000000 1.0
END
