TITL C-141715-1868-9 488.31891219145 125000 -1057.35580469682 0 0 150 (C1) n - 1
REM
REM in /rds/project/t2_vol4/rds-t2-cs072/BORA/CARBON/from-Arr/AIRSS/Generating-Clusters/GAP-ML-2020/Only-C1/SD-CG/HFTN-CG
REM
REM
REM
REM
REM
REM ./C.cell (11c1c37f851c82e70ff6c80c92926a4b)
REM AIRSS Version 0.9.1 bugfix July 2018 build 013d7b7c2542+ Fri, 06 Jul 2018 19:26:36 +0100
REM compiler GCC version 9.3.0
REM options -cpp -mtune=generic -march=x86-64 -g -O0
REM seed -1912657008 1625002053 1924542293 -184308938 152416189 1237664563 -665994810 -1052293850 2143042453 1158282273 -1800779410 702905720 -317385530 802933445 -1575967266 85141147 -1592624555 -1112155714 -1164816982 829196927 -1017227093 578413042 1450905651 -1200931624 -1448535612 -109396278 -2004174992 -89978916 99771533 -49391586 285212571 1895726098 -1472399019
REM
CELL 1.54180   50.00000   50.00000   50.00000   90.00000   90.00000   90.00000
LATT -1
SFAC C  
C      1  0.5069060000000  0.5300380000000  0.5804280000000 1.0
C      1  0.5245330000000  0.4225920000000  0.5093760000000 1.0
C      1  0.4700730000000  0.4142060000000  0.4640350000000 1.0
C      1  0.5295920000000  0.5923550000000  0.5350730000000 1.0
C      1  0.4616130000000  0.5407240000000  0.5872520000000 1.0
C      1  0.4462830000000  0.4927340000000  0.4709580000000 1.0
C      1  0.5716370000000  0.5780300000000  0.4733240000000 1.0
C      1  0.5350000000000  0.5883090000000  0.4487570000000 1.0
C      1  0.5538360000000  0.5899410000000  0.5182750000000 1.0
C      1  0.5376020000000  0.4660140000000  0.4083820000000 1.0
C      1  0.4729210000000  0.4335360000000  0.5810340000000 1.0
C      1  0.4857680000000  0.4697130000000  0.4639760000000 1.0
C      1  0.5880200000000  0.4941750000000  0.4846400000000 1.0
C      1  0.3990500000000  0.5254650000000  0.4864990000000 1.0
C      1  0.5243940000000  0.5324620000000  0.4412450000000 1.0
C      1  0.4579580000000  0.5571510000000  0.4373890000000 1.0
C      1  0.4478380000000  0.5634500000000  0.5464520000000 1.0
C      1  0.4813590000000  0.4506060000000  0.4110930000000 1.0
C      1  0.5498150000000  0.4957030000000  0.5832370000000 1.0
C      1  0.5764860000000  0.4775000000000  0.5376480000000 1.0
C      1  0.5239770000000  0.4735610000000  0.5250990000000 1.0
C      1  0.4594670000000  0.5879470000000  0.5329350000000 1.0
C      1  0.4532370000000  0.5144020000000  0.5778210000000 1.0
C      1  0.4615250000000  0.4067030000000  0.5397830000000 1.0
C      1  0.4848230000000  0.4479730000000  0.5292660000000 1.0
C      1  0.4629050000000  0.5362830000000  0.5304150000000 1.0
C      1  0.4946340000000  0.4530160000000  0.5900570000000 1.0
C      1  0.5611660000000  0.4998260000000  0.4984140000000 1.0
C      1  0.5944160000000  0.4614950000000  0.5204110000000 1.0
C      1  0.5028000000000  0.5523120000000  0.4425940000000 1.0
C      1  0.5692050000000  0.5108560000000  0.5678430000000 1.0
C      1  0.5148950000000  0.5204780000000  0.5222370000000 1.0
C      1  0.5062480000000  0.4273670000000  0.4869590000000 1.0
C      1  0.4817420000000  0.5530290000000  0.4223360000000 1.0
C      1  0.5100200000000  0.5603570000000  0.5716880000000 1.0
C      1  0.4870310000000  0.5759250000000  0.5685220000000 1.0
C      1  0.3956940000000  0.4883400000000  0.5464800000000 1.0
C      1  0.5034680000000  0.6031860000000  0.5285810000000 1.0
C      1  0.5371350000000  0.4892420000000  0.4561400000000 1.0
C      1  0.4712800000000  0.4115880000000  0.5655210000000 1.0
C      1  0.4581630000000  0.4852770000000  0.5322510000000 1.0
C      1  0.5487800000000  0.5111150000000  0.4052090000000 1.0
C      1  0.4917580000000  0.5406260000000  0.5203370000000 1.0
C      1  0.5048830000000  0.4789400000000  0.5020910000000 1.0
C      1  0.5462830000000  0.4410070000000  0.4487800000000 1.0
C      1  0.4881770000000  0.5935520000000  0.4559240000000 1.0
C      1  0.4524990000000  0.4483260000000  0.5670520000000 1.0
C      1  0.4835260000000  0.5941050000000  0.5466740000000 1.0
C      1  0.5146340000000  0.5031000000000  0.4401200000000 1.0
C      1  0.4030000000000  0.5387250000000  0.5531190000000 1.0
C      1  0.4789190000000  0.4174240000000  0.4930800000000 1.0
C      1  0.4323560000000  0.4698120000000  0.5213190000000 1.0
C      1  0.4949220000000  0.5042560000000  0.5595010000000 1.0
C      1  0.5229820000000  0.4316730000000  0.5579740000000 1.0
C      1  0.4502870000000  0.5793300000000  0.4838610000000 1.0
C      1  0.4134720000000  0.4852820000000  0.5039980000000 1.0
C      1  0.4702290000000  0.5015250000000  0.5997480000000 1.0
C      1  0.5599190000000  0.5742240000000  0.4476150000000 1.0
C      1  0.5302370000000  0.5511280000000  0.4948800000000 1.0
C      1  0.4442700000000  0.5306800000000  0.5063950000000 1.0
C      1  0.4025240000000  0.5148110000000  0.5386910000000 1.0
C      1  0.5812870000000  0.5481450000000  0.5089860000000 1.0
C      1  0.5675850000000  0.5485950000000  0.4371900000000 1.0
C      1  0.4130800000000  0.4639560000000  0.5440260000000 1.0
C      1  0.4442520000000  0.4242950000000  0.4602870000000 1.0
C      1  0.5383760000000  0.5071930000000  0.4799250000000 1.0
C      1  0.5497990000000  0.4179670000000  0.4911020000000 1.0
C      1  0.5554670000000  0.5358760000000  0.5707480000000 1.0
C      1  0.5397130000000  0.5366330000000  0.5210210000000 1.0
C      1  0.5512130000000  0.5537530000000  0.5477460000000 1.0
C      1  0.5078350000000  0.4587460000000  0.4792730000000 1.0
C      1  0.4169250000000  0.4843240000000  0.4734920000000 1.0
C      1  0.4271810000000  0.4415380000000  0.5555300000000 1.0
C      1  0.4894910000000  0.6060520000000  0.5029050000000 1.0
C      1  0.5481060000000  0.5340660000000  0.4225300000000 1.0
C      1  0.5180120000000  0.4781240000000  0.3910860000000 1.0
C      1  0.5674350000000  0.5220490000000  0.5175800000000 1.0
C      1  0.4370570000000  0.4459290000000  0.4419380000000 1.0
C      1  0.5859600000000  0.4480220000000  0.4765550000000 1.0
C      1  0.5368480000000  0.5349030000000  0.4717890000000 1.0
C      1  0.4627490000000  0.5943200000000  0.5052030000000 1.0
C      1  0.4645570000000  0.4689420000000  0.4835230000000 1.0
C      1  0.4621180000000  0.5636580000000  0.5726740000000 1.0
C      1  0.5297610000000  0.4439070000000  0.4245070000000 1.0
C      1  0.5523700000000  0.4777020000000  0.5158160000000 1.0
C      1  0.5059420000000  0.5268650000000  0.3871870000000 1.0
C      1  0.4121170000000  0.5481620000000  0.4747100000000 1.0
C      1  0.5246800000000  0.5068580000000  0.3896600000000 1.0
C      1  0.5313410000000  0.6019290000000  0.4735700000000 1.0
C      1  0.4728810000000  0.4871690000000  0.5062200000000 1.0
C      1  0.4936660000000  0.4159390000000  0.4459190000000 1.0
C      1  0.5856500000000  0.5053470000000  0.4584760000000 1.0
C      1  0.4272750000000  0.4356410000000  0.4812690000000 1.0
C      1  0.4377690000000  0.4233930000000  0.5345390000000 1.0
C      1  0.4821060000000  0.4006680000000  0.5189380000000 1.0
C      1  0.5023990000000  0.6061390000000  0.4775910000000 1.0
C      1  0.4385180000000  0.4408610000000  0.5101320000000 1.0
C      1  0.5248620000000  0.4011590000000  0.5488200000000 1.0
C      1  0.4541930000000  0.4582010000000  0.4222610000000 1.0
C      1  0.5967310000000  0.4689010000000  0.4925830000000 1.0
C      1  0.5016160000000  0.4344250000000  0.4252330000000 1.0
C      1  0.5460710000000  0.4674240000000  0.5783580000000 1.0
C      1  0.5353610000000  0.5217720000000  0.5859590000000 1.0
C      1  0.5682150000000  0.4844000000000  0.4437010000000 1.0
C      1  0.4884230000000  0.4979030000000  0.4524790000000 1.0
C      1  0.4481860000000  0.4846150000000  0.4229490000000 1.0
C      1  0.5152760000000  0.4449020000000  0.5313130000000 1.0
C      1  0.4930960000000  0.4672840000000  0.3930200000000 1.0
C      1  0.4199280000000  0.5574980000000  0.5518910000000 1.0
C      1  0.4437060000000  0.5318520000000  0.4404680000000 1.0
C      1  0.5152840000000  0.4981710000000  0.5403130000000 1.0
C      1  0.5305930000000  0.5718110000000  0.5555740000000 1.0
C      1  0.3923170000000  0.4724610000000  0.5243850000000 1.0
C      1  0.4188020000000  0.4563240000000  0.4629270000000 1.0
C      1  0.4674350000000  0.4429920000000  0.5040980000000 1.0
C      1  0.5840810000000  0.5530210000000  0.4813220000000 1.0
C      1  0.4036310000000  0.5088960000000  0.4637340000000 1.0
C      1  0.5422480000000  0.4160460000000  0.4635020000000 1.0
C      1  0.5574100000000  0.4857000000000  0.4157050000000 1.0
C      1  0.5231600000000  0.4490840000000  0.5815740000000 1.0
C      1  0.4643450000000  0.5113350000000  0.5489550000000 1.0
C      1  0.5545470000000  0.5949850000000  0.4898260000000 1.0
C      1  0.5724290000000  0.4556400000000  0.4526750000000 1.0
C      1  0.5835060000000  0.4353890000000  0.5226410000000 1.0
C      1  0.4563200000000  0.5028460000000  0.4426870000000 1.0
C      1  0.4896800000000  0.5435220000000  0.3974840000000 1.0
C      1  0.5013450000000  0.5544060000000  0.4965010000000 1.0
C      1  0.4908180000000  0.5450570000000  0.4715110000000 1.0
C      1  0.5474750000000  0.4156500000000  0.5538530000000 1.0
C      1  0.4706680000000  0.4650720000000  0.5498300000000 1.0
C      1  0.5148300000000  0.4112440000000  0.4640760000000 1.0
C      1  0.5100060000000  0.3996660000000  0.5250360000000 1.0
C      1  0.4627090000000  0.5794220000000  0.4575000000000 1.0
C      1  0.5687010000000  0.4329490000000  0.5477220000000 1.0
C      1  0.4876920000000  0.5169580000000  0.4766370000000 1.0
C      1  0.4148730000000  0.5145890000000  0.5106280000000 1.0
C      1  0.4176610000000  0.5313410000000  0.4512080000000 1.0
C      1  0.5754730000000  0.4282510000000  0.4959970000000 1.0
C      1  0.5694390000000  0.5677980000000  0.5268810000000 1.0
C      1  0.5088820000000  0.5805300000000  0.4408230000000 1.0
C      1  0.4803110000000  0.4766300000000  0.6003200000000 1.0
C      1  0.4835290000000  0.5272880000000  0.5996140000000 1.0
C      1  0.5663650000000  0.4591170000000  0.5592360000000 1.0
C      1  0.5834790000000  0.5343480000000  0.4578570000000 1.0
C      1  0.5774960000000  0.5060560000000  0.5416620000000 1.0
C      1  0.5324230000000  0.4629480000000  0.4659000000000 1.0
C      1  0.4865100000000  0.4779480000000  0.5711110000000 1.0
C      1  0.4612990000000  0.5105770000000  0.4905630000000 1.0
C      1  0.4345900000000  0.5563250000000  0.4905430000000 1.0
C      1  0.5122760000000  0.5061000000000  0.4941200000000 1.0
END
