TITL C-147412-6617-7 198.110134324154 125000 -156.604352352993 0 0 24 (C1) n - 1
REM
REM in /rds/project/t2_vol4/rds-t2-cs072/BORA/CARBON/from-Arr/AIRSS/Generating-Clusters/GAP-ML-2020/Only-C1/SD-CG/HFTN-CG
REM
REM
REM
REM
REM
REM ./C.cell (11c1c37f851c82e70ff6c80c92926a4b)
REM AIRSS Version 0.9.1 bugfix July 2018 build 013d7b7c2542+ Fri, 06 Jul 2018 19:26:36 +0100
REM compiler GCC version 9.3.0
REM options -cpp -mtune=generic -march=x86-64 -g -O0
REM seed -1180771560 -1291332359 -821652477 1974114314 507016197 -1480895959 -1107824330 803476041 -1657030559 -1277650317 -928209610 2004762008 -1919590807 2040243981 1220913074 1404190961 1624447684 1019700317 -1543559523 -1979679586 1774973843 1278716943 11675899 812588853 -1129422529 -484737085 -772728351 -1782404154 1308050678 -1564505662 1662230408 -574660236 -1486364012
REM
CELL 1.54180   50.00000   50.00000   50.00000   90.00000   90.00000   90.00000
LATT -1
SFAC C  
C      1  0.5143240000000  0.4617040000000  0.5346210000000 1.0
C      1  0.5258790000000  0.4892690000000  0.4714810000000 1.0
C      1  0.5005760000000  0.5288860000000  0.4778910000000 1.0
C      1  0.4741150000000  0.4675400000000  0.4750840000000 1.0
C      1  0.5512300000000  0.4913590000000  0.5129380000000 1.0
C      1  0.4992480000000  0.4909400000000  0.5105550000000 1.0
C      1  0.5200760000000  0.4636080000000  0.4785260000000 1.0
C      1  0.5292100000000  0.4819620000000  0.5248410000000 1.0
C      1  0.4565330000000  0.4792650000000  0.4955460000000 1.0
C      1  0.4976600000000  0.5556310000000  0.5252300000000 1.0
C      1  0.4918020000000  0.4601100000000  0.5169940000000 1.0
C      1  0.4810880000000  0.5335750000000  0.5209770000000 1.0
C      1  0.4648870000000  0.4908760000000  0.5411090000000 1.0
C      1  0.5440810000000  0.5042490000000  0.4890160000000 1.0
C      1  0.4961860000000  0.4547160000000  0.4881940000000 1.0
C      1  0.4778180000000  0.4924190000000  0.4626440000000 1.0
C      1  0.5035490000000  0.5050130000000  0.4630650000000 1.0
C      1  0.4764420000000  0.5271340000000  0.4927990000000 1.0
C      1  0.4650360000000  0.4703200000000  0.5214240000000 1.0
C      1  0.5458430000000  0.5310540000000  0.4839230000000 1.0
C      1  0.4615470000000  0.5050360000000  0.4836550000000 1.0
C      1  0.5227420000000  0.5447550000000  0.4873710000000 1.0
C      1  0.5166110000000  0.5623100000000  0.5093520000000 1.0
C      1  0.4835180000000  0.5082680000000  0.5327640000000 1.0
END
