TITL C-142779-1299-5 -117.547599325948 125000 -576.922543915483 0 0 82 (C1) n - 1
REM
REM in /rds/project/t2_vol4/rds-t2-cs072/BORA/CARBON/from-Arr/AIRSS/Generating-Clusters/GAP-ML-2020/Only-C1/SD-CG/HFTN-CG
REM
REM
REM
REM
REM
REM ./C.cell (11c1c37f851c82e70ff6c80c92926a4b)
REM AIRSS Version 0.9.1 bugfix July 2018 build 013d7b7c2542+ Fri, 06 Jul 2018 19:26:36 +0100
REM compiler GCC version 9.3.0
REM options -cpp -mtune=generic -march=x86-64 -g -O0
REM seed 1730323930 1413632690 -1870400769 -1137302571 -1853035251 -332777949 1482591280 -2035302877 523776684 -865193405 -1964329727 -844168244 -724912185 309050978 1812797833 1900112974 1548940266 393822321 2074331476 794153533 229636248 -1427118192 653910339 1258630849 92507749 26798257 -1132150540 1164172512 2073315339 -1389428394 149900278 -1881323425 -1560756298
REM
CELL 1.54180   50.00000   50.00000   50.00000   90.00000   90.00000   90.00000
LATT -1
SFAC C  
C      1  0.5511900000000  0.4465280000000  0.5166820000000 1.0
C      1  0.4249280000000  0.4776590000000  0.4977540000000 1.0
C      1  0.5301430000000  0.5577330000000  0.5363760000000 1.0
C      1  0.4240430000000  0.4977190000000  0.4773070000000 1.0
C      1  0.5081130000000  0.5802830000000  0.5006090000000 1.0
C      1  0.4408310000000  0.4915780000000  0.5442690000000 1.0
C      1  0.5719330000000  0.4678130000000  0.4798670000000 1.0
C      1  0.4849850000000  0.5693120000000  0.5162070000000 1.0
C      1  0.5664500000000  0.4694550000000  0.5063450000000 1.0
C      1  0.5569020000000  0.4790090000000  0.5498720000000 1.0
C      1  0.5108180000000  0.4817120000000  0.4896380000000 1.0
C      1  0.4820420000000  0.4361330000000  0.5596770000000 1.0
C      1  0.4904510000000  0.4516820000000  0.5816130000000 1.0
C      1  0.4963150000000  0.4853680000000  0.5149500000000 1.0
C      1  0.4827590000000  0.4299150000000  0.4953020000000 1.0
C      1  0.4991300000000  0.4909540000000  0.4656200000000 1.0
C      1  0.4316400000000  0.4734650000000  0.5240710000000 1.0
C      1  0.5046310000000  0.4287100000000  0.5437000000000 1.0
C      1  0.5250830000000  0.4275440000000  0.4751200000000 1.0
C      1  0.4330750000000  0.5307990000000  0.5100250000000 1.0
C      1  0.4658810000000  0.5568000000000  0.4942580000000 1.0
C      1  0.4551950000000  0.4745430000000  0.5627030000000 1.0
C      1  0.4739740000000  0.5233060000000  0.4872710000000 1.0
C      1  0.5085510000000  0.5160240000000  0.4015520000000 1.0
C      1  0.5662970000000  0.5384800000000  0.4995910000000 1.0
C      1  0.5484800000000  0.4518000000000  0.5439490000000 1.0
C      1  0.5319640000000  0.5020360000000  0.4874630000000 1.0
C      1  0.4727820000000  0.4826800000000  0.4208210000000 1.0
C      1  0.4626350000000  0.5612740000000  0.4662760000000 1.0
C      1  0.4572280000000  0.4427190000000  0.4982940000000 1.0
C      1  0.5031390000000  0.5251780000000  0.5153290000000 1.0
C      1  0.4995400000000  0.4965320000000  0.5847860000000 1.0
C      1  0.5108740000000  0.5747440000000  0.4724730000000 1.0
C      1  0.4617540000000  0.5401710000000  0.5487140000000 1.0
C      1  0.4984360000000  0.4389660000000  0.4432900000000 1.0
C      1  0.4425980000000  0.5569720000000  0.5114380000000 1.0
C      1  0.4888160000000  0.5392150000000  0.5583900000000 1.0
C      1  0.5190800000000  0.5299080000000  0.4232350000000 1.0
C      1  0.5655690000000  0.4921390000000  0.5263160000000 1.0
C      1  0.5128240000000  0.4787550000000  0.4425200000000 1.0
C      1  0.5336540000000  0.5195980000000  0.5635590000000 1.0
C      1  0.4290730000000  0.5247640000000  0.4818580000000 1.0
C      1  0.4584180000000  0.4482470000000  0.5501980000000 1.0
C      1  0.4922190000000  0.4632560000000  0.4298010000000 1.0
C      1  0.5395630000000  0.5665470000000  0.4702490000000 1.0
C      1  0.4778340000000  0.4772880000000  0.5812110000000 1.0
C      1  0.4949360000000  0.5398290000000  0.4404730000000 1.0
C      1  0.4891890000000  0.5652700000000  0.4552330000000 1.0
C      1  0.5534410000000  0.5473480000000  0.4547900000000 1.0
C      1  0.4580060000000  0.5645010000000  0.5340500000000 1.0
C      1  0.4784390000000  0.5096070000000  0.5118990000000 1.0
C      1  0.5672960000000  0.5293340000000  0.4728120000000 1.0
C      1  0.4512920000000  0.5164390000000  0.5310650000000 1.0
C      1  0.5524270000000  0.5057290000000  0.4612780000000 1.0
C      1  0.4389950000000  0.4797760000000  0.4592370000000 1.0
C      1  0.4472870000000  0.4493540000000  0.5244620000000 1.0
C      1  0.5523290000000  0.5639520000000  0.4963570000000 1.0
C      1  0.5058560000000  0.5220460000000  0.5729500000000 1.0
C      1  0.5239060000000  0.4806950000000  0.5850770000000 1.0
C      1  0.4728120000000  0.5293540000000  0.4242810000000 1.0
C      1  0.5380590000000  0.4642230000000  0.4450030000000 1.0
C      1  0.5427590000000  0.5259130000000  0.4389060000000 1.0
C      1  0.5292540000000  0.4383120000000  0.4489920000000 1.0
C      1  0.5433180000000  0.4935330000000  0.5695690000000 1.0
C      1  0.4434550000000  0.5384720000000  0.4599340000000 1.0
C      1  0.5044750000000  0.4771910000000  0.5391740000000 1.0
C      1  0.4832340000000  0.5070260000000  0.4084950000000 1.0
C      1  0.5185200000000  0.4535630000000  0.5812450000000 1.0
C      1  0.4418030000000  0.4601350000000  0.4809210000000 1.0
C      1  0.5602730000000  0.4771510000000  0.4570590000000 1.0
C      1  0.5334260000000  0.5738280000000  0.5142130000000 1.0
C      1  0.5045120000000  0.4272670000000  0.5155760000000 1.0
C      1  0.5627350000000  0.5216260000000  0.5232910000000 1.0
C      1  0.4958440000000  0.5202750000000  0.4684820000000 1.0
C      1  0.5019060000000  0.5502530000000  0.5345830000000 1.0
C      1  0.4501590000000  0.5213390000000  0.4384720000000 1.0
C      1  0.5176210000000  0.5266240000000  0.4904280000000 1.0
C      1  0.5278950000000  0.4395400000000  0.5582990000000 1.0
C      1  0.5459020000000  0.5345560000000  0.5430200000000 1.0
C      1  0.5303660000000  0.4311200000000  0.5030110000000 1.0
C      1  0.4956460000000  0.4274640000000  0.4697710000000 1.0
C      1  0.4507850000000  0.4920370000000  0.4370460000000 1.0
END
