TITL C-147423-6669-6 -94.4200371880297 125000 -355.564958869466 0 0 53 (C1) n - 1
REM
REM in /rds/project/t2_vol4/rds-t2-cs072/BORA/CARBON/from-Arr/AIRSS/Generating-Clusters/GAP-ML-2020/Only-C1/SD-CG/HFTN-CG
REM
REM
REM
REM
REM
REM ./C.cell (11c1c37f851c82e70ff6c80c92926a4b)
REM AIRSS Version 0.9.1 bugfix July 2018 build 013d7b7c2542+ Fri, 06 Jul 2018 19:26:36 +0100
REM compiler GCC version 9.3.0
REM options -cpp -mtune=generic -march=x86-64 -g -O0
REM seed -2074413775 1737544984 -393206415 628856081 730415814 -1465212906 -1063876517 -153393436 -394239375 -1152593411 -1382826315 2127842893 282509936 -1477771283 623357060 2107925922 -1462266225 -322908322 -925439539 216968716 1981359157 1484900426 943888714 1455876470 -1975547281 186674190 169034322 -2016301007 -805473664 348909369 -777663008 1574652416 1367197794
REM
CELL 1.54180   50.00000   50.00000   50.00000   90.00000   90.00000   90.00000
LATT -1
SFAC C  
C      1  0.4746270000000  0.4819010000000  0.5506260000000 1.0
C      1  0.5690140000000  0.4756940000000  0.4856570000000 1.0
C      1  0.4993340000000  0.5224680000000  0.4658820000000 1.0
C      1  0.5421760000000  0.4737270000000  0.4454180000000 1.0
C      1  0.5024380000000  0.4485090000000  0.5342100000000 1.0
C      1  0.4383120000000  0.5291700000000  0.5077920000000 1.0
C      1  0.4250630000000  0.4850430000000  0.5037950000000 1.0
C      1  0.5447570000000  0.5047070000000  0.5082920000000 1.0
C      1  0.5580980000000  0.4514330000000  0.4923400000000 1.0
C      1  0.4871540000000  0.5479190000000  0.4583410000000 1.0
C      1  0.5032630000000  0.5198280000000  0.5424120000000 1.0
C      1  0.4564600000000  0.4700900000000  0.5322810000000 1.0
C      1  0.5223010000000  0.5650970000000  0.4915360000000 1.0
C      1  0.4916750000000  0.4660170000000  0.4414480000000 1.0
C      1  0.4328670000000  0.5046490000000  0.4636880000000 1.0
C      1  0.5497130000000  0.5269250000000  0.4900670000000 1.0
C      1  0.4804100000000  0.4743130000000  0.4852770000000 1.0
C      1  0.5239340000000  0.4778750000000  0.5545640000000 1.0
C      1  0.4368620000000  0.4893450000000  0.5284940000000 1.0
C      1  0.5030290000000  0.5618970000000  0.5129210000000 1.0
C      1  0.4974280000000  0.4670030000000  0.5554640000000 1.0
C      1  0.5272820000000  0.5054040000000  0.5542450000000 1.0
C      1  0.5510460000000  0.5183560000000  0.4636690000000 1.0
C      1  0.5567670000000  0.4899800000000  0.4622560000000 1.0
C      1  0.4915770000000  0.5195080000000  0.4944620000000 1.0
C      1  0.4446600000000  0.5268940000000  0.4536840000000 1.0
C      1  0.4242810000000  0.5104430000000  0.4910930000000 1.0
C      1  0.5102870000000  0.4680660000000  0.4846130000000 1.0
C      1  0.5144710000000  0.5575750000000  0.4642050000000 1.0
C      1  0.5168120000000  0.4674840000000  0.4532610000000 1.0
C      1  0.5496350000000  0.5163210000000  0.5372960000000 1.0
C      1  0.4551510000000  0.5480340000000  0.4949910000000 1.0
C      1  0.5145560000000  0.5470040000000  0.5356450000000 1.0
C      1  0.4481980000000  0.5149900000000  0.5322820000000 1.0
C      1  0.5383540000000  0.4416150000000  0.5074480000000 1.0
C      1  0.4742890000000  0.5104480000000  0.5461240000000 1.0
C      1  0.4599110000000  0.5453320000000  0.4662610000000 1.0
C      1  0.4644830000000  0.4566920000000  0.5062950000000 1.0
C      1  0.5110890000000  0.4401800000000  0.4953200000000 1.0
C      1  0.5037420000000  0.5039650000000  0.5147310000000 1.0
C      1  0.5228870000000  0.4841770000000  0.5070050000000 1.0
C      1  0.4806380000000  0.5475580000000  0.5057430000000 1.0
C      1  0.5284370000000  0.4628970000000  0.5283360000000 1.0
C      1  0.5451350000000  0.5516110000000  0.5026640000000 1.0
C      1  0.4377700000000  0.4650060000000  0.4893460000000 1.0
C      1  0.4700150000000  0.4698340000000  0.4570850000000 1.0
C      1  0.4711040000000  0.5008740000000  0.4927430000000 1.0
C      1  0.5265030000000  0.5311490000000  0.4591490000000 1.0
C      1  0.4424010000000  0.4756230000000  0.4626720000000 1.0
C      1  0.5728190000000  0.4919900000000  0.5091540000000 1.0
C      1  0.5767520000000  0.5041690000000  0.5331280000000 1.0
C      1  0.5419700000000  0.5446010000000  0.5316630000000 1.0
C      1  0.4880630000000  0.4386110000000  0.5129270000000 1.0
END
