TITL C-142160-2808-3 -37.4509310449918 125000 -141.175512549976 0 0 22 (C1) n - 1
REM
REM in /rds/project/t2_vol4/rds-t2-cs072/BORA/CARBON/from-Arr/AIRSS/Generating-Clusters/GAP-ML-2020/Only-C1/SD-CG/HFTN-CG
REM
REM
REM
REM
REM
REM ./C.cell (11c1c37f851c82e70ff6c80c92926a4b)
REM AIRSS Version 0.9.1 bugfix July 2018 build 013d7b7c2542+ Fri, 06 Jul 2018 19:26:36 +0100
REM compiler GCC version 9.3.0
REM options -cpp -mtune=generic -march=x86-64 -g -O0
REM seed 258978653 -657232832 178727794 1476535563 1898109198 -467741009 -363475857 1229241348 -2009113683 333400616 105498845 -2101141085 -168145892 1161402280 -1622904327 1033650618 -1892675791 2025055276 1039598195 -1760082440 1822360864 -52918171 1285060400 2128384582 1260802072 -485041665 1224568734 1060990591 -1653449266 382233580 1658661266 1225793436 -1559705921
REM
CELL 1.54180   50.00000   50.00000   50.00000   90.00000   90.00000   90.00000
LATT -1
SFAC C  
C      1  0.4760680000000  0.5551000000000  0.4869980000000 1.0
C      1  0.5215620000000  0.5088300000000  0.5450180000000 1.0
C      1  0.4795860000000  0.4739530000000  0.5363460000000 1.0
C      1  0.5045560000000  0.4559680000000  0.4996520000000 1.0
C      1  0.4688910000000  0.5356730000000  0.5045200000000 1.0
C      1  0.4341620000000  0.5101460000000  0.4718760000000 1.0
C      1  0.5057990000000  0.4667330000000  0.5247260000000 1.0
C      1  0.4700850000000  0.4968690000000  0.5338000000000 1.0
C      1  0.4587870000000  0.5010120000000  0.4631160000000 1.0
C      1  0.4723970000000  0.4811210000000  0.4527390000000 1.0
C      1  0.5339720000000  0.4662740000000  0.4624210000000 1.0
C      1  0.5174820000000  0.5509390000000  0.5263800000000 1.0
C      1  0.5154820000000  0.4541660000000  0.4769000000000 1.0
C      1  0.4571140000000  0.5246520000000  0.4798620000000 1.0
C      1  0.5538670000000  0.4784880000000  0.4735550000000 1.0
C      1  0.5627220000000  0.4892880000000  0.4959210000000 1.0
C      1  0.5048760000000  0.5294790000000  0.5372960000000 1.0
C      1  0.5513220000000  0.4877440000000  0.5184800000000 1.0
C      1  0.4776750000000  0.5234350000000  0.5292590000000 1.0
C      1  0.4819920000000  0.4605050000000  0.4426610000000 1.0
C      1  0.5278010000000  0.4852010000000  0.5323080000000 1.0
C      1  0.5238020000000  0.5644230000000  0.5061650000000 1.0
END
