TITL C-144804-3239-10 0.00862047885553943 125000 -447.562113370729 0 0 64 (C1) n - 1
REM
REM in /rds/project/t2_vol4/rds-t2-cs072/BORA/CARBON/from-Arr/AIRSS/Generating-Clusters/GAP-ML-2020/Only-C1/SD-CG/HFTN-CG
REM
REM
REM
REM
REM
REM ./C.cell (11c1c37f851c82e70ff6c80c92926a4b)
REM AIRSS Version 0.9.1 bugfix July 2018 build 013d7b7c2542+ Fri, 06 Jul 2018 19:26:36 +0100
REM compiler GCC version 9.3.0
REM options -cpp -mtune=generic -march=x86-64 -g -O0
REM seed -1918129364 -1567221558 103751709 1014548398 -29727271 572343509 20090869 -112225961 506229368 1398567307 -1716452881 -1753824736 1475681666 1844562865 -1865980860 229572299 320769179 -380452603 -1583916494 1761684481 1838768311 1144837575 -1619331787 1507894987 -1786083661 -516669566 1300970813 -863018882 -2120242704 -1360218704 -1662200603 -1419115139 -366141088
REM
CELL 1.54180   50.00000   50.00000   50.00000   90.00000   90.00000   90.00000
LATT -1
SFAC C  
C      1  0.5687440000000  0.4933280000000  0.5145070000000 1.0
C      1  0.5089250000000  0.4309380000000  0.4954520000000 1.0
C      1  0.4975590000000  0.5399350000000  0.4541080000000 1.0
C      1  0.4624320000000  0.4460590000000  0.4872350000000 1.0
C      1  0.5425580000000  0.4506040000000  0.4656420000000 1.0
C      1  0.5590850000000  0.4707890000000  0.5313110000000 1.0
C      1  0.4594200000000  0.5028770000000  0.5558070000000 1.0
C      1  0.4361230000000  0.4825370000000  0.4745270000000 1.0
C      1  0.5137270000000  0.5333260000000  0.4774730000000 1.0
C      1  0.5529660000000  0.5241140000000  0.5485430000000 1.0
C      1  0.4546070000000  0.4752620000000  0.4530260000000 1.0
C      1  0.4826340000000  0.5148020000000  0.4419430000000 1.0
C      1  0.5027800000000  0.5712890000000  0.5191720000000 1.0
C      1  0.4342650000000  0.5374990000000  0.4742890000000 1.0
C      1  0.5062770000000  0.5611280000000  0.5453480000000 1.0
C      1  0.4982360000000  0.4516100000000  0.4519620000000 1.0
C      1  0.5589230000000  0.4568920000000  0.4875490000000 1.0
C      1  0.5654810000000  0.5193450000000  0.5248450000000 1.0
C      1  0.5128850000000  0.5084500000000  0.5687040000000 1.0
C      1  0.5167590000000  0.4898450000000  0.4929590000000 1.0
C      1  0.5112410000000  0.4959100000000  0.5193820000000 1.0
C      1  0.5003170000000  0.5314150000000  0.5531410000000 1.0
C      1  0.5395550000000  0.5033140000000  0.5614560000000 1.0
C      1  0.4822610000000  0.4413910000000  0.5319220000000 1.0
C      1  0.4566390000000  0.5587820000000  0.5132690000000 1.0
C      1  0.4783960000000  0.5593910000000  0.4677340000000 1.0
C      1  0.4397380000000  0.4992900000000  0.5350060000000 1.0
C      1  0.5437050000000  0.4762040000000  0.5544160000000 1.0
C      1  0.5599810000000  0.5218870000000  0.4483440000000 1.0
C      1  0.5119650000000  0.5242870000000  0.5248350000000 1.0
C      1  0.4718230000000  0.5284050000000  0.5539570000000 1.0
C      1  0.5099030000000  0.4430780000000  0.5404330000000 1.0
C      1  0.5169700000000  0.4378620000000  0.4692480000000 1.0
C      1  0.5471690000000  0.5398110000000  0.4356360000000 1.0
C      1  0.4825500000000  0.5619310000000  0.4997060000000 1.0
C      1  0.4899780000000  0.4915950000000  0.5006070000000 1.0
C      1  0.4431650000000  0.4722280000000  0.5244880000000 1.0
C      1  0.5520790000000  0.4984260000000  0.4633480000000 1.0
C      1  0.4817370000000  0.4343940000000  0.5041750000000 1.0
C      1  0.5186960000000  0.4626920000000  0.5586600000000 1.0
C      1  0.4362440000000  0.5105190000000  0.4651000000000 1.0
C      1  0.5263160000000  0.4365230000000  0.5178430000000 1.0
C      1  0.5199040000000  0.5406270000000  0.4314570000000 1.0
C      1  0.5175180000000  0.5180540000000  0.4152680000000 1.0
C      1  0.4572050000000  0.5034540000000  0.4459360000000 1.0
C      1  0.4528630000000  0.5554180000000  0.4613310000000 1.0
C      1  0.4354780000000  0.5426880000000  0.5016050000000 1.0
C      1  0.4963710000000  0.5353870000000  0.5014840000000 1.0
C      1  0.5287200000000  0.5097920000000  0.4775620000000 1.0
C      1  0.4420110000000  0.4645730000000  0.4967900000000 1.0
C      1  0.5392920000000  0.5381880000000  0.5268740000000 1.0
C      1  0.5512930000000  0.4492610000000  0.5141280000000 1.0
C      1  0.4759270000000  0.5150470000000  0.4950840000000 1.0
C      1  0.5128400000000  0.4730640000000  0.4385960000000 1.0
C      1  0.5027140000000  0.4987910000000  0.4293430000000 1.0
C      1  0.5392760000000  0.4734270000000  0.4494430000000 1.0
C      1  0.4553250000000  0.5431180000000  0.5372560000000 1.0
C      1  0.5287260000000  0.5646810000000  0.5275850000000 1.0
C      1  0.4350730000000  0.5256840000000  0.5249060000000 1.0
C      1  0.4633660000000  0.4598070000000  0.5414430000000 1.0
C      1  0.5668510000000  0.4842030000000  0.4870810000000 1.0
C      1  0.4732370000000  0.4788230000000  0.5610290000000 1.0
C      1  0.4710110000000  0.4533760000000  0.4605790000000 1.0
C      1  0.5001860000000  0.4825710000000  0.5681120000000 1.0
END
