TITL C-142790-1184-3 -0.0139987130984398 125000 -187.158223882464 0 0 29 (C1) n - 1
REM
REM in /rds/project/t2_vol4/rds-t2-cs072/BORA/CARBON/from-Arr/AIRSS/Generating-Clusters/GAP-ML-2020/Only-C1/SD-CG/HFTN-CG
REM
REM
REM
REM
REM
REM ./C.cell (11c1c37f851c82e70ff6c80c92926a4b)
REM AIRSS Version 0.9.1 bugfix July 2018 build 013d7b7c2542+ Fri, 06 Jul 2018 19:26:36 +0100
REM compiler GCC version 9.3.0
REM options -cpp -mtune=generic -march=x86-64 -g -O0
REM seed 329763958 339052075 -178811843 1257500505 -434521079 -1477691363 -1367369092 1730334341 508011307 -2005362420 518882193 369763083 -593037890 847698876 677311065 -1206552678 1000737742 10290726 126980526 -1040405702 38902597 -968095762 91999482 -1656384043 2119366772 1937907420 432616692 482699753 -1754913325 350271450 -106179716 -1834116936 855506951
REM
CELL 1.54180   50.00000   50.00000   50.00000   90.00000   90.00000   90.00000
LATT -1
SFAC C  
C      1  0.5235990000000  0.5703730000000  0.5341040000000 1.0
C      1  0.5447200000000  0.5752290000000  0.5182690000000 1.0
C      1  0.4498430000000  0.4826230000000  0.4704090000000 1.0
C      1  0.5518760000000  0.5484060000000  0.4752830000000 1.0
C      1  0.4983660000000  0.5060910000000  0.5332560000000 1.0
C      1  0.5485790000000  0.4569840000000  0.5129420000000 1.0
C      1  0.5043140000000  0.4916020000000  0.4655910000000 1.0
C      1  0.5526200000000  0.5638230000000  0.4965010000000 1.0
C      1  0.4730990000000  0.4423220000000  0.5062810000000 1.0
C      1  0.4673400000000  0.5348290000000  0.5092660000000 1.0
C      1  0.5338300000000  0.4488470000000  0.4929520000000 1.0
C      1  0.4584820000000  0.5163950000000  0.4924460000000 1.0
C      1  0.5117260000000  0.4665620000000  0.5484640000000 1.0
C      1  0.5153720000000  0.4364580000000  0.4791860000000 1.0
C      1  0.4931360000000  0.4502950000000  0.4893680000000 1.0
C      1  0.5034480000000  0.5553880000000  0.5359780000000 1.0
C      1  0.5195670000000  0.5131430000000  0.4577590000000 1.0
C      1  0.5389010000000  0.5308390000000  0.4619180000000 1.0
C      1  0.4631050000000  0.4683580000000  0.5471370000000 1.0
C      1  0.4875500000000  0.5334590000000  0.5296820000000 1.0
C      1  0.4880960000000  0.4820690000000  0.5472080000000 1.0
C      1  0.5284510000000  0.4711780000000  0.5271080000000 1.0
C      1  0.5120320000000  0.4902680000000  0.5134170000000 1.0
C      1  0.4948530000000  0.4798540000000  0.4906290000000 1.0
C      1  0.4622020000000  0.4641280000000  0.5195020000000 1.0
C      1  0.4523230000000  0.5104860000000  0.4633810000000 1.0
C      1  0.4910470000000  0.5074420000000  0.4473220000000 1.0
C      1  0.4658560000000  0.5168020000000  0.4391520000000 1.0
C      1  0.4656650000000  0.4857450000000  0.4954890000000 1.0
END
