TITL C-142169-2757-10 -0.0803307541288023 125000 -677.834499721753 0 0 97 (C1) n - 1
REM
REM in /rds/project/t2_vol4/rds-t2-cs072/BORA/CARBON/from-Arr/AIRSS/Generating-Clusters/GAP-ML-2020/Only-C1/SD-CG/HFTN-CG
REM
REM
REM
REM
REM
REM ./C.cell (11c1c37f851c82e70ff6c80c92926a4b)
REM AIRSS Version 0.9.1 bugfix July 2018 build 013d7b7c2542+ Fri, 06 Jul 2018 19:26:36 +0100
REM compiler GCC version 9.3.0
REM options -cpp -mtune=generic -march=x86-64 -g -O0
REM seed 1082924808 36881292 1762305031 -1474143365 -1851382087 -1176804802 -1634214989 -235695648 617579820 -844278222 1718648815 1433827025 1441056262 32346872 797320394 -1723120227 -382358994 -752598623 1440491492 1903017230 -1767472199 723561075 760594443 1709209661 -1676969980 328627309 472789230 -1860644001 358189086 1129609367 1782775732 500993534 -932739415
REM
CELL 1.54180   50.00000   50.00000   50.00000   90.00000   90.00000   90.00000
LATT -1
SFAC C  
C      1  0.4389930000000  0.4368670000000  0.5100590000000 1.0
C      1  0.5389680000000  0.5310160000000  0.5028570000000 1.0
C      1  0.4351470000000  0.4540330000000  0.5540880000000 1.0
C      1  0.4634030000000  0.5679410000000  0.4632880000000 1.0
C      1  0.5598960000000  0.5547800000000  0.5031840000000 1.0
C      1  0.4634480000000  0.4529800000000  0.5498650000000 1.0
C      1  0.5728930000000  0.4546470000000  0.4971580000000 1.0
C      1  0.5398320000000  0.5358980000000  0.4351320000000 1.0
C      1  0.5827600000000  0.4955470000000  0.5292420000000 1.0
C      1  0.5582520000000  0.5437060000000  0.4555620000000 1.0
C      1  0.4683210000000  0.4991850000000  0.5527500000000 1.0
C      1  0.5656250000000  0.4941700000000  0.4421480000000 1.0
C      1  0.5105680000000  0.5622710000000  0.5503070000000 1.0
C      1  0.4848560000000  0.4653680000000  0.4821340000000 1.0
C      1  0.5460360000000  0.5711110000000  0.5233520000000 1.0
C      1  0.4807680000000  0.5325080000000  0.4355680000000 1.0
C      1  0.4792170000000  0.5028000000000  0.4402050000000 1.0
C      1  0.5477620000000  0.5279700000000  0.5535920000000 1.0
C      1  0.4937610000000  0.5619200000000  0.4722360000000 1.0
C      1  0.4256800000000  0.4901610000000  0.4926940000000 1.0
C      1  0.5721220000000  0.4692980000000  0.4532670000000 1.0
C      1  0.5380040000000  0.5131590000000  0.5284890000000 1.0
C      1  0.4641130000000  0.5295270000000  0.5113390000000 1.0
C      1  0.4190700000000  0.5372910000000  0.5350830000000 1.0
C      1  0.5309220000000  0.5181530000000  0.5763810000000 1.0
C      1  0.5108060000000  0.5364410000000  0.5077250000000 1.0
C      1  0.5546670000000  0.4371390000000  0.4818460000000 1.0
C      1  0.4584010000000  0.5482980000000  0.4435090000000 1.0
C      1  0.4015900000000  0.5232700000000  0.5159260000000 1.0
C      1  0.5512360000000  0.4624060000000  0.5463300000000 1.0
C      1  0.4766110000000  0.4823900000000  0.5048830000000 1.0
C      1  0.5673320000000  0.4694240000000  0.5221300000000 1.0
C      1  0.5095540000000  0.4237070000000  0.5081410000000 1.0
C      1  0.5831240000000  0.5402960000000  0.5091820000000 1.0
C      1  0.5125060000000  0.4751230000000  0.5695350000000 1.0
C      1  0.4298630000000  0.4729590000000  0.5726150000000 1.0
C      1  0.5474540000000  0.5245850000000  0.4118010000000 1.0
C      1  0.4565450000000  0.5050400000000  0.4612150000000 1.0
C      1  0.4859860000000  0.5485560000000  0.4987200000000 1.0
C      1  0.5896190000000  0.5136620000000  0.5082470000000 1.0
C      1  0.4403010000000  0.5292960000000  0.4544950000000 1.0
C      1  0.4926940000000  0.5413840000000  0.5586950000000 1.0
C      1  0.4775810000000  0.5742420000000  0.5152570000000 1.0
C      1  0.4691810000000  0.4742620000000  0.4335720000000 1.0
C      1  0.5444750000000  0.4878420000000  0.5154580000000 1.0
C      1  0.4034140000000  0.4991330000000  0.5322410000000 1.0
C      1  0.4818880000000  0.4212210000000  0.4991010000000 1.0
C      1  0.4124970000000  0.5186150000000  0.4903980000000 1.0
C      1  0.5227040000000  0.4841760000000  0.4241400000000 1.0
C      1  0.5351110000000  0.4902330000000  0.5782590000000 1.0
C      1  0.4193820000000  0.5132860000000  0.5520780000000 1.0
C      1  0.4879570000000  0.4324800000000  0.4524510000000 1.0
C      1  0.4492650000000  0.5719010000000  0.5112930000000 1.0
C      1  0.5151920000000  0.4258430000000  0.4593140000000 1.0
C      1  0.5281290000000  0.4246650000000  0.4856940000000 1.0
C      1  0.5222950000000  0.5742350000000  0.4821840000000 1.0
C      1  0.5066960000000  0.5143550000000  0.5257330000000 1.0
C      1  0.4420660000000  0.5651320000000  0.4834600000000 1.0
C      1  0.5011590000000  0.5802850000000  0.5283160000000 1.0
C      1  0.4392210000000  0.4974550000000  0.5642430000000 1.0
C      1  0.4260880000000  0.5402900000000  0.4765770000000 1.0
C      1  0.5385850000000  0.5569100000000  0.5469930000000 1.0
C      1  0.4881540000000  0.4528730000000  0.4323720000000 1.0
C      1  0.4421040000000  0.5480110000000  0.5243080000000 1.0
C      1  0.4323780000000  0.4675250000000  0.4724340000000 1.0
C      1  0.5153820000000  0.4570040000000  0.4246440000000 1.0
C      1  0.5670580000000  0.5142680000000  0.4638010000000 1.0
C      1  0.5864340000000  0.5018300000000  0.4825980000000 1.0
C      1  0.5033390000000  0.5213850000000  0.5757660000000 1.0
C      1  0.5074740000000  0.4343880000000  0.5358060000000 1.0
C      1  0.5841180000000  0.4737200000000  0.4787100000000 1.0
C      1  0.4578790000000  0.5034960000000  0.4941530000000 1.0
C      1  0.4674300000000  0.4770850000000  0.5333250000000 1.0
C      1  0.4721570000000  0.4367590000000  0.4764570000000 1.0
C      1  0.5574800000000  0.4834120000000  0.5640510000000 1.0
C      1  0.5697540000000  0.5060250000000  0.5525420000000 1.0
C      1  0.5481210000000  0.5616460000000  0.4758260000000 1.0
C      1  0.4474770000000  0.4780460000000  0.4515270000000 1.0
C      1  0.4913860000000  0.4954260000000  0.5713560000000 1.0
C      1  0.4429660000000  0.4433680000000  0.4828720000000 1.0
C      1  0.5236450000000  0.5823610000000  0.5102080000000 1.0
C      1  0.5031580000000  0.4919940000000  0.5103040000000 1.0
C      1  0.5076010000000  0.4963540000000  0.4469120000000 1.0
C      1  0.5012770000000  0.5428360000000  0.4515280000000 1.0
C      1  0.5234270000000  0.4532900000000  0.5512570000000 1.0
C      1  0.5316230000000  0.4401240000000  0.4412130000000 1.0
C      1  0.4238210000000  0.4537510000000  0.5271130000000 1.0
C      1  0.5560640000000  0.4457400000000  0.4543850000000 1.0
C      1  0.5476690000000  0.4980180000000  0.4201730000000 1.0
C      1  0.5255910000000  0.4884440000000  0.4914630000000 1.0
C      1  0.5099670000000  0.4749410000000  0.4707690000000 1.0
C      1  0.4633620000000  0.4237760000000  0.5196020000000 1.0
C      1  0.5377970000000  0.5136160000000  0.4793980000000 1.0
C      1  0.4786640000000  0.4317440000000  0.5415800000000 1.0
C      1  0.4783830000000  0.5236520000000  0.5382460000000 1.0
C      1  0.5209630000000  0.5219430000000  0.4547780000000 1.0
C      1  0.4143060000000  0.4783020000000  0.5167820000000 1.0
END
