TITL C-149871-9033-6 0.0333358172443942 125000 -403.841352913398 0 0 60 (C1) n - 1
REM
REM in /rds/project/t2_vol4/rds-t2-cs072/BORA/CARBON/from-Arr/AIRSS/Generating-Clusters/GAP-ML-2020/Only-C1/SD-CG/HFTN-CG
REM
REM
REM
REM
REM
REM ./C.cell (11c1c37f851c82e70ff6c80c92926a4b)
REM AIRSS Version 0.9.1 bugfix July 2018 build 013d7b7c2542+ Fri, 06 Jul 2018 19:26:36 +0100
REM compiler GCC version 9.3.0
REM options -cpp -mtune=generic -march=x86-64 -g -O0
REM seed -1048486251 2010089976 994215728 -1855029237 -138086117 -1722781434 215875127 -1599905094 667195000 2127281372 2065471621 -1917790839 1614918297 1616844841 -1156655163 539630003 320647431 -851151501 -1143535169 370010308 -1091820061 1507478743 -438868741 2004304521 1725378359 -1425540627 -1464445303 -2119362492 -648571941 -1037078930 -1360440404 935551610 1563308175
REM
CELL 1.54180   50.00000   50.00000   50.00000   90.00000   90.00000   90.00000
LATT -1
SFAC C  
C      1  0.4629840000000  0.4641700000000  0.5349740000000 1.0
C      1  0.4597170000000  0.5273370000000  0.5563530000000 1.0
C      1  0.5008140000000  0.4888300000000  0.5036600000000 1.0
C      1  0.4419870000000  0.5109160000000  0.5370580000000 1.0
C      1  0.5049360000000  0.4327540000000  0.4696670000000 1.0
C      1  0.5515330000000  0.4393370000000  0.4740070000000 1.0
C      1  0.5466620000000  0.4734170000000  0.5070430000000 1.0
C      1  0.4453870000000  0.5167730000000  0.5088570000000 1.0
C      1  0.5184890000000  0.4783600000000  0.5518740000000 1.0
C      1  0.4727270000000  0.5590540000000  0.4791380000000 1.0
C      1  0.4897010000000  0.4759710000000  0.5296240000000 1.0
C      1  0.5116650000000  0.5258740000000  0.4770660000000 1.0
C      1  0.5358330000000  0.5194880000000  0.4938280000000 1.0
C      1  0.4702480000000  0.5007280000000  0.5645490000000 1.0
C      1  0.4484340000000  0.4730490000000  0.4735050000000 1.0
C      1  0.4448160000000  0.5004220000000  0.4817460000000 1.0
C      1  0.4571590000000  0.4486830000000  0.4864750000000 1.0
C      1  0.4415280000000  0.5448810000000  0.5011530000000 1.0
C      1  0.5492270000000  0.5368690000000  0.5498830000000 1.0
C      1  0.5433780000000  0.4580160000000  0.4551880000000 1.0
C      1  0.4767600000000  0.5244360000000  0.5121750000000 1.0
C      1  0.4661000000000  0.4679570000000  0.4534680000000 1.0
C      1  0.4681260000000  0.5552520000000  0.5080180000000 1.0
C      1  0.4805010000000  0.4301530000000  0.4833270000000 1.0
C      1  0.4916410000000  0.4743310000000  0.4470600000000 1.0
C      1  0.5165220000000  0.5182710000000  0.4466160000000 1.0
C      1  0.5134290000000  0.4599760000000  0.4614050000000 1.0
C      1  0.5018270000000  0.5548090000000  0.4742030000000 1.0
C      1  0.4951600000000  0.4982860000000  0.5515000000000 1.0
C      1  0.5114030000000  0.5680900000000  0.4997050000000 1.0
C      1  0.4501100000000  0.4855900000000  0.5484870000000 1.0
C      1  0.5555740000000  0.5102920000000  0.5416960000000 1.0
C      1  0.5386630000000  0.4889510000000  0.5324720000000 1.0
C      1  0.4762450000000  0.5478510000000  0.5609150000000 1.0
C      1  0.4886010000000  0.5111350000000  0.4887250000000 1.0
C      1  0.5535080000000  0.4459880000000  0.5022560000000 1.0
C      1  0.5414300000000  0.5053850000000  0.4404440000000 1.0
C      1  0.4499730000000  0.5200530000000  0.4610290000000 1.0
C      1  0.5349090000000  0.5614280000000  0.5139400000000 1.0
C      1  0.4996170000000  0.5514090000000  0.5439700000000 1.0
C      1  0.4923620000000  0.5013050000000  0.4401420000000 1.0
C      1  0.5521700000000  0.4865170000000  0.4568790000000 1.0
C      1  0.5291630000000  0.5553660000000  0.5427130000000 1.0
C      1  0.5458260000000  0.4929820000000  0.4850740000000 1.0
C      1  0.5203410000000  0.4750330000000  0.4879950000000 1.0
C      1  0.4909740000000  0.5673270000000  0.5196180000000 1.0
C      1  0.4987900000000  0.5222570000000  0.5337790000000 1.0
C      1  0.5283250000000  0.4212280000000  0.4808320000000 1.0
C      1  0.5207590000000  0.5086610000000  0.5182440000000 1.0
C      1  0.5308440000000  0.4267020000000  0.5084210000000 1.0
C      1  0.4704910000000  0.5196540000000  0.4411430000000 1.0
C      1  0.4591750000000  0.4441180000000  0.5156970000000 1.0
C      1  0.5522990000000  0.5412330000000  0.5046430000000 1.0
C      1  0.4826150000000  0.4266110000000  0.5122070000000 1.0
C      1  0.5060960000000  0.5478500000000  0.4451650000000 1.0
C      1  0.4815470000000  0.5450740000000  0.4330190000000 1.0
C      1  0.5661920000000  0.5310000000000  0.5272650000000 1.0
C      1  0.4489070000000  0.5457020000000  0.4730730000000 1.0
C      1  0.5074490000000  0.4549650000000  0.5415010000000 1.0
C      1  0.5083520000000  0.4318400000000  0.5255330000000 1.0
END
