TITL C-149877-9008-5 -251.414093336938 125000 -593.908181047092 0 0 85 (C1) n - 1
REM
REM in /rds/project/t2_vol4/rds-t2-cs072/BORA/CARBON/from-Arr/AIRSS/Generating-Clusters/GAP-ML-2020/Only-C1/SD-CG/HFTN-CG
REM
REM
REM
REM
REM
REM ./C.cell (11c1c37f851c82e70ff6c80c92926a4b)
REM AIRSS Version 0.9.1 bugfix July 2018 build 013d7b7c2542+ Fri, 06 Jul 2018 19:26:36 +0100
REM compiler GCC version 9.3.0
REM options -cpp -mtune=generic -march=x86-64 -g -O0
REM seed 570907871 -994623563 1001710591 -292859784 -1045871522 -330471338 -1757570831 -1294840639 1682775786 44941259 1941866568 794657119 -178469295 1806050294 412520712 2115066250 1897101035 -342465623 -2061143724 -225040913 118029542 1130135454 -741351495 -1041706988 130916148 2126433815 1633292471 691455257 1357684136 -1680950551 1777341065 -1366325127 611407119
REM
CELL 1.54180   50.00000   50.00000   50.00000   90.00000   90.00000   90.00000
LATT -1
SFAC C  
C      1  0.5754620000000  0.4737790000000  0.5178050000000 1.0
C      1  0.4946170000000  0.5681290000000  0.4513170000000 1.0
C      1  0.4631840000000  0.4859510000000  0.5032310000000 1.0
C      1  0.4390520000000  0.4843940000000  0.4460030000000 1.0
C      1  0.5241610000000  0.5638270000000  0.4563310000000 1.0
C      1  0.5448190000000  0.4710010000000  0.5541040000000 1.0
C      1  0.4201490000000  0.5161690000000  0.5355690000000 1.0
C      1  0.4544370000000  0.4563130000000  0.5530780000000 1.0
C      1  0.5065300000000  0.5500730000000  0.5400690000000 1.0
C      1  0.5241470000000  0.5143570000000  0.5711270000000 1.0
C      1  0.4897800000000  0.5722680000000  0.4985310000000 1.0
C      1  0.4717570000000  0.4290360000000  0.5187240000000 1.0
C      1  0.4466500000000  0.5316440000000  0.4534570000000 1.0
C      1  0.4308920000000  0.4486420000000  0.4867270000000 1.0
C      1  0.5038740000000  0.5264600000000  0.4982210000000 1.0
C      1  0.5355050000000  0.5714300000000  0.4812730000000 1.0
C      1  0.4510890000000  0.5245260000000  0.5709170000000 1.0
C      1  0.4839010000000  0.4518420000000  0.5570520000000 1.0
C      1  0.5174990000000  0.5791400000000  0.5020530000000 1.0
C      1  0.5566310000000  0.5558930000000  0.4933710000000 1.0
C      1  0.4486660000000  0.5340790000000  0.5002130000000 1.0
C      1  0.4782150000000  0.4367880000000  0.4908830000000 1.0
C      1  0.5524700000000  0.5559950000000  0.5221930000000 1.0
C      1  0.4330450000000  0.4757100000000  0.5009970000000 1.0
C      1  0.5711310000000  0.4775620000000  0.4687490000000 1.0
C      1  0.4890990000000  0.5492880000000  0.5161990000000 1.0
C      1  0.4764890000000  0.5139480000000  0.5797800000000 1.0
C      1  0.5425520000000  0.4852650000000  0.4309280000000 1.0
C      1  0.4646200000000  0.5226590000000  0.4324090000000 1.0
C      1  0.4898010000000  0.5506380000000  0.5646440000000 1.0
C      1  0.5570230000000  0.5247530000000  0.4547490000000 1.0
C      1  0.4329410000000  0.5051700000000  0.5580860000000 1.0
C      1  0.4996440000000  0.5300640000000  0.5830590000000 1.0
C      1  0.5076740000000  0.4953000000000  0.4610370000000 1.0
C      1  0.5578180000000  0.4517670000000  0.4691300000000 1.0
C      1  0.4198330000000  0.4995170000000  0.4893430000000 1.0
C      1  0.5684150000000  0.5130130000000  0.5498380000000 1.0
C      1  0.4359440000000  0.5059020000000  0.4652400000000 1.0
C      1  0.5356040000000  0.5408940000000  0.4430820000000 1.0
C      1  0.4755950000000  0.5681850000000  0.4741180000000 1.0
C      1  0.4623200000000  0.5089520000000  0.4847610000000 1.0
C      1  0.4398170000000  0.4777550000000  0.5616190000000 1.0
C      1  0.5689100000000  0.5337990000000  0.4795260000000 1.0
C      1  0.4903620000000  0.5160440000000  0.4756350000000 1.0
C      1  0.5053380000000  0.5054650000000  0.5180800000000 1.0
C      1  0.4850020000000  0.4687060000000  0.4918130000000 1.0
C      1  0.5451370000000  0.4591850000000  0.4234130000000 1.0
C      1  0.5424190000000  0.4471820000000  0.5378390000000 1.0
C      1  0.4629490000000  0.5439100000000  0.5541490000000 1.0
C      1  0.4932710000000  0.4331880000000  0.5371040000000 1.0
C      1  0.5836790000000  0.5151350000000  0.4930560000000 1.0
C      1  0.5519280000000  0.4380960000000  0.4929950000000 1.0
C      1  0.5054000000000  0.4289030000000  0.4803430000000 1.0
C      1  0.4727770000000  0.4695720000000  0.4370310000000 1.0
C      1  0.5659850000000  0.4863870000000  0.5418820000000 1.0
C      1  0.5106180000000  0.5183000000000  0.5438300000000 1.0
C      1  0.5272490000000  0.4878440000000  0.4823190000000 1.0
C      1  0.5161000000000  0.5271650000000  0.4271640000000 1.0
C      1  0.4937240000000  0.4692370000000  0.4583420000000 1.0
C      1  0.5112820000000  0.4451670000000  0.4578620000000 1.0
C      1  0.5183330000000  0.5001250000000  0.4325160000000 1.0
C      1  0.4503850000000  0.4576600000000  0.4505680000000 1.0
C      1  0.5270330000000  0.5673390000000  0.5271970000000 1.0
C      1  0.5492960000000  0.5268760000000  0.5652520000000 1.0
C      1  0.4611010000000  0.4948350000000  0.4298950000000 1.0
C      1  0.4530970000000  0.5504960000000  0.4747080000000 1.0
C      1  0.5619920000000  0.4490800000000  0.5168540000000 1.0
C      1  0.5258300000000  0.4269450000000  0.4996120000000 1.0
C      1  0.4886600000000  0.5382630000000  0.4254020000000 1.0
C      1  0.4983090000000  0.4749470000000  0.5645570000000 1.0
C      1  0.5610320000000  0.4968910000000  0.4494850000000 1.0
C      1  0.4655990000000  0.5347400000000  0.5249450000000 1.0
C      1  0.5245580000000  0.4833990000000  0.5696540000000 1.0
C      1  0.5381000000000  0.4489470000000  0.4481890000000 1.0
C      1  0.5612420000000  0.5389750000000  0.5426940000000 1.0
C      1  0.4535670000000  0.4402020000000  0.4727340000000 1.0
C      1  0.5201130000000  0.4321120000000  0.5278560000000 1.0
C      1  0.4273060000000  0.4491030000000  0.5133500000000 1.0
C      1  0.4857980000000  0.5658030000000  0.4251330000000 1.0
C      1  0.4846670000000  0.4992210000000  0.5551050000000 1.0
C      1  0.4235320000000  0.5201000000000  0.5089690000000 1.0
C      1  0.4749350000000  0.5037290000000  0.5258560000000 1.0
C      1  0.5812260000000  0.4880130000000  0.4932550000000 1.0
C      1  0.4477870000000  0.4400470000000  0.5300940000000 1.0
C      1  0.5115180000000  0.4807880000000  0.5037190000000 1.0
END
