TITL C-142788-1117-5 -149.549486547711 125000 -893.49631128582 0 0 129 (C1) n - 1
REM
REM in /rds/project/t2_vol4/rds-t2-cs072/BORA/CARBON/from-Arr/AIRSS/Generating-Clusters/GAP-ML-2020/Only-C1/SD-CG/HFTN-CG
REM
REM
REM
REM
REM
REM ./C.cell (11c1c37f851c82e70ff6c80c92926a4b)
REM AIRSS Version 0.9.1 bugfix July 2018 build 013d7b7c2542+ Fri, 06 Jul 2018 19:26:36 +0100
REM compiler GCC version 9.3.0
REM options -cpp -mtune=generic -march=x86-64 -g -O0
REM seed -2035152339 -1328487094 -1437676380 665729494 -2025343145 -560091993 -570869431 885388580 173650191 -1008089770 885469320 1515530285 -1534539735 -452364919 -410242912 1110580981 -1034238026 -464732675 487615512 -189002982 746494032 -1121117244 -376327743 -260133689 -1906755528 -243364287 1574777683 526593359 549619343 1340811417 1596384019 -362458514 -2061954765
REM
CELL 1.54180   50.00000   50.00000   50.00000   90.00000   90.00000   90.00000
LATT -1
SFAC C  
C      1  0.5276840000000  0.4321260000000  0.5506300000000 1.0
C      1  0.4055010000000  0.4942410000000  0.4657200000000 1.0
C      1  0.4382070000000  0.4435140000000  0.4699280000000 1.0
C      1  0.5812350000000  0.4870940000000  0.5470650000000 1.0
C      1  0.5821660000000  0.5187390000000  0.4604120000000 1.0
C      1  0.5280600000000  0.4296570000000  0.4393040000000 1.0
C      1  0.4367120000000  0.4447530000000  0.5597180000000 1.0
C      1  0.5553580000000  0.4588540000000  0.5005440000000 1.0
C      1  0.5803510000000  0.5463010000000  0.4956750000000 1.0
C      1  0.4958670000000  0.4758760000000  0.4392420000000 1.0
C      1  0.3930120000000  0.4858870000000  0.4897840000000 1.0
C      1  0.5176230000000  0.5822100000000  0.4602800000000 1.0
C      1  0.4540190000000  0.4944560000000  0.4679570000000 1.0
C      1  0.5390940000000  0.4394740000000  0.4857350000000 1.0
C      1  0.5142260000000  0.4682380000000  0.4156270000000 1.0
C      1  0.5044760000000  0.4542150000000  0.5905530000000 1.0
C      1  0.5222250000000  0.5403810000000  0.4279640000000 1.0
C      1  0.5012120000000  0.4234650000000  0.4457980000000 1.0
C      1  0.4189550000000  0.4809050000000  0.4429550000000 1.0
C      1  0.4514140000000  0.5044460000000  0.5866130000000 1.0
C      1  0.5451710000000  0.5227860000000  0.4235500000000 1.0
C      1  0.4909980000000  0.5829070000000  0.4698720000000 1.0
C      1  0.4273840000000  0.4714410000000  0.5520070000000 1.0
C      1  0.4268580000000  0.5006970000000  0.5107920000000 1.0
C      1  0.4064660000000  0.4632520000000  0.5041720000000 1.0
C      1  0.4722270000000  0.4943910000000  0.3960940000000 1.0
C      1  0.4446540000000  0.4925200000000  0.5608040000000 1.0
C      1  0.5239950000000  0.5282710000000  0.4943430000000 1.0
C      1  0.5865030000000  0.4982250000000  0.4833940000000 1.0
C      1  0.5783980000000  0.5596390000000  0.5210040000000 1.0
C      1  0.5008240000000  0.5237320000000  0.4780130000000 1.0
C      1  0.5128610000000  0.5346740000000  0.5435880000000 1.0
C      1  0.4735790000000  0.4148510000000  0.4846140000000 1.0
C      1  0.5112140000000  0.4471070000000  0.4842970000000 1.0
C      1  0.4658540000000  0.4920610000000  0.5404740000000 1.0
C      1  0.4682330000000  0.5577700000000  0.5012230000000 1.0
C      1  0.5041320000000  0.4526310000000  0.5112420000000 1.0
C      1  0.4693330000000  0.4913620000000  0.4924900000000 1.0
C      1  0.4261580000000  0.5215250000000  0.4253400000000 1.0
C      1  0.5009620000000  0.4984380000000  0.6006150000000 1.0
C      1  0.4835970000000  0.4188600000000  0.5336640000000 1.0
C      1  0.4288260000000  0.5374430000000  0.4475460000000 1.0
C      1  0.4963290000000  0.5090680000000  0.4035670000000 1.0
C      1  0.5485600000000  0.5111910000000  0.5690760000000 1.0
C      1  0.4739170000000  0.5628790000000  0.5614380000000 1.0
C      1  0.4667650000000  0.4617780000000  0.4338230000000 1.0
C      1  0.5081230000000  0.5217440000000  0.4489930000000 1.0
C      1  0.4629900000000  0.5380550000000  0.5233890000000 1.0
C      1  0.5618520000000  0.4674720000000  0.5642940000000 1.0
C      1  0.5564880000000  0.5775930000000  0.5265400000000 1.0
C      1  0.5452470000000  0.5012430000000  0.4052400000000 1.0
C      1  0.4297340000000  0.4255460000000  0.5414720000000 1.0
C      1  0.5115200000000  0.5877620000000  0.5158460000000 1.0
C      1  0.5389820000000  0.4847900000000  0.5141300000000 1.0
C      1  0.5131420000000  0.5865810000000  0.5450600000000 1.0
C      1  0.5575170000000  0.5241680000000  0.5264450000000 1.0
C      1  0.5481030000000  0.4335290000000  0.4600830000000 1.0
C      1  0.5327090000000  0.5645430000000  0.4421210000000 1.0
C      1  0.5609530000000  0.5067060000000  0.4440230000000 1.0
C      1  0.5961670000000  0.4716830000000  0.5262150000000 1.0
C      1  0.4895200000000  0.5797330000000  0.4986700000000 1.0
C      1  0.5534700000000  0.4984310000000  0.5395350000000 1.0
C      1  0.5968660000000  0.5118540000000  0.5364100000000 1.0
C      1  0.5610070000000  0.4602740000000  0.4270210000000 1.0
C      1  0.5352990000000  0.4490780000000  0.4197010000000 1.0
C      1  0.5686570000000  0.5178230000000  0.4981770000000 1.0
C      1  0.4747530000000  0.5398270000000  0.4781850000000 1.0
C      1  0.5264870000000  0.5325900000000  0.5709650000000 1.0
C      1  0.5979040000000  0.4442400000000  0.5247570000000 1.0
C      1  0.4213370000000  0.5543520000000  0.5117940000000 1.0
C      1  0.5783890000000  0.5476690000000  0.4673920000000 1.0
C      1  0.5407640000000  0.5832270000000  0.4777370000000 1.0
C      1  0.4288160000000  0.4943280000000  0.4204320000000 1.0
C      1  0.5115190000000  0.4757800000000  0.4675830000000 1.0
C      1  0.4658190000000  0.5138830000000  0.4469360000000 1.0
C      1  0.5814940000000  0.5367390000000  0.5411540000000 1.0
C      1  0.5196580000000  0.4909870000000  0.4003060000000 1.0
C      1  0.5296560000000  0.5341070000000  0.5211090000000 1.0
C      1  0.3974250000000  0.5101910000000  0.5077380000000 1.0
C      1  0.5090000000000  0.4810390000000  0.5168080000000 1.0
C      1  0.4375530000000  0.5484130000000  0.5357500000000 1.0
C      1  0.4037040000000  0.5358430000000  0.4974970000000 1.0
C      1  0.4818220000000  0.4260170000000  0.5614420000000 1.0
C      1  0.4242270000000  0.4421190000000  0.4946660000000 1.0
C      1  0.4934250000000  0.4887590000000  0.5410950000000 1.0
C      1  0.4457150000000  0.5513660000000  0.5638990000000 1.0
C      1  0.5411250000000  0.5765380000000  0.5510080000000 1.0
C      1  0.4431480000000  0.5832490000000  0.4720360000000 1.0
C      1  0.5696200000000  0.4444790000000  0.5234710000000 1.0
C      1  0.5384120000000  0.5869810000000  0.5056840000000 1.0
C      1  0.4439860000000  0.4676590000000  0.4536610000000 1.0
C      1  0.5467430000000  0.5550690000000  0.5699190000000 1.0
C      1  0.5424460000000  0.4891220000000  0.4663110000000 1.0
C      1  0.4587030000000  0.5436860000000  0.4535620000000 1.0
C      1  0.4182370000000  0.4765270000000  0.5261120000000 1.0
C      1  0.4580510000000  0.4248550000000  0.4627900000000 1.0
C      1  0.4141980000000  0.5265930000000  0.4703920000000 1.0
C      1  0.4990370000000  0.4215350000000  0.4744070000000 1.0
C      1  0.4930650000000  0.5145020000000  0.5550720000000 1.0
C      1  0.5422230000000  0.5057390000000  0.4906110000000 1.0
C      1  0.5081330000000  0.4332500000000  0.5715390000000 1.0
C      1  0.5564000000000  0.5654090000000  0.4594510000000 1.0
C      1  0.5025450000000  0.5205700000000  0.5837900000000 1.0
C      1  0.4299080000000  0.5039990000000  0.4807120000000 1.0
C      1  0.4574230000000  0.5058700000000  0.5162840000000 1.0
C      1  0.4450980000000  0.5306400000000  0.5820640000000 1.0
C      1  0.4652060000000  0.5743300000000  0.4571450000000 1.0
C      1  0.5206280000000  0.4777080000000  0.5949720000000 1.0
C      1  0.4758560000000  0.4602810000000  0.5925100000000 1.0
C      1  0.5680870000000  0.4526780000000  0.4537810000000 1.0
C      1  0.4405480000000  0.5689490000000  0.4949740000000 1.0
C      1  0.4974610000000  0.4931280000000  0.4885040000000 1.0
C      1  0.6002650000000  0.4964180000000  0.5108120000000 1.0
C      1  0.5538930000000  0.4445290000000  0.5487850000000 1.0
C      1  0.4374150000000  0.4255760000000  0.5149790000000 1.0
C      1  0.4649220000000  0.4163540000000  0.5115010000000 1.0
C      1  0.4838850000000  0.5406340000000  0.5440630000000 1.0
C      1  0.5684710000000  0.4724810000000  0.4763060000000 1.0
C      1  0.4741410000000  0.4331710000000  0.4399750000000 1.0
C      1  0.4901580000000  0.5842980000000  0.5611080000000 1.0
C      1  0.5674470000000  0.5361050000000  0.5667070000000 1.0
C      1  0.4908920000000  0.5047860000000  0.4353180000000 1.0
C      1  0.5094520000000  0.4297170000000  0.5278290000000 1.0
C      1  0.4732020000000  0.4884400000000  0.5992770000000 1.0
C      1  0.5643610000000  0.4870390000000  0.4217670000000 1.0
C      1  0.4549330000000  0.4806320000000  0.4106080000000 1.0
C      1  0.4618120000000  0.4419710000000  0.5742770000000 1.0
C      1  0.5039170000000  0.5359470000000  0.4052690000000 1.0
C      1  0.5455390000000  0.4841380000000  0.5815040000000 1.0
END
