TITL C-141437-3297-4 -0.130926300549426 125000 -817.992015390595 0 0 117 (C1) n - 1
REM
REM in /rds/project/t2_vol4/rds-t2-cs072/BORA/CARBON/from-Arr/AIRSS/Generating-Clusters/GAP-ML-2020/Only-C1/SD-CG/HFTN-CG
REM
REM
REM
REM
REM
REM ./C.cell (11c1c37f851c82e70ff6c80c92926a4b)
REM AIRSS Version 0.9.1 bugfix July 2018 build 013d7b7c2542+ Fri, 06 Jul 2018 19:26:36 +0100
REM compiler GCC version 9.3.0
REM options -cpp -mtune=generic -march=x86-64 -g -O0
REM seed 1704133025 -582030639 -321551881 -197120339 -1600614699 -929389855 1507422064 525071989 1195662875 -1274499722 2017435728 -1000256917 -1471567222 -509367163 1522697490 1073715834 -692393966 -487759999 956002971 -1528023255 1488906825 1157478882 561881070 -1870623761 -477474065 -181062505 514340266 -1017561401 136904400 -1221336824 500730030 -91597829 818441929
REM
CELL 1.54180   50.00000   50.00000   50.00000   90.00000   90.00000   90.00000
LATT -1
SFAC C  
C      1  0.5491070000000  0.5370030000000  0.5503130000000 1.0
C      1  0.4658840000000  0.4297050000000  0.5608160000000 1.0
C      1  0.5248030000000  0.4986660000000  0.5122400000000 1.0
C      1  0.4521440000000  0.4679450000000  0.4430940000000 1.0
C      1  0.4183520000000  0.4993940000000  0.5475010000000 1.0
C      1  0.5181030000000  0.4703480000000  0.4566990000000 1.0
C      1  0.5869600000000  0.4545360000000  0.5188720000000 1.0
C      1  0.4384600000000  0.5005900000000  0.5674220000000 1.0
C      1  0.5486000000000  0.4446170000000  0.5547380000000 1.0
C      1  0.4367970000000  0.5561170000000  0.5063050000000 1.0
C      1  0.4760620000000  0.4514840000000  0.4382380000000 1.0
C      1  0.5521500000000  0.5581070000000  0.4608140000000 1.0
C      1  0.5371440000000  0.5612680000000  0.5598050000000 1.0
C      1  0.4646160000000  0.5159010000000  0.5163360000000 1.0
C      1  0.5381050000000  0.4804020000000  0.4090930000000 1.0
C      1  0.5733000000000  0.5442720000000  0.5042640000000 1.0
C      1  0.4481510000000  0.4433170000000  0.5147840000000 1.0
C      1  0.5015330000000  0.4153310000000  0.4654760000000 1.0
C      1  0.4799710000000  0.5547300000000  0.4304570000000 1.0
C      1  0.5699300000000  0.4593740000000  0.5412580000000 1.0
C      1  0.5066600000000  0.5431830000000  0.5179910000000 1.0
C      1  0.4506190000000  0.4939030000000  0.4315400000000 1.0
C      1  0.5364530000000  0.4234580000000  0.5398940000000 1.0
C      1  0.4111230000000  0.5227390000000  0.5314030000000 1.0
C      1  0.4725080000000  0.5641190000000  0.4561180000000 1.0
C      1  0.4765560000000  0.4808550000000  0.5426170000000 1.0
C      1  0.5052100000000  0.4066870000000  0.4934280000000 1.0
C      1  0.5259710000000  0.5944340000000  0.5205440000000 1.0
C      1  0.4642580000000  0.4192040000000  0.5225910000000 1.0
C      1  0.4305980000000  0.4523260000000  0.5382740000000 1.0
C      1  0.5100240000000  0.5166730000000  0.5325730000000 1.0
C      1  0.4485640000000  0.5270110000000  0.5708520000000 1.0
C      1  0.5045810000000  0.4586530000000  0.5763290000000 1.0
C      1  0.4618440000000  0.4925450000000  0.4998600000000 1.0
C      1  0.4968810000000  0.5735640000000  0.5610790000000 1.0
C      1  0.5215850000000  0.4687960000000  0.5079930000000 1.0
C      1  0.4820010000000  0.5091380000000  0.5395920000000 1.0
C      1  0.4969990000000  0.4693450000000  0.4781550000000 1.0
C      1  0.4290530000000  0.4860130000000  0.4857130000000 1.0
C      1  0.5927990000000  0.4779190000000  0.5041630000000 1.0
C      1  0.4784340000000  0.4269640000000  0.4537520000000 1.0
C      1  0.5052400000000  0.5187810000000  0.4416020000000 1.0
C      1  0.5684560000000  0.5367530000000  0.4517930000000 1.0
C      1  0.4594990000000  0.4240140000000  0.4728730000000 1.0
C      1  0.4500720000000  0.5205010000000  0.4472220000000 1.0
C      1  0.4434420000000  0.4415420000000  0.4851530000000 1.0
C      1  0.5494500000000  0.4178180000000  0.5143680000000 1.0
C      1  0.4265560000000  0.5468850000000  0.5320390000000 1.0
C      1  0.5015050000000  0.4631400000000  0.4320610000000 1.0
C      1  0.5320940000000  0.4636500000000  0.5695120000000 1.0
C      1  0.5293680000000  0.4217010000000  0.4664200000000 1.0
C      1  0.5083890000000  0.5383010000000  0.4901670000000 1.0
C      1  0.5302410000000  0.5159540000000  0.5602470000000 1.0
C      1  0.5082350000000  0.4229020000000  0.5410530000000 1.0
C      1  0.4452710000000  0.5504490000000  0.5537630000000 1.0
C      1  0.5270130000000  0.5023960000000  0.4577380000000 1.0
C      1  0.4294650000000  0.5332740000000  0.4654240000000 1.0
C      1  0.5619360000000  0.4862310000000  0.5433440000000 1.0
C      1  0.5829980000000  0.4678590000000  0.4477040000000 1.0
C      1  0.5222900000000  0.5823890000000  0.5463330000000 1.0
C      1  0.5616920000000  0.5297130000000  0.5254600000000 1.0
C      1  0.5557750000000  0.4579580000000  0.4169580000000 1.0
C      1  0.4686620000000  0.5080990000000  0.4127690000000 1.0
C      1  0.4957760000000  0.4560480000000  0.5042260000000 1.0
C      1  0.5772920000000  0.4909280000000  0.4660110000000 1.0
C      1  0.5203260000000  0.5864050000000  0.4735070000000 1.0
C      1  0.4709170000000  0.5653520000000  0.5486720000000 1.0
C      1  0.5938910000000  0.5287820000000  0.4892170000000 1.0
C      1  0.5472700000000  0.4594310000000  0.4933740000000 1.0
C      1  0.4794320000000  0.5174650000000  0.4611960000000 1.0
C      1  0.5257650000000  0.5659990000000  0.4523980000000 1.0
C      1  0.5010780000000  0.6042130000000  0.5113960000000 1.0
C      1  0.4931570000000  0.4232460000000  0.5144130000000 1.0
C      1  0.5122550000000  0.5264440000000  0.5811290000000 1.0
C      1  0.4585950000000  0.4074440000000  0.5460340000000 1.0
C      1  0.5594710000000  0.4980420000000  0.4191460000000 1.0
C      1  0.4766150000000  0.5892770000000  0.5140650000000 1.0
C      1  0.4061360000000  0.4781020000000  0.5066480000000 1.0
C      1  0.4857710000000  0.4798660000000  0.5833480000000 1.0
C      1  0.4914420000000  0.5070220000000  0.5877260000000 1.0
C      1  0.4810020000000  0.5425600000000  0.4777670000000 1.0
C      1  0.5570080000000  0.5087170000000  0.4481140000000 1.0
C      1  0.5981900000000  0.5001490000000  0.4866860000000 1.0
C      1  0.5782210000000  0.4765480000000  0.4202850000000 1.0
C      1  0.5424470000000  0.4895130000000  0.5631200000000 1.0
C      1  0.5136160000000  0.5548840000000  0.5767920000000 1.0
C      1  0.4805900000000  0.5599910000000  0.5221030000000 1.0
C      1  0.5103930000000  0.4801810000000  0.4110660000000 1.0
C      1  0.5644600000000  0.4837700000000  0.4943900000000 1.0
C      1  0.5397310000000  0.4495060000000  0.4643320000000 1.0
C      1  0.4711730000000  0.4676840000000  0.5168780000000 1.0
C      1  0.3827700000000  0.4926230000000  0.5051050000000 1.0
C      1  0.4373420000000  0.4639370000000  0.4677550000000 1.0
C      1  0.5940650000000  0.5403150000000  0.4641260000000 1.0
C      1  0.5390920000000  0.5843790000000  0.4957950000000 1.0
C      1  0.5610470000000  0.4483770000000  0.4443420000000 1.0
C      1  0.3997440000000  0.5148460000000  0.5052250000000 1.0
C      1  0.4759110000000  0.5211250000000  0.5697300000000 1.0
C      1  0.5336200000000  0.4093690000000  0.4927260000000 1.0
C      1  0.4856280000000  0.4960060000000  0.4805280000000 1.0
C      1  0.4975130000000  0.6011850000000  0.4826740000000 1.0
C      1  0.5587980000000  0.5649390000000  0.4883170000000 1.0
C      1  0.4145330000000  0.4741310000000  0.5340270000000 1.0
C      1  0.4623900000000  0.5341780000000  0.4234340000000 1.0
C      1  0.4324140000000  0.5597480000000  0.4785470000000 1.0
C      1  0.4964410000000  0.5044960000000  0.4162770000000 1.0
C      1  0.4520190000000  0.5786630000000  0.4683250000000 1.0
C      1  0.5081670000000  0.5489640000000  0.4363760000000 1.0
C      1  0.4579570000000  0.4769140000000  0.5689440000000 1.0
C      1  0.4693410000000  0.5930060000000  0.4856490000000 1.0
C      1  0.5543320000000  0.5009570000000  0.5183580000000 1.0
C      1  0.4169060000000  0.5133100000000  0.4809720000000 1.0
C      1  0.4641850000000  0.5431680000000  0.5039660000000 1.0
C      1  0.5653050000000  0.4400130000000  0.5067930000000 1.0
C      1  0.5168360000000  0.5106120000000  0.4857500000000 1.0
C      1  0.4469890000000  0.4508680000000  0.5622290000000 1.0
C      1  0.4940960000000  0.4353530000000  0.5629990000000 1.0
END
