TITL C-142188-2810-8 0.233208678837071 125000 -1010.1817275427 0 0 144 (C1) n - 1
REM
REM in /rds/project/t2_vol4/rds-t2-cs072/BORA/CARBON/from-Arr/AIRSS/Generating-Clusters/GAP-ML-2020/Only-C1/SD-CG/HFTN-CG
REM
REM
REM
REM
REM
REM ./C.cell (11c1c37f851c82e70ff6c80c92926a4b)
REM AIRSS Version 0.9.1 bugfix July 2018 build 013d7b7c2542+ Fri, 06 Jul 2018 19:26:36 +0100
REM compiler GCC version 9.3.0
REM options -cpp -mtune=generic -march=x86-64 -g -O0
REM seed -1765420244 23728868 940483982 1488949001 1996512940 -1374749047 1737857537 -1503949241 172474996 -1016339668 1700010468 1981802245 523355661 -1535526246 1792039684 -419138972 197688841 1810088969 597801124 574892450 325464012 140626988 -1750007935 -1189002676 -982072682 76549788 -177363276 831978533 839387891 898531179 -1379969473 -1732185050 -2106658752
REM
CELL 1.54180   50.00000   50.00000   50.00000   90.00000   90.00000   90.00000
LATT -1
SFAC C  
C      1  0.4577760000000  0.4740450000000  0.5120500000000 1.0
C      1  0.5223520000000  0.4784660000000  0.5797010000000 1.0
C      1  0.4800810000000  0.4090140000000  0.5340630000000 1.0
C      1  0.4686260000000  0.4941780000000  0.4548920000000 1.0
C      1  0.4840320000000  0.4632410000000  0.5160770000000 1.0
C      1  0.5085590000000  0.4028650000000  0.4729280000000 1.0
C      1  0.5807210000000  0.5263610000000  0.5417090000000 1.0
C      1  0.5544360000000  0.5474130000000  0.4890990000000 1.0
C      1  0.4693540000000  0.4042690000000  0.5082460000000 1.0
C      1  0.5092150000000  0.5314200000000  0.5054650000000 1.0
C      1  0.4858170000000  0.5434540000000  0.5216070000000 1.0
C      1  0.4789670000000  0.5137380000000  0.4340830000000 1.0
C      1  0.5817960000000  0.5337310000000  0.4530310000000 1.0
C      1  0.5564520000000  0.5190690000000  0.4458930000000 1.0
C      1  0.4882100000000  0.5647630000000  0.5693460000000 1.0
C      1  0.4351010000000  0.5245600000000  0.5368740000000 1.0
C      1  0.4164590000000  0.4786270000000  0.5128560000000 1.0
C      1  0.5042600000000  0.5201640000000  0.5568770000000 1.0
C      1  0.4733860000000  0.4470700000000  0.5933450000000 1.0
C      1  0.5990000000000  0.5067790000000  0.4909680000000 1.0
C      1  0.4990670000000  0.4883960000000  0.5173120000000 1.0
C      1  0.5092170000000  0.4414330000000  0.4200310000000 1.0
C      1  0.4767570000000  0.4789860000000  0.5584030000000 1.0
C      1  0.4436830000000  0.5407860000000  0.4445190000000 1.0
C      1  0.4826370000000  0.5641540000000  0.4296150000000 1.0
C      1  0.4913880000000  0.4871110000000  0.5851120000000 1.0
C      1  0.5399620000000  0.4630580000000  0.5042870000000 1.0
C      1  0.5968880000000  0.4825000000000  0.4757140000000 1.0
C      1  0.5249380000000  0.4486290000000  0.5778480000000 1.0
C      1  0.5073430000000  0.5814270000000  0.4385100000000 1.0
C      1  0.4534970000000  0.4436460000000  0.5724790000000 1.0
C      1  0.4368640000000  0.4882920000000  0.4453390000000 1.0
C      1  0.4390130000000  0.4254090000000  0.4793810000000 1.0
C      1  0.5474110000000  0.5027010000000  0.4217200000000 1.0
C      1  0.5519190000000  0.5775200000000  0.4570630000000 1.0
C      1  0.4623590000000  0.5687160000000  0.4848440000000 1.0
C      1  0.4903830000000  0.4205940000000  0.4291510000000 1.0
C      1  0.5042840000000  0.4345160000000  0.5611120000000 1.0
C      1  0.5661690000000  0.5519590000000  0.5455170000000 1.0
C      1  0.4150960000000  0.4718150000000  0.4848360000000 1.0
C      1  0.4337520000000  0.5667940000000  0.4442720000000 1.0
C      1  0.5808370000000  0.5073680000000  0.5159490000000 1.0
C      1  0.5818210000000  0.4703730000000  0.4551600000000 1.0
C      1  0.5656140000000  0.4524110000000  0.5172470000000 1.0
C      1  0.4123340000000  0.5178030000000  0.4868200000000 1.0
C      1  0.5530910000000  0.4335140000000  0.5380060000000 1.0
C      1  0.4597390000000  0.5794660000000  0.4409810000000 1.0
C      1  0.4984870000000  0.4355190000000  0.5885030000000 1.0
C      1  0.4166950000000  0.4950800000000  0.4683410000000 1.0
C      1  0.4819170000000  0.5895930000000  0.5279070000000 1.0
C      1  0.4587630000000  0.4584230000000  0.4058370000000 1.0
C      1  0.5531030000000  0.4635780000000  0.4488180000000 1.0
C      1  0.5300230000000  0.4259250000000  0.4336180000000 1.0
C      1  0.5512640000000  0.4416310000000  0.5653710000000 1.0
C      1  0.4545640000000  0.5027500000000  0.5048840000000 1.0
C      1  0.5104480000000  0.4080220000000  0.4455080000000 1.0
C      1  0.5459490000000  0.5363120000000  0.5898240000000 1.0
C      1  0.4972910000000  0.5072050000000  0.4915740000000 1.0
C      1  0.5302480000000  0.5218930000000  0.4104340000000 1.0
C      1  0.4443750000000  0.4191600000000  0.5064800000000 1.0
C      1  0.5556710000000  0.4228820000000  0.4762490000000 1.0
C      1  0.4645600000000  0.5396220000000  0.4682300000000 1.0
C      1  0.5686840000000  0.5559920000000  0.4654030000000 1.0
C      1  0.4897800000000  0.4721020000000  0.4516290000000 1.0
C      1  0.5145670000000  0.5352990000000  0.4582440000000 1.0
C      1  0.5565050000000  0.5743260000000  0.5291380000000 1.0
C      1  0.5324440000000  0.5162440000000  0.5187070000000 1.0
C      1  0.5078870000000  0.4716510000000  0.4246810000000 1.0
C      1  0.4991290000000  0.5480330000000  0.5485980000000 1.0
C      1  0.4188370000000  0.5609470000000  0.5101330000000 1.0
C      1  0.5217840000000  0.5645840000000  0.5544490000000 1.0
C      1  0.4716280000000  0.5883670000000  0.4648920000000 1.0
C      1  0.5783120000000  0.5091140000000  0.5645010000000 1.0
C      1  0.4090920000000  0.5458000000000  0.4862220000000 1.0
C      1  0.5337050000000  0.5395600000000  0.4345460000000 1.0
C      1  0.4465600000000  0.5641050000000  0.5554600000000 1.0
C      1  0.4969050000000  0.4489250000000  0.4946610000000 1.0
C      1  0.4713850000000  0.4733940000000  0.6041640000000 1.0
C      1  0.4727010000000  0.5463480000000  0.4059220000000 1.0
C      1  0.4503290000000  0.5426360000000  0.5752710000000 1.0
C      1  0.5439110000000  0.5478530000000  0.5635890000000 1.0
C      1  0.4875060000000  0.5393820000000  0.4488010000000 1.0
C      1  0.5279000000000  0.4848450000000  0.5227550000000 1.0
C      1  0.4967860000000  0.5184130000000  0.5866090000000 1.0
C      1  0.4856380000000  0.5020700000000  0.5409770000000 1.0
C      1  0.5733480000000  0.4816890000000  0.5554000000000 1.0
C      1  0.5553070000000  0.5185250000000  0.4998300000000 1.0
C      1  0.4599130000000  0.4130290000000  0.4640490000000 1.0
C      1  0.4475010000000  0.4867470000000  0.6031640000000 1.0
C      1  0.5285770000000  0.5824750000000  0.5341280000000 1.0
C      1  0.4765650000000  0.5687920000000  0.5101010000000 1.0
C      1  0.5063730000000  0.5157000000000  0.3954100000000 1.0
C      1  0.5226640000000  0.4374360000000  0.5042270000000 1.0
C      1  0.4704750000000  0.5809100000000  0.5539350000000 1.0
C      1  0.4637680000000  0.4844330000000  0.4048510000000 1.0
C      1  0.5171160000000  0.5088640000000  0.4696340000000 1.0
C      1  0.4770220000000  0.5431340000000  0.5855160000000 1.0
C      1  0.5301690000000  0.4196700000000  0.5260890000000 1.0
C      1  0.5327070000000  0.5167720000000  0.5492230000000 1.0
C      1  0.5229520000000  0.5213830000000  0.5995780000000 1.0
C      1  0.4355550000000  0.5191470000000  0.5666030000000 1.0
C      1  0.5387390000000  0.4975980000000  0.5964310000000 1.0
C      1  0.5311910000000  0.4143050000000  0.4885600000000 1.0
C      1  0.4638880000000  0.4213090000000  0.4372990000000 1.0
C      1  0.5080780000000  0.5919910000000  0.5154520000000 1.0
C      1  0.4915510000000  0.4947460000000  0.4112730000000 1.0
C      1  0.5337290000000  0.5708670000000  0.4369890000000 1.0
C      1  0.4400840000000  0.4343060000000  0.5296050000000 1.0
C      1  0.5061260000000  0.4643200000000  0.4727130000000 1.0
C      1  0.4338530000000  0.5759180000000  0.4904150000000 1.0
C      1  0.4836650000000  0.4524810000000  0.5451270000000 1.0
C      1  0.4657370000000  0.5201850000000  0.5269720000000 1.0
C      1  0.4484200000000  0.4435370000000  0.4265700000000 1.0
C      1  0.4693700000000  0.5113560000000  0.4803590000000 1.0
C      1  0.5909240000000  0.4554250000000  0.4770140000000 1.0
C      1  0.4238230000000  0.5072020000000  0.5118440000000 1.0
C      1  0.5452820000000  0.5037720000000  0.4741320000000 1.0
C      1  0.5577060000000  0.5746470000000  0.5015610000000 1.0
C      1  0.5380870000000  0.4770510000000  0.4270250000000 1.0
C      1  0.4285800000000  0.5533070000000  0.5353050000000 1.0
C      1  0.5746650000000  0.4380750000000  0.4920250000000 1.0
C      1  0.4545500000000  0.5271670000000  0.4214450000000 1.0
C      1  0.5508670000000  0.4341110000000  0.4499010000000 1.0
C      1  0.5230740000000  0.5470710000000  0.4838410000000 1.0
C      1  0.5789020000000  0.4787020000000  0.5276710000000 1.0
C      1  0.4252750000000  0.4488670000000  0.4697700000000 1.0
C      1  0.4613390000000  0.4295200000000  0.5477450000000 1.0
C      1  0.4991640000000  0.5945130000000  0.4627770000000 1.0
C      1  0.5369040000000  0.4875140000000  0.5523770000000 1.0
C      1  0.4885350000000  0.5352500000000  0.3871690000000 1.0
C      1  0.4456590000000  0.4706530000000  0.5602690000000 1.0
C      1  0.5621900000000  0.5127270000000  0.5876330000000 1.0
C      1  0.4366470000000  0.4931620000000  0.5786010000000 1.0
C      1  0.4191110000000  0.5670020000000  0.4679300000000 1.0
C      1  0.4359760000000  0.4636490000000  0.5312020000000 1.0
C      1  0.4807350000000  0.4023840000000  0.4817500000000 1.0
C      1  0.6004900000000  0.5229270000000  0.4694320000000 1.0
C      1  0.5071930000000  0.4125140000000  0.5419690000000 1.0
C      1  0.5163160000000  0.5970360000000  0.4868690000000 1.0
C      1  0.5704880000000  0.4597980000000  0.5722410000000 1.0
C      1  0.5370620000000  0.4739690000000  0.4755430000000 1.0
C      1  0.4329090000000  0.4588640000000  0.4447180000000 1.0
C      1  0.4431980000000  0.5007220000000  0.4174930000000 1.0
C      1  0.5439100000000  0.5905830000000  0.4819780000000 1.0
END
