TITL C-140215-7015-5 -0.0737833440316038 125000 -405.198738159898 0 0 60 (C1) n - 1
REM
REM in /rds/project/t2_vol4/rds-t2-cs072/BORA/CARBON/from-Arr/AIRSS/Generating-Clusters/GAP-ML-2020/Only-C1/SD-CG/HFTN-CG
REM
REM
REM
REM
REM
REM ./C.cell (11c1c37f851c82e70ff6c80c92926a4b)
REM AIRSS Version 0.9.1 bugfix July 2018 build 013d7b7c2542+ Fri, 06 Jul 2018 19:26:36 +0100
REM compiler GCC version 9.3.0
REM options -cpp -mtune=generic -march=x86-64 -g -O0
REM seed -41996478 -1052092198 -970405335 992940289 402541431 1318653907 1130563702 -2088333972 -217910191 785417340 1491380980 508848890 381748894 951529677 167271644 -873188745 2070538975 -958257488 2061092406 1559717895 171651638 -384774006 -2142441437 606500742 -1077491336 1627126618 903952864 103910401 -326709932 62278604 -1837997603 -1891975752 -582654886
REM
CELL 1.54180   50.00000   50.00000   50.00000   90.00000   90.00000   90.00000
LATT -1
SFAC C  
C      1  0.4411790000000  0.4691530000000  0.4917480000000 1.0
C      1  0.4888310000000  0.4508790000000  0.5207070000000 1.0
C      1  0.5376510000000  0.5267620000000  0.4479320000000 1.0
C      1  0.5394480000000  0.5287690000000  0.5305690000000 1.0
C      1  0.5593600000000  0.4928690000000  0.4754250000000 1.0
C      1  0.4934520000000  0.4805550000000  0.5163150000000 1.0
C      1  0.4437630000000  0.5281360000000  0.5387860000000 1.0
C      1  0.5084190000000  0.4932920000000  0.5676440000000 1.0
C      1  0.5437230000000  0.5512810000000  0.5141620000000 1.0
C      1  0.4458300000000  0.5532980000000  0.4998970000000 1.0
C      1  0.4806650000000  0.4931000000000  0.5629100000000 1.0
C      1  0.5066910000000  0.4557850000000  0.4587880000000 1.0
C      1  0.5001630000000  0.4341380000000  0.5001230000000 1.0
C      1  0.5083080000000  0.4853190000000  0.4644790000000 1.0
C      1  0.4786020000000  0.5593380000000  0.5310930000000 1.0
C      1  0.5215390000000  0.4527920000000  0.5489700000000 1.0
C      1  0.5372670000000  0.4974520000000  0.4532210000000 1.0
C      1  0.4604160000000  0.4761800000000  0.4561180000000 1.0
C      1  0.4300330000000  0.5127340000000  0.5186490000000 1.0
C      1  0.4911530000000  0.5674700000000  0.5065530000000 1.0
C      1  0.4507810000000  0.5536540000000  0.5276110000000 1.0
C      1  0.4704120000000  0.4671780000000  0.5565370000000 1.0
C      1  0.5620360000000  0.5398390000000  0.4937570000000 1.0
C      1  0.5118320000000  0.5225990000000  0.5303160000000 1.0
C      1  0.4811490000000  0.4954030000000  0.4556660000000 1.0
C      1  0.5072450000000  0.5196580000000  0.4994290000000 1.0
C      1  0.4686150000000  0.5199450000000  0.4676580000000 1.0
C      1  0.5545940000000  0.5020990000000  0.5235690000000 1.0
C      1  0.5282300000000  0.4349280000000  0.5010520000000 1.0
C      1  0.5190420000000  0.5431100000000  0.4801650000000 1.0
C      1  0.5319310000000  0.4781100000000  0.5604420000000 1.0
C      1  0.5190950000000  0.5637600000000  0.5011170000000 1.0
C      1  0.4620680000000  0.4544100000000  0.4755930000000 1.0
C      1  0.5440650000000  0.4436170000000  0.4784510000000 1.0
C      1  0.4897990000000  0.5364370000000  0.5428710000000 1.0
C      1  0.4311600000000  0.5283020000000  0.4948000000000 1.0
C      1  0.5345410000000  0.4514430000000  0.5236040000000 1.0
C      1  0.4924130000000  0.4490760000000  0.5484370000000 1.0
C      1  0.4705580000000  0.4983640000000  0.5171270000000 1.0
C      1  0.5066860000000  0.4953310000000  0.5386600000000 1.0
C      1  0.5116740000000  0.5420650000000  0.4490900000000 1.0
C      1  0.4367840000000  0.4870330000000  0.4698370000000 1.0
C      1  0.4690540000000  0.5155020000000  0.5464820000000 1.0
C      1  0.4875180000000  0.4426180000000  0.4757930000000 1.0
C      1  0.4698530000000  0.5625070000000  0.4857550000000 1.0
C      1  0.5476180000000  0.5413190000000  0.4704370000000 1.0
C      1  0.5462800000000  0.4774450000000  0.4342150000000 1.0
C      1  0.5557750000000  0.4678600000000  0.4870310000000 1.0
C      1  0.4781690000000  0.5200470000000  0.4980500000000 1.0
C      1  0.4426570000000  0.4838270000000  0.5184940000000 1.0
C      1  0.5455380000000  0.4527550000000  0.4284690000000 1.0
C      1  0.4733340000000  0.5489180000000  0.4597590000000 1.0
C      1  0.4900060000000  0.5547300000000  0.4380290000000 1.0
C      1  0.5557430000000  0.4882290000000  0.5485360000000 1.0
C      1  0.5400520000000  0.4777390000000  0.5093710000000 1.0
C      1  0.4466660000000  0.4696020000000  0.5432570000000 1.0
C      1  0.4401200000000  0.5144100000000  0.4720980000000 1.0
C      1  0.5125480000000  0.4906260000000  0.4951750000000 1.0
C      1  0.5321800000000  0.4446400000000  0.4525490000000 1.0
C      1  0.5656830000000  0.5115640000000  0.4966250000000 1.0
END
