TITL C-142164-2765-3 49.2821402883051 125000 -370.738406876033 0 0 55 (C1) n - 1
REM
REM in /rds/project/t2_vol4/rds-t2-cs072/BORA/CARBON/from-Arr/AIRSS/Generating-Clusters/GAP-ML-2020/Only-C1/SD-CG/HFTN-CG
REM
REM
REM
REM
REM
REM ./C.cell (11c1c37f851c82e70ff6c80c92926a4b)
REM AIRSS Version 0.9.1 bugfix July 2018 build 013d7b7c2542+ Fri, 06 Jul 2018 19:26:36 +0100
REM compiler GCC version 9.3.0
REM options -cpp -mtune=generic -march=x86-64 -g -O0
REM seed -1061862173 -1650343089 -1180960121 -1949398496 2065606325 138924760 -1471765856 -814722627 1161627792 947341431 1052166304 1996100358 639837207 435582784 -85245020 -914703955 -297579233 994531587 1182816127 -2057986086 -1830556091 837008391 1413698257 1689068770 1249899693 -1746190913 1067708352 -1181375194 1191156603 -797309152 -69496986 -2107193748 -487510537
REM
CELL 1.54180   50.00000   50.00000   50.00000   90.00000   90.00000   90.00000
LATT -1
SFAC C  
C      1  0.4561510000000  0.4532890000000  0.5054330000000 1.0
C      1  0.5026180000000  0.4699310000000  0.5162400000000 1.0
C      1  0.4921200000000  0.4617870000000  0.4647430000000 1.0
C      1  0.5655780000000  0.5233480000000  0.4667580000000 1.0
C      1  0.4868610000000  0.4919000000000  0.4248630000000 1.0
C      1  0.4617900000000  0.4711020000000  0.4639100000000 1.0
C      1  0.4804930000000  0.5181030000000  0.4308020000000 1.0
C      1  0.4762530000000  0.4923290000000  0.5632830000000 1.0
C      1  0.4722120000000  0.4740280000000  0.5175750000000 1.0
C      1  0.5275930000000  0.4956670000000  0.4818440000000 1.0
C      1  0.5454740000000  0.5392770000000  0.4573220000000 1.0
C      1  0.5519140000000  0.4669950000000  0.5125960000000 1.0
C      1  0.4589900000000  0.5005840000000  0.4721890000000 1.0
C      1  0.4833740000000  0.5636390000000  0.4894950000000 1.0
C      1  0.4290650000000  0.5071660000000  0.5115140000000 1.0
C      1  0.5441600000000  0.4698300000000  0.5410140000000 1.0
C      1  0.5336190000000  0.5618030000000  0.5241550000000 1.0
C      1  0.4724020000000  0.5320370000000  0.5274580000000 1.0
C      1  0.5745180000000  0.5039930000000  0.4806840000000 1.0
C      1  0.5157900000000  0.4976970000000  0.5718470000000 1.0
C      1  0.5032240000000  0.4782760000000  0.4869600000000 1.0
C      1  0.5552100000000  0.4867390000000  0.4922500000000 1.0
C      1  0.5428220000000  0.4427060000000  0.5025570000000 1.0
C      1  0.5198940000000  0.4315110000000  0.4955060000000 1.0
C      1  0.5236660000000  0.4495820000000  0.5462440000000 1.0
C      1  0.5324310000000  0.5540550000000  0.4776960000000 1.0
C      1  0.4932180000000  0.5153120000000  0.5120730000000 1.0
C      1  0.4953200000000  0.5583910000000  0.4486810000000 1.0
C      1  0.4924190000000  0.5165500000000  0.5693430000000 1.0
C      1  0.5080830000000  0.5678400000000  0.4723690000000 1.0
C      1  0.4795720000000  0.4960690000000  0.4945390000000 1.0
C      1  0.4790260000000  0.5596980000000  0.5169470000000 1.0
C      1  0.4727090000000  0.5502220000000  0.4650230000000 1.0
C      1  0.4989940000000  0.4345420000000  0.4747440000000 1.0
C      1  0.5346800000000  0.5430470000000  0.5046510000000 1.0
C      1  0.4778250000000  0.4162030000000  0.4788500000000 1.0
C      1  0.4346270000000  0.4936200000000  0.4891020000000 1.0
C      1  0.4610880000000  0.4895460000000  0.5403230000000 1.0
C      1  0.5218400000000  0.5751450000000  0.5429450000000 1.0
C      1  0.4857640000000  0.5388730000000  0.5540590000000 1.0
C      1  0.4649660000000  0.5238600000000  0.4548970000000 1.0
C      1  0.4981740000000  0.4740430000000  0.5679530000000 1.0
C      1  0.5323350000000  0.4940590000000  0.5493470000000 1.0
C      1  0.5265850000000  0.5245060000000  0.4408050000000 1.0
C      1  0.5122120000000  0.4429520000000  0.5212050000000 1.0
C      1  0.5062570000000  0.4488730000000  0.5674490000000 1.0
C      1  0.5211420000000  0.5167170000000  0.5046930000000 1.0
C      1  0.5033050000000  0.5374410000000  0.4310960000000 1.0
C      1  0.4653640000000  0.4290590000000  0.4978320000000 1.0
C      1  0.4962260000000  0.5633790000000  0.5410540000000 1.0
C      1  0.5139180000000  0.4954530000000  0.5262550000000 1.0
C      1  0.5033830000000  0.4798730000000  0.4425670000000 1.0
C      1  0.5232300000000  0.4985870000000  0.4519490000000 1.0
C      1  0.4412930000000  0.4655590000000  0.4844370000000 1.0
C      1  0.4482220000000  0.5132080000000  0.5298730000000 1.0
END
