TITL C-142166-2757-6 -88.7396766484377 125000 -112.193296898125 0 0 18 (C1) n - 1
REM
REM in /rds/project/t2_vol4/rds-t2-cs072/BORA/CARBON/from-Arr/AIRSS/Generating-Clusters/GAP-ML-2020/Only-C1/SD-CG/HFTN-CG
REM
REM
REM
REM
REM
REM ./C.cell (11c1c37f851c82e70ff6c80c92926a4b)
REM AIRSS Version 0.9.1 bugfix July 2018 build 013d7b7c2542+ Fri, 06 Jul 2018 19:26:36 +0100
REM compiler GCC version 9.3.0
REM options -cpp -mtune=generic -march=x86-64 -g -O0
REM seed 1057007754 -2141096828 -1094367051 1040164001 -1329039034 1372606296 -757038895 205025685 621660183 -1975187501 1252383422 1567674048 774739614 -1392566617 1364571905 1600475322 707816098 414237015 -1951942414 1257320347 -620561895 -910088636 716874115 -276535338 1853376687 -152082005 118868212 -1066087237 -1845247697 1610349357 790052948 -863412925 -1593875495
REM
CELL 1.54180   50.00000   50.00000   50.00000   90.00000   90.00000   90.00000
LATT -1
SFAC C  
C      1  0.5134870000000  0.4584620000000  0.4819040000000 1.0
C      1  0.5272160000000  0.5301290000000  0.4649070000000 1.0
C      1  0.4757500000000  0.4642900000000  0.5240450000000 1.0
C      1  0.5036670000000  0.4833230000000  0.4750860000000 1.0
C      1  0.5245930000000  0.4701560000000  0.5345870000000 1.0
C      1  0.5002790000000  0.4628520000000  0.5323860000000 1.0
C      1  0.5437430000000  0.5085360000000  0.5066680000000 1.0
C      1  0.4991930000000  0.5303420000000  0.4715630000000 1.0
C      1  0.4920950000000  0.5458340000000  0.5208280000000 1.0
C      1  0.4601030000000  0.4998180000000  0.4768720000000 1.0
C      1  0.5056700000000  0.5409890000000  0.4981630000000 1.0
C      1  0.4494860000000  0.4627250000000  0.5224730000000 1.0
C      1  0.5313240000000  0.4767050000000  0.4743950000000 1.0
C      1  0.5372220000000  0.4899030000000  0.5231270000000 1.0
C      1  0.4789630000000  0.5460240000000  0.5425910000000 1.0
C      1  0.5332680000000  0.5296110000000  0.4924560000000 1.0
C      1  0.4861260000000  0.5043760000000  0.4703430000000 1.0
C      1  0.4378150000000  0.4959230000000  0.4876050000000 1.0
END
