TITL C-141710-1667-4 -0.0214336902639286 125000 -652.962058098003 0 0 96 (C1) n - 1
REM
REM in /rds/project/t2_vol4/rds-t2-cs072/BORA/CARBON/from-Arr/AIRSS/Generating-Clusters/GAP-ML-2020/Only-C1/SD-CG/HFTN-CG
REM
REM
REM
REM
REM
REM ./C.cell (11c1c37f851c82e70ff6c80c92926a4b)
REM AIRSS Version 0.9.1 bugfix July 2018 build 013d7b7c2542+ Fri, 06 Jul 2018 19:26:36 +0100
REM compiler GCC version 9.3.0
REM options -cpp -mtune=generic -march=x86-64 -g -O0
REM seed 113918452 1047830721 466232933 -760225186 1853392056 -1006359010 1782303143 1452881111 331578193 897543148 -92176842 -823418554 1985475723 870411503 -1739989863 -1703841380 -757507331 -593953693 258777541 310838274 1888011948 117426845 947766018 2043329629 -909419926 -1314533398 1725994577 -1821965661 -290646716 -453817403 352752877 293036109 -1110032079
REM
CELL 1.54180   50.00000   50.00000   50.00000   90.00000   90.00000   90.00000
LATT -1
SFAC C  
C      1  0.5369020000000  0.4268140000000  0.4824220000000 1.0
C      1  0.4986610000000  0.5030200000000  0.4987100000000 1.0
C      1  0.5211670000000  0.5391570000000  0.5730810000000 1.0
C      1  0.5576750000000  0.4419220000000  0.5251100000000 1.0
C      1  0.5306090000000  0.5256730000000  0.4989190000000 1.0
C      1  0.5063210000000  0.5308970000000  0.5343200000000 1.0
C      1  0.4989840000000  0.4712440000000  0.5746380000000 1.0
C      1  0.4336890000000  0.4342720000000  0.5291240000000 1.0
C      1  0.5779580000000  0.4518710000000  0.5074280000000 1.0
C      1  0.4181100000000  0.4935150000000  0.4634970000000 1.0
C      1  0.4378690000000  0.5054560000000  0.5515810000000 1.0
C      1  0.5111480000000  0.5558230000000  0.5499300000000 1.0
C      1  0.4456570000000  0.4842190000000  0.4512120000000 1.0
C      1  0.4583470000000  0.5713880000000  0.5040480000000 1.0
C      1  0.5100550000000  0.5854470000000  0.4976630000000 1.0
C      1  0.5660680000000  0.4720760000000  0.4877020000000 1.0
C      1  0.5353030000000  0.5629840000000  0.5335780000000 1.0
C      1  0.5334540000000  0.5712060000000  0.5067390000000 1.0
C      1  0.4616510000000  0.4346440000000  0.4559250000000 1.0
C      1  0.4620350000000  0.4199560000000  0.4816270000000 1.0
C      1  0.4454730000000  0.4466990000000  0.5506410000000 1.0
C      1  0.5401240000000  0.4876090000000  0.4177440000000 1.0
C      1  0.5423800000000  0.4803810000000  0.5022880000000 1.0
C      1  0.5081710000000  0.5076600000000  0.4501970000000 1.0
C      1  0.5395260000000  0.4407960000000  0.4582130000000 1.0
C      1  0.4962930000000  0.5751280000000  0.4740260000000 1.0
C      1  0.4229590000000  0.5112950000000  0.5279470000000 1.0
C      1  0.4883470000000  0.4917740000000  0.5237610000000 1.0
C      1  0.4973950000000  0.4532240000000  0.5030440000000 1.0
C      1  0.4420090000000  0.4545800000000  0.4560300000000 1.0
C      1  0.5587000000000  0.4817180000000  0.4365200000000 1.0
C      1  0.4734690000000  0.4413530000000  0.5434760000000 1.0
C      1  0.4632740000000  0.4778080000000  0.5225730000000 1.0
C      1  0.5898260000000  0.4744420000000  0.5495010000000 1.0
C      1  0.4795640000000  0.5827080000000  0.5214850000000 1.0
C      1  0.4747150000000  0.5451460000000  0.4304310000000 1.0
C      1  0.5354990000000  0.5506550000000  0.4584580000000 1.0
C      1  0.4854740000000  0.5120670000000  0.4715560000000 1.0
C      1  0.5656870000000  0.4789620000000  0.5625020000000 1.0
C      1  0.5119700000000  0.5660650000000  0.4524430000000 1.0
C      1  0.4550940000000  0.5526380000000  0.4511100000000 1.0
C      1  0.4443420000000  0.4357800000000  0.5017470000000 1.0
C      1  0.5077080000000  0.4694510000000  0.5281850000000 1.0
C      1  0.4286930000000  0.4528950000000  0.4812770000000 1.0
C      1  0.5461960000000  0.5283380000000  0.5664130000000 1.0
C      1  0.4942370000000  0.4663860000000  0.4748020000000 1.0
C      1  0.4594710000000  0.5510810000000  0.5466950000000 1.0
C      1  0.5510860000000  0.4642240000000  0.5437830000000 1.0
C      1  0.5916300000000  0.4737700000000  0.5216470000000 1.0
C      1  0.4784770000000  0.5117060000000  0.5727910000000 1.0
C      1  0.5724860000000  0.5435440000000  0.4940230000000 1.0
C      1  0.5112300000000  0.4265950000000  0.4981660000000 1.0
C      1  0.4726790000000  0.5167820000000  0.4208120000000 1.0
C      1  0.4973610000000  0.5587410000000  0.4303870000000 1.0
C      1  0.4965890000000  0.6030120000000  0.5147000000000 1.0
C      1  0.4906920000000  0.4175600000000  0.4796150000000 1.0
C      1  0.4912220000000  0.4391380000000  0.4575430000000 1.0
C      1  0.4144580000000  0.4773090000000  0.4866430000000 1.0
C      1  0.4492400000000  0.5075900000000  0.4329970000000 1.0
C      1  0.5533790000000  0.5404040000000  0.5394290000000 1.0
C      1  0.5340220000000  0.4839540000000  0.5291840000000 1.0
C      1  0.4563430000000  0.5253470000000  0.5603090000000 1.0
C      1  0.4967850000000  0.4542790000000  0.5526200000000 1.0
C      1  0.4699340000000  0.4495930000000  0.5148650000000 1.0
C      1  0.4881360000000  0.5121980000000  0.5436410000000 1.0
C      1  0.5194950000000  0.4835380000000  0.4638810000000 1.0
C      1  0.5016300000000  0.5330860000000  0.5048810000000 1.0
C      1  0.5195330000000  0.4924800000000  0.5808290000000 1.0
C      1  0.4820010000000  0.5379620000000  0.4843390000000 1.0
C      1  0.5517280000000  0.4671360000000  0.4601880000000 1.0
C      1  0.5152150000000  0.4402450000000  0.4400690000000 1.0
C      1  0.5052390000000  0.5174820000000  0.5824470000000 1.0
C      1  0.5451680000000  0.5510870000000  0.4867020000000 1.0
C      1  0.4430460000000  0.5559850000000  0.5231340000000 1.0
C      1  0.4362600000000  0.5312150000000  0.4472180000000 1.0
C      1  0.5766340000000  0.5395490000000  0.5208960000000 1.0
C      1  0.5849690000000  0.5196270000000  0.5022370000000 1.0
C      1  0.4514050000000  0.4786600000000  0.5533790000000 1.0
C      1  0.4835000000000  0.5664210000000  0.5448930000000 1.0
C      1  0.5472010000000  0.4997320000000  0.5737010000000 1.0
C      1  0.4684950000000  0.5627720000000  0.4771880000000 1.0
C      1  0.5339610000000  0.5182660000000  0.5283990000000 1.0
C      1  0.4262740000000  0.4906230000000  0.5081100000000 1.0
C      1  0.4532840000000  0.4902240000000  0.4997620000000 1.0
C      1  0.5514520000000  0.5088490000000  0.4315500000000 1.0
C      1  0.5266870000000  0.4981640000000  0.4883380000000 1.0
C      1  0.4135140000000  0.5198150000000  0.4579960000000 1.0
C      1  0.5865270000000  0.4917070000000  0.4993930000000 1.0
C      1  0.4691240000000  0.4877350000000  0.4745090000000 1.0
C      1  0.5130400000000  0.4822470000000  0.4115260000000 1.0
C      1  0.5336510000000  0.5257760000000  0.4446830000000 1.0
C      1  0.4730860000000  0.4834420000000  0.5734380000000 1.0
C      1  0.4225350000000  0.5382500000000  0.5214240000000 1.0
C      1  0.4963550000000  0.5019550000000  0.4238160000000 1.0
C      1  0.5141560000000  0.4559560000000  0.4184430000000 1.0
C      1  0.5408270000000  0.4260390000000  0.5091540000000 1.0
END
