TITL C-142786-1180-10 -0.21638608926793 125000 -343.652647469469 0 0 52 (C1) n - 1
REM
REM in /rds/project/t2_vol4/rds-t2-cs072/BORA/CARBON/from-Arr/AIRSS/Generating-Clusters/GAP-ML-2020/Only-C1/SD-CG/HFTN-CG
REM
REM
REM
REM
REM
REM ./C.cell (11c1c37f851c82e70ff6c80c92926a4b)
REM AIRSS Version 0.9.1 bugfix July 2018 build 013d7b7c2542+ Fri, 06 Jul 2018 19:26:36 +0100
REM compiler GCC version 9.3.0
REM options -cpp -mtune=generic -march=x86-64 -g -O0
REM seed 2122098602 -48862812 427154928 -1945692899 1745523593 -524043550 1058021759 1267005347 -1792142921 -1804705597 -1242306846 -1287510110 64012108 -342725204 -1457229371 1725054659 -1508207112 -1523253738 -174969545 851003926 -2129079253 -1204047281 -891581750 2058380103 1635099509 1538135372 1342272362 1183748638 -1193776600 -27280709 845714353 -628331152 1471626581
REM
CELL 1.54180   50.00000   50.00000   50.00000   90.00000   90.00000   90.00000
LATT -1
SFAC C  
C      1  0.5272450000000  0.5372520000000  0.4466740000000 1.0
C      1  0.4844170000000  0.4524470000000  0.4821680000000 1.0
C      1  0.5684650000000  0.4914770000000  0.4993180000000 1.0
C      1  0.5056320000000  0.4412760000000  0.5253230000000 1.0
C      1  0.4898240000000  0.5248790000000  0.5287920000000 1.0
C      1  0.4840670000000  0.5014140000000  0.5638910000000 1.0
C      1  0.5003490000000  0.5407760000000  0.5066510000000 1.0
C      1  0.5142700000000  0.5185660000000  0.4872850000000 1.0
C      1  0.5505750000000  0.5390070000000  0.5540020000000 1.0
C      1  0.5294760000000  0.5026810000000  0.5089700000000 1.0
C      1  0.4480200000000  0.5080030000000  0.4900610000000 1.0
C      1  0.5572370000000  0.5173300000000  0.5118230000000 1.0
C      1  0.5341690000000  0.5334550000000  0.4721560000000 1.0
C      1  0.4934270000000  0.4817110000000  0.4918980000000 1.0
C      1  0.5065440000000  0.5197690000000  0.5528250000000 1.0
C      1  0.5430780000000  0.4790690000000  0.4949630000000 1.0
C      1  0.4434670000000  0.4869820000000  0.4441870000000 1.0
C      1  0.4846990000000  0.5567780000000  0.4454850000000 1.0
C      1  0.5483770000000  0.5417840000000  0.4973580000000 1.0
C      1  0.4877920000000  0.5117630000000  0.4283090000000 1.0
C      1  0.5337260000000  0.5569480000000  0.5400660000000 1.0
C      1  0.4593460000000  0.4631880000000  0.5209130000000 1.0
C      1  0.4505930000000  0.5331200000000  0.5071520000000 1.0
C      1  0.4621170000000  0.5072710000000  0.4411590000000 1.0
C      1  0.5349220000000  0.4513820000000  0.4991990000000 1.0
C      1  0.5269700000000  0.5529060000000  0.5139100000000 1.0
C      1  0.4861380000000  0.4941230000000  0.5181920000000 1.0
C      1  0.4388970000000  0.4610360000000  0.4767930000000 1.0
C      1  0.4949210000000  0.4816730000000  0.5441580000000 1.0
C      1  0.5348760000000  0.4488580000000  0.5280780000000 1.0
C      1  0.4952590000000  0.5017530000000  0.4720690000000 1.0
C      1  0.5009790000000  0.5350300000000  0.4383030000000 1.0
C      1  0.4507580000000  0.4591030000000  0.4492620000000 1.0
C      1  0.5224410000000  0.4971860000000  0.5401320000000 1.0
C      1  0.4575090000000  0.4518100000000  0.4954540000000 1.0
C      1  0.4563210000000  0.4928940000000  0.5168270000000 1.0
C      1  0.5601350000000  0.5165540000000  0.5408090000000 1.0
C      1  0.5075770000000  0.4401920000000  0.4963040000000 1.0
C      1  0.4588490000000  0.5119460000000  0.5601150000000 1.0
C      1  0.4689460000000  0.5166580000000  0.4681550000000 1.0
C      1  0.5235410000000  0.5406130000000  0.5621800000000 1.0
C      1  0.5735560000000  0.4706820000000  0.5159850000000 1.0
C      1  0.4580640000000  0.5199950000000  0.5326310000000 1.0
C      1  0.5552490000000  0.4664670000000  0.5379860000000 1.0
C      1  0.5492480000000  0.4908150000000  0.5496480000000 1.0
C      1  0.4990260000000  0.4896910000000  0.4418000000000 1.0
C      1  0.4790580000000  0.4552860000000  0.4533890000000 1.0
C      1  0.4740940000000  0.5471400000000  0.4682940000000 1.0
C      1  0.4963660000000  0.4638570000000  0.4335440000000 1.0
C      1  0.4729540000000  0.5501160000000  0.4967010000000 1.0
C      1  0.4324130000000  0.4886810000000  0.4731890000000 1.0
C      1  0.4840220000000  0.4566050000000  0.5354660000000 1.0
END
