TITL C-141717-1885-3 -507.722992490164 125000 -518.513863894736 0 0 75 (C1) n - 1
REM
REM in /rds/project/t2_vol4/rds-t2-cs072/BORA/CARBON/from-Arr/AIRSS/Generating-Clusters/GAP-ML-2020/Only-C1/SD-CG/HFTN-CG
REM
REM
REM
REM
REM
REM ./C.cell (11c1c37f851c82e70ff6c80c92926a4b)
REM AIRSS Version 0.9.1 bugfix July 2018 build 013d7b7c2542+ Fri, 06 Jul 2018 19:26:36 +0100
REM compiler GCC version 9.3.0
REM options -cpp -mtune=generic -march=x86-64 -g -O0
REM seed -123309428 -891791087 -900445036 -595902658 -1746710378 -1183857104 -351350924 882141318 180455963 -317355076 444488436 -2068932127 565162733 -1678723839 808136141 160048299 -354001649 486892076 1337557933 -671925612 1841181068 1350924087 470672160 1476368299 -950690817 -1033227913 405713060 2046204761 430360576 -182098948 791751499 40264207 1206083561
REM
CELL 1.54180   50.00000   50.00000   50.00000   90.00000   90.00000   90.00000
LATT -1
SFAC C  
C      1  0.5214820000000  0.4811650000000  0.4407680000000 1.0
C      1  0.5351420000000  0.4345660000000  0.4931870000000 1.0
C      1  0.5329410000000  0.5330160000000  0.4365600000000 1.0
C      1  0.5670550000000  0.5388760000000  0.5086950000000 1.0
C      1  0.5506600000000  0.4954180000000  0.5261030000000 1.0
C      1  0.4492010000000  0.4538120000000  0.4516140000000 1.0
C      1  0.4279980000000  0.4938030000000  0.5080070000000 1.0
C      1  0.5262780000000  0.5029020000000  0.5117150000000 1.0
C      1  0.5164540000000  0.5871460000000  0.5019940000000 1.0
C      1  0.4820820000000  0.5233790000000  0.5129850000000 1.0
C      1  0.5446660000000  0.5397020000000  0.5536060000000 1.0
C      1  0.4810580000000  0.5631080000000  0.4855180000000 1.0
C      1  0.5232510000000  0.4431740000000  0.4680310000000 1.0
C      1  0.5859260000000  0.5195030000000  0.5201630000000 1.0
C      1  0.4535600000000  0.5540460000000  0.4798130000000 1.0
C      1  0.4981800000000  0.4664650000000  0.4358230000000 1.0
C      1  0.4749810000000  0.5357980000000  0.4427770000000 1.0
C      1  0.5276420000000  0.4286400000000  0.5216460000000 1.0
C      1  0.5462680000000  0.5487170000000  0.5258200000000 1.0
C      1  0.4541350000000  0.4722700000000  0.5452670000000 1.0
C      1  0.5516180000000  0.4870750000000  0.5536400000000 1.0
C      1  0.5764700000000  0.4924480000000  0.5133920000000 1.0
C      1  0.4602210000000  0.5185760000000  0.5371940000000 1.0
C      1  0.4772330000000  0.4857240000000  0.4291400000000 1.0
C      1  0.4961600000000  0.4649450000000  0.5738390000000 1.0
C      1  0.4969470000000  0.4438630000000  0.4538950000000 1.0
C      1  0.5261770000000  0.5264660000000  0.4926800000000 1.0
C      1  0.4939550000000  0.5906750000000  0.4905710000000 1.0
C      1  0.5547310000000  0.5303010000000  0.4818040000000 1.0
C      1  0.5586110000000  0.4493020000000  0.5039550000000 1.0
C      1  0.4870250000000  0.5122450000000  0.4320790000000 1.0
C      1  0.5714540000000  0.4724160000000  0.4939720000000 1.0
C      1  0.4292890000000  0.4678780000000  0.4949400000000 1.0
C      1  0.4811900000000  0.5117640000000  0.4858480000000 1.0
C      1  0.5217510000000  0.5547790000000  0.5091350000000 1.0
C      1  0.4802410000000  0.4299830000000  0.5310360000000 1.0
C      1  0.4316580000000  0.5169410000000  0.4628920000000 1.0
C      1  0.4268190000000  0.5177640000000  0.4915500000000 1.0
C      1  0.4286860000000  0.4676200000000  0.4671370000000 1.0
C      1  0.5162930000000  0.4503800000000  0.5624980000000 1.0
C      1  0.5219390000000  0.5552060000000  0.4481480000000 1.0
C      1  0.4808590000000  0.5594980000000  0.5402440000000 1.0
C      1  0.4564280000000  0.4472250000000  0.5312630000000 1.0
C      1  0.4349310000000  0.5444170000000  0.4998630000000 1.0
C      1  0.4828590000000  0.5056650000000  0.5521820000000 1.0
C      1  0.4504920000000  0.5383090000000  0.4566110000000 1.0
C      1  0.5078520000000  0.4816980000000  0.5156310000000 1.0
C      1  0.4749820000000  0.4855680000000  0.4836360000000 1.0
C      1  0.4516230000000  0.4776990000000  0.4353450000000 1.0
C      1  0.5228420000000  0.5510170000000  0.5671450000000 1.0
C      1  0.5146220000000  0.5100630000000  0.4436250000000 1.0
C      1  0.4328230000000  0.5553360000000  0.5254530000000 1.0
C      1  0.4822980000000  0.4224790000000  0.5044950000000 1.0
C      1  0.5472650000000  0.5450800000000  0.4570200000000 1.0
C      1  0.5609460000000  0.5147260000000  0.5582030000000 1.0
C      1  0.4891990000000  0.4708200000000  0.4999280000000 1.0
C      1  0.4765480000000  0.4802430000000  0.5629960000000 1.0
C      1  0.4955090000000  0.5488210000000  0.4610980000000 1.0
C      1  0.4425260000000  0.4954600000000  0.5322530000000 1.0
C      1  0.4621330000000  0.4305610000000  0.4880940000000 1.0
C      1  0.5068500000000  0.4311320000000  0.5412820000000 1.0
C      1  0.4319380000000  0.4918700000000  0.4513530000000 1.0
C      1  0.4914170000000  0.5511590000000  0.5130930000000 1.0
C      1  0.5599490000000  0.4808670000000  0.4693770000000 1.0
C      1  0.5439260000000  0.4600240000000  0.5554020000000 1.0
C      1  0.5382110000000  0.4660030000000  0.4575970000000 1.0
C      1  0.4990750000000  0.5588440000000  0.5607450000000 1.0
C      1  0.5010810000000  0.5074320000000  0.5290480000000 1.0
C      1  0.4447050000000  0.4463200000000  0.5054600000000 1.0
C      1  0.4695110000000  0.4375960000000  0.4615780000000 1.0
C      1  0.4533800000000  0.5477100000000  0.5415200000000 1.0
C      1  0.5635780000000  0.5077560000000  0.4668150000000 1.0
C      1  0.5503120000000  0.4442480000000  0.5314090000000 1.0
C      1  0.5056150000000  0.5222720000000  0.4726310000000 1.0
C      1  0.5862890000000  0.5202210000000  0.5481640000000 1.0
END
