TITL C-149887-9101-2 119.793626747733 125000 -761.630747234476 0 0 107 (C1) n - 1
REM
REM in /rds/project/t2_vol4/rds-t2-cs072/BORA/CARBON/from-Arr/AIRSS/Generating-Clusters/GAP-ML-2020/Only-C1/SD-CG/HFTN-CG
REM
REM
REM
REM
REM
REM ./C.cell (11c1c37f851c82e70ff6c80c92926a4b)
REM AIRSS Version 0.9.1 bugfix July 2018 build 013d7b7c2542+ Fri, 06 Jul 2018 19:26:36 +0100
REM compiler GCC version 9.3.0
REM options -cpp -mtune=generic -march=x86-64 -g -O0
REM seed -840311479 382760466 1044902706 -804621653 -1383613067 240791734 628813855 -1911115132 -1929066423 1109488090 1399710175 -202166650 1623311967 -77126228 -2024451519 -1879198859 64588677 -1589909221 473141445 -1091233618 -1717044245 984713629 -2015418421 737786475 1298480993 -1938036429 1957209182 -2084471052 1324396545 90806119 1912910001 1748800062 1875991826
REM
CELL 1.54180   50.00000   50.00000   50.00000   90.00000   90.00000   90.00000
LATT -1
SFAC C  
C      1  0.4145870000000  0.5289730000000  0.4846410000000 1.0
C      1  0.4933990000000  0.5658650000000  0.4516780000000 1.0
C      1  0.4305780000000  0.5136000000000  0.5526910000000 1.0
C      1  0.5348300000000  0.5399470000000  0.4287490000000 1.0
C      1  0.4678350000000  0.4862510000000  0.4995900000000 1.0
C      1  0.4468940000000  0.5574330000000  0.4644100000000 1.0
C      1  0.5030660000000  0.4807960000000  0.4658270000000 1.0
C      1  0.4281920000000  0.4857500000000  0.4699690000000 1.0
C      1  0.5428580000000  0.4428200000000  0.4612210000000 1.0
C      1  0.5680890000000  0.5507540000000  0.4937450000000 1.0
C      1  0.5131120000000  0.4933870000000  0.5193010000000 1.0
C      1  0.4155350000000  0.5297040000000  0.5350550000000 1.0
C      1  0.5054840000000  0.5708890000000  0.5572570000000 1.0
C      1  0.4806180000000  0.5278960000000  0.5806270000000 1.0
C      1  0.5312690000000  0.4685550000000  0.5836660000000 1.0
C      1  0.4538570000000  0.4723760000000  0.4683140000000 1.0
C      1  0.4995960000000  0.5852250000000  0.5066550000000 1.0
C      1  0.4687320000000  0.5146420000000  0.4937110000000 1.0
C      1  0.5479110000000  0.5657490000000  0.5068500000000 1.0
C      1  0.4271290000000  0.5545950000000  0.5335280000000 1.0
C      1  0.5140440000000  0.4525550000000  0.4558300000000 1.0
C      1  0.5310090000000  0.4761800000000  0.5343580000000 1.0
C      1  0.5156680000000  0.4221390000000  0.4181790000000 1.0
C      1  0.4258310000000  0.5134070000000  0.4636590000000 1.0
C      1  0.4805920000000  0.4351670000000  0.5505920000000 1.0
C      1  0.5329490000000  0.5623530000000  0.5565660000000 1.0
C      1  0.5503780000000  0.5587890000000  0.5348570000000 1.0
C      1  0.5180910000000  0.5068210000000  0.4597100000000 1.0
C      1  0.5579480000000  0.5144030000000  0.5546990000000 1.0
C      1  0.4767990000000  0.4842910000000  0.5678410000000 1.0
C      1  0.4972740000000  0.5149630000000  0.5307150000000 1.0
C      1  0.5236800000000  0.4057160000000  0.5116460000000 1.0
C      1  0.5861960000000  0.5035420000000  0.5059200000000 1.0
C      1  0.4667330000000  0.4585360000000  0.5602410000000 1.0
C      1  0.5213140000000  0.4117200000000  0.4830620000000 1.0
C      1  0.4727500000000  0.4262780000000  0.4817840000000 1.0
C      1  0.4177430000000  0.4727980000000  0.4938590000000 1.0
C      1  0.5350910000000  0.5014160000000  0.5037040000000 1.0
C      1  0.5384690000000  0.5172070000000  0.5754790000000 1.0
C      1  0.5272300000000  0.4100830000000  0.4375690000000 1.0
C      1  0.4540120000000  0.5831150000000  0.5119910000000 1.0
C      1  0.5752280000000  0.4535690000000  0.5258430000000 1.0
C      1  0.4973180000000  0.5303190000000  0.4616880000000 1.0
C      1  0.5659630000000  0.5466760000000  0.4654190000000 1.0
C      1  0.5105850000000  0.5432200000000  0.4144060000000 1.0
C      1  0.5207630000000  0.4973210000000  0.4107840000000 1.0
C      1  0.4403390000000  0.4408400000000  0.5258020000000 1.0
C      1  0.4746260000000  0.4110020000000  0.5067770000000 1.0
C      1  0.5596760000000  0.4529440000000  0.5025790000000 1.0
C      1  0.5271770000000  0.5423940000000  0.5764380000000 1.0
C      1  0.4744920000000  0.5860390000000  0.4926680000000 1.0
C      1  0.4932180000000  0.5008830000000  0.5843600000000 1.0
C      1  0.4985310000000  0.5490610000000  0.5767250000000 1.0
C      1  0.4322380000000  0.4487200000000  0.4994910000000 1.0
C      1  0.4750000000000  0.4870040000000  0.4531950000000 1.0
C      1  0.5083740000000  0.4315440000000  0.5537860000000 1.0
C      1  0.4574720000000  0.4891720000000  0.5259040000000 1.0
C      1  0.4638590000000  0.4250710000000  0.5290550000000 1.0
C      1  0.5858200000000  0.5012480000000  0.4777420000000 1.0
C      1  0.5774810000000  0.5217370000000  0.4586300000000 1.0
C      1  0.4925560000000  0.5829090000000  0.5355250000000 1.0
C      1  0.4869640000000  0.5547720000000  0.4255040000000 1.0
C      1  0.4722070000000  0.5165000000000  0.4637400000000 1.0
C      1  0.5322560000000  0.4520150000000  0.5159490000000 1.0
C      1  0.4654470000000  0.5346240000000  0.4248470000000 1.0
C      1  0.4517270000000  0.4446280000000  0.4785730000000 1.0
C      1  0.5087410000000  0.5390770000000  0.4899850000000 1.0
C      1  0.4118090000000  0.4894910000000  0.5153750000000 1.0
C      1  0.5065930000000  0.4514400000000  0.5006240000000 1.0
C      1  0.5218490000000  0.5715010000000  0.4622220000000 1.0
C      1  0.4878100000000  0.5299640000000  0.5085750000000 1.0
C      1  0.5301550000000  0.5183290000000  0.4842520000000 1.0
C      1  0.4705390000000  0.5734570000000  0.4672540000000 1.0
C      1  0.5312510000000  0.4274270000000  0.5330190000000 1.0
C      1  0.4764280000000  0.5124240000000  0.4109980000000 1.0
C      1  0.5099950000000  0.4490320000000  0.4263140000000 1.0
C      1  0.5382340000000  0.5093750000000  0.4324750000000 1.0
C      1  0.5650650000000  0.5010590000000  0.4421620000000 1.0
C      1  0.4268620000000  0.5549210000000  0.4843080000000 1.0
C      1  0.5036120000000  0.4742100000000  0.4146910000000 1.0
C      1  0.5015080000000  0.4330430000000  0.4765750000000 1.0
C      1  0.4503110000000  0.5559900000000  0.5499010000000 1.0
C      1  0.5585890000000  0.4892450000000  0.5430610000000 1.0
C      1  0.5574790000000  0.4393550000000  0.5458830000000 1.0
C      1  0.5207800000000  0.4446020000000  0.5750020000000 1.0
C      1  0.5426840000000  0.5561560000000  0.4504890000000 1.0
C      1  0.5397470000000  0.4137630000000  0.4616310000000 1.0
C      1  0.5215090000000  0.5705440000000  0.4923600000000 1.0
C      1  0.5782660000000  0.4819980000000  0.5242490000000 1.0
C      1  0.4418450000000  0.4612620000000  0.5455690000000 1.0
C      1  0.4980520000000  0.3980120000000  0.5121140000000 1.0
C      1  0.4964170000000  0.4778100000000  0.4971730000000 1.0
C      1  0.5634150000000  0.4569900000000  0.4740790000000 1.0
C      1  0.4490810000000  0.5311490000000  0.4504840000000 1.0
C      1  0.5487800000000  0.4486940000000  0.5704910000000 1.0
C      1  0.4567390000000  0.5283290000000  0.5606710000000 1.0
C      1  0.4306390000000  0.5681050000000  0.5087360000000 1.0
C      1  0.4648190000000  0.5778540000000  0.5378560000000 1.0
C      1  0.4732410000000  0.5039750000000  0.5453100000000 1.0
C      1  0.4783350000000  0.4862720000000  0.4230690000000 1.0
C      1  0.5031700000000  0.5184920000000  0.4028110000000 1.0
C      1  0.5788420000000  0.5306050000000  0.5126300000000 1.0
C      1  0.4301420000000  0.4868990000000  0.5388430000000 1.0
C      1  0.5736960000000  0.4804110000000  0.4617240000000 1.0
C      1  0.5664830000000  0.5353740000000  0.5376720000000 1.0
C      1  0.4081390000000  0.5170450000000  0.5102960000000 1.0
C      1  0.5216580000000  0.4954220000000  0.5838940000000 1.0
END
