TITL C-140196-7024-5 0.958694998372303 125000 -211.242009778525 0 0 32 (C1) n - 1
REM
REM in /rds/project/t2_vol4/rds-t2-cs072/BORA/CARBON/from-Arr/AIRSS/Generating-Clusters/GAP-ML-2020/Only-C1/SD-CG/HFTN-CG
REM
REM
REM
REM
REM
REM ./C.cell (11c1c37f851c82e70ff6c80c92926a4b)
REM AIRSS Version 0.9.1 bugfix July 2018 build 013d7b7c2542+ Fri, 06 Jul 2018 19:26:36 +0100
REM compiler GCC version 9.3.0
REM options -cpp -mtune=generic -march=x86-64 -g -O0
REM seed 1237367773 -1893701027 600839731 -1081532009 -286264337 1603431948 1971393559 -865018377 1905301642 -105517714 -134087411 1759367100 -1390165920 -768874126 -336860731 -1771869428 -2046345812 1390927264 -139960081 -839242150 -1153304680 -1738075805 2106424353 1575214354 -1169363517 586142092 -1771428359 1240220588 815808641 1904309555 1777432263 -2146802840 317916843
REM
CELL 1.54180   50.00000   50.00000   50.00000   90.00000   90.00000   90.00000
LATT -1
SFAC C  
C      1  0.5491720000000  0.4940260000000  0.4993090000000 1.0
C      1  0.5451670000000  0.5321340000000  0.5295100000000 1.0
C      1  0.4579870000000  0.5062910000000  0.4731080000000 1.0
C      1  0.4517240000000  0.4698730000000  0.5381540000000 1.0
C      1  0.5273410000000  0.5412790000000  0.5108230000000 1.0
C      1  0.5346760000000  0.5099010000000  0.4568580000000 1.0
C      1  0.5167420000000  0.4984330000000  0.5389700000000 1.0
C      1  0.5224610000000  0.4516640000000  0.5253940000000 1.0
C      1  0.4874690000000  0.4763020000000  0.5113990000000 1.0
C      1  0.4683780000000  0.5135850000000  0.5437220000000 1.0
C      1  0.4556460000000  0.4797680000000  0.4819550000000 1.0
C      1  0.4939640000000  0.4840990000000  0.4538700000000 1.0
C      1  0.5076470000000  0.4727040000000  0.5334980000000 1.0
C      1  0.4913630000000  0.4536270000000  0.4925990000000 1.0
C      1  0.4829140000000  0.5405860000000  0.4929140000000 1.0
C      1  0.5295700000000  0.4756160000000  0.4868690000000 1.0
C      1  0.4787170000000  0.4652610000000  0.4704940000000 1.0
C      1  0.4933650000000  0.5338050000000  0.4664060000000 1.0
C      1  0.4947540000000  0.5185270000000  0.5364080000000 1.0
C      1  0.4801750000000  0.5100700000000  0.4558160000000 1.0
C      1  0.5193860000000  0.4513590000000  0.4976750000000 1.0
C      1  0.5411250000000  0.5057790000000  0.5260000000000 1.0
C      1  0.4604150000000  0.4874590000000  0.5550940000000 1.0
C      1  0.4598110000000  0.5247600000000  0.4953060000000 1.0
C      1  0.5203810000000  0.5342650000000  0.4623720000000 1.0
C      1  0.4575000000000  0.4817660000000  0.5119380000000 1.0
C      1  0.5226920000000  0.4846570000000  0.4584860000000 1.0
C      1  0.5378570000000  0.5398550000000  0.4849120000000 1.0
C      1  0.5517760000000  0.5148140000000  0.4796490000000 1.0
C      1  0.5061730000000  0.4962900000000  0.4952980000000 1.0
C      1  0.4539720000000  0.5113830000000  0.5186710000000 1.0
C      1  0.4996810000000  0.5400640000000  0.5165220000000 1.0
END
