TITL C-149873-8961-6 -0.00718459166939288 125000 -508.863650782393 0 0 72 (C1) n - 1
REM
REM in /rds/project/t2_vol4/rds-t2-cs072/BORA/CARBON/from-Arr/AIRSS/Generating-Clusters/GAP-ML-2020/Only-C1/SD-CG/HFTN-CG
REM
REM
REM
REM
REM
REM ./C.cell (11c1c37f851c82e70ff6c80c92926a4b)
REM AIRSS Version 0.9.1 bugfix July 2018 build 013d7b7c2542+ Fri, 06 Jul 2018 19:26:36 +0100
REM compiler GCC version 9.3.0
REM options -cpp -mtune=generic -march=x86-64 -g -O0
REM seed 132251463 -928032430 979687753 133710658 224308941 -1984869513 -2012357703 -1501114698 1138995119 995991477 1571711340 -1007817244 -82959117 344913560 -1550052571 159527945 -357524827 -728851448 340083919 474262228 -81669012 -1317945020 632835082 -305114258 349231201 2098552637 -1983839992 -1819692575 425592772 176723695 -512772909 -2057198570 222630065
REM
CELL 1.54180   50.00000   50.00000   50.00000   90.00000   90.00000   90.00000
LATT -1
SFAC C  
C      1  0.4610700000000  0.4515250000000  0.4467010000000 1.0
C      1  0.4805660000000  0.5133610000000  0.5573240000000 1.0
C      1  0.4636230000000  0.4421730000000  0.5204180000000 1.0
C      1  0.5140640000000  0.5129420000000  0.5202150000000 1.0
C      1  0.4883730000000  0.5056620000000  0.5279060000000 1.0
C      1  0.5145720000000  0.5673400000000  0.5145480000000 1.0
C      1  0.4989080000000  0.5030160000000  0.4347770000000 1.0
C      1  0.4918460000000  0.5601760000000  0.5321970000000 1.0
C      1  0.5020630000000  0.5286010000000  0.4863330000000 1.0
C      1  0.5711750000000  0.5158950000000  0.4699070000000 1.0
C      1  0.5611250000000  0.4688990000000  0.5246260000000 1.0
C      1  0.4576460000000  0.5505140000000  0.4990890000000 1.0
C      1  0.4581250000000  0.5223910000000  0.4580090000000 1.0
C      1  0.5087420000000  0.5309150000000  0.4380170000000 1.0
C      1  0.4707860000000  0.5011850000000  0.4402980000000 1.0
C      1  0.4717340000000  0.4990440000000  0.5043990000000 1.0
C      1  0.4232060000000  0.5002440000000  0.5143910000000 1.0
C      1  0.5466750000000  0.4488130000000  0.4796620000000 1.0
C      1  0.4319750000000  0.4843690000000  0.4611230000000 1.0
C      1  0.5107390000000  0.5498280000000  0.5524160000000 1.0
C      1  0.4892960000000  0.4394040000000  0.5628750000000 1.0
C      1  0.5650360000000  0.5406380000000  0.4829630000000 1.0
C      1  0.4680510000000  0.5663020000000  0.4762350000000 1.0
C      1  0.5163420000000  0.5592510000000  0.4858380000000 1.0
C      1  0.4738080000000  0.5230540000000  0.4872770000000 1.0
C      1  0.5326110000000  0.4392880000000  0.5268880000000 1.0
C      1  0.5276350000000  0.5055230000000  0.5687120000000 1.0
C      1  0.4856070000000  0.4338550000000  0.5362270000000 1.0
C      1  0.5785190000000  0.5160230000000  0.5238630000000 1.0
C      1  0.5592310000000  0.5511950000000  0.5346250000000 1.0
C      1  0.4659900000000  0.5507670000000  0.5277350000000 1.0
C      1  0.5533350000000  0.5130700000000  0.4477190000000 1.0
C      1  0.4437180000000  0.4607320000000  0.5288760000000 1.0
C      1  0.5007610000000  0.4325360000000  0.4913920000000 1.0
C      1  0.5081130000000  0.4288230000000  0.5182550000000 1.0
C      1  0.4217050000000  0.5190760000000  0.4931520000000 1.0
C      1  0.5093590000000  0.4811350000000  0.4871340000000 1.0
C      1  0.5414150000000  0.5517190000000  0.4706640000000 1.0
C      1  0.4732880000000  0.4855910000000  0.5630260000000 1.0
C      1  0.5329130000000  0.5596330000000  0.5358690000000 1.0
C      1  0.4952110000000  0.4666120000000  0.5660320000000 1.0
C      1  0.5200510000000  0.4413660000000  0.4716720000000 1.0
C      1  0.5521430000000  0.4472720000000  0.5073640000000 1.0
C      1  0.5058540000000  0.5253490000000  0.5658250000000 1.0
C      1  0.4515860000000  0.4453560000000  0.4734590000000 1.0
C      1  0.5355230000000  0.5349510000000  0.4475220000000 1.0
C      1  0.5190670000000  0.5061190000000  0.4941150000000 1.0
C      1  0.4581680000000  0.5275250000000  0.5433640000000 1.0
C      1  0.5225280000000  0.4769390000000  0.5629230000000 1.0
C      1  0.5585300000000  0.4716780000000  0.4671990000000 1.0
C      1  0.5719630000000  0.5407500000000  0.5101540000000 1.0
C      1  0.4918390000000  0.5527420000000  0.4445980000000 1.0
C      1  0.5744200000000  0.4907940000000  0.5120550000000 1.0
C      1  0.4392960000000  0.5063950000000  0.5379560000000 1.0
C      1  0.4731140000000  0.4443900000000  0.4928120000000 1.0
C      1  0.5087980000000  0.4541160000000  0.4475160000000 1.0
C      1  0.4277900000000  0.4724520000000  0.5080370000000 1.0
C      1  0.4953780000000  0.5691480000000  0.4685080000000 1.0
C      1  0.4303850000000  0.5440750000000  0.4972130000000 1.0
C      1  0.4496710000000  0.4814360000000  0.5477120000000 1.0
C      1  0.4309370000000  0.4638490000000  0.4810840000000 1.0
C      1  0.4316630000000  0.5114960000000  0.4670690000000 1.0
C      1  0.5537070000000  0.5147670000000  0.5689160000000 1.0
C      1  0.4828110000000  0.4771060000000  0.4906850000000 1.0
C      1  0.5732820000000  0.4908390000000  0.4829860000000 1.0
C      1  0.5395830000000  0.4620990000000  0.5444770000000 1.0
C      1  0.4537810000000  0.4788000000000  0.4425030000000 1.0
C      1  0.4642850000000  0.5503440000000  0.4520580000000 1.0
C      1  0.5667820000000  0.5264170000000  0.5492050000000 1.0
C      1  0.5448470000000  0.4859660000000  0.4457900000000 1.0
C      1  0.4854300000000  0.4436230000000  0.4391720000000 1.0
C      1  0.5178300000000  0.4807230000000  0.4383370000000 1.0
END
