TITL C-141693-1679-6 0.0524931428749884 125000 -150.885372337504 0 0 24 (C1) n - 1
REM
REM in /rds/project/t2_vol4/rds-t2-cs072/BORA/CARBON/from-Arr/AIRSS/Generating-Clusters/GAP-ML-2020/Only-C1/SD-CG/HFTN-CG
REM
REM
REM
REM
REM
REM ./C.cell (11c1c37f851c82e70ff6c80c92926a4b)
REM AIRSS Version 0.9.1 bugfix July 2018 build 013d7b7c2542+ Fri, 06 Jul 2018 19:26:36 +0100
REM compiler GCC version 9.3.0
REM options -cpp -mtune=generic -march=x86-64 -g -O0
REM seed -1930020737 705293977 -253728829 591615865 -267733114 -1057287728 662489806 389989501 126212321 1913622221 -1845931739 -1934442853 -1281201158 1266879370 -457048581 -1467089140 1778541847 -33852322 968157790 -1181903405 1228444410 -922075648 2127651816 -1706997931 -1537805426 -1468161830 -365739464 732862533 -1790295659 1901039909 2113872097 -1747179523 1621293025
REM
CELL 1.54180   50.00000   50.00000   50.00000   90.00000   90.00000   90.00000
LATT -1
SFAC C  
C      1  0.5086530000000  0.5184860000000  0.5298990000000 1.0
C      1  0.5160670000000  0.5074970000000  0.4700120000000 1.0
C      1  0.5067100000000  0.4899790000000  0.4924930000000 1.0
C      1  0.5175080000000  0.4903530000000  0.5362510000000 1.0
C      1  0.5321160000000  0.4545250000000  0.4823650000000 1.0
C      1  0.4994790000000  0.5066730000000  0.4458620000000 1.0
C      1  0.4809200000000  0.4565200000000  0.5165310000000 1.0
C      1  0.4779260000000  0.5098600000000  0.4588100000000 1.0
C      1  0.5086330000000  0.5458390000000  0.5254490000000 1.0
C      1  0.5411530000000  0.5474400000000  0.4915820000000 1.0
C      1  0.4840560000000  0.5511170000000  0.5098110000000 1.0
C      1  0.5464800000000  0.4686990000000  0.4990960000000 1.0
C      1  0.5293630000000  0.5280160000000  0.4797470000000 1.0
C      1  0.4897530000000  0.4402350000000  0.4971520000000 1.0
C      1  0.4503730000000  0.4906000000000  0.4907640000000 1.0
C      1  0.4715740000000  0.4922690000000  0.5294840000000 1.0
C      1  0.4888540000000  0.5078150000000  0.5108320000000 1.0
C      1  0.5328240000000  0.5563020000000  0.5153010000000 1.0
C      1  0.4928430000000  0.4741210000000  0.5358770000000 1.0
C      1  0.4570610000000  0.4750260000000  0.5111380000000 1.0
C      1  0.5294200000000  0.4855020000000  0.5116470000000 1.0
C      1  0.4745820000000  0.5296420000000  0.4979680000000 1.0
C      1  0.5046000000000  0.4595470000000  0.4836190000000 1.0
C      1  0.4590520000000  0.5139370000000  0.4783100000000 1.0
END
