TITL C-144809-3180-9 0.00096395464700844 125000 -211.623725325439 0 0 31 (C1) n - 1
REM
REM in /rds/project/t2_vol4/rds-t2-cs072/BORA/CARBON/from-Arr/AIRSS/Generating-Clusters/GAP-ML-2020/Only-C1/SD-CG/HFTN-CG
REM
REM
REM
REM
REM
REM ./C.cell (11c1c37f851c82e70ff6c80c92926a4b)
REM AIRSS Version 0.9.1 bugfix July 2018 build 013d7b7c2542+ Fri, 06 Jul 2018 19:26:36 +0100
REM compiler GCC version 9.3.0
REM options -cpp -mtune=generic -march=x86-64 -g -O0
REM seed 100028638 -1129892420 -1975179842 -1552988899 2032048983 1983283823 -1139324042 -2076840199 1796929403 217081808 1202474676 -1773996089 -1377217882 -658243236 -368002015 -1070340866 575500818 1977818707 -1407960304 204428107 -1947114392 1806857591 -1874329811 -1184897515 -1158256323 -1155719953 1380323608 1274734866 -1412697487 -1854817467 439996913 -1276872840 -285213218
REM
CELL 1.54180   50.00000   50.00000   50.00000   90.00000   90.00000   90.00000
LATT -1
SFAC C  
C      1  0.4822030000000  0.4559320000000  0.4780520000000 1.0
C      1  0.4496020000000  0.4888420000000  0.4848300000000 1.0
C      1  0.4693570000000  0.5385900000000  0.5393470000000 1.0
C      1  0.4698080000000  0.4792070000000  0.4666970000000 1.0
C      1  0.5221560000000  0.5265400000000  0.5457660000000 1.0
C      1  0.5293990000000  0.5016400000000  0.5358770000000 1.0
C      1  0.5406370000000  0.4932670000000  0.4661940000000 1.0
C      1  0.5095210000000  0.5429260000000  0.4732470000000 1.0
C      1  0.4641500000000  0.4881120000000  0.5341670000000 1.0
C      1  0.5153030000000  0.4774940000000  0.5412950000000 1.0
C      1  0.4407820000000  0.5150200000000  0.4800780000000 1.0
C      1  0.4900190000000  0.4975280000000  0.4570840000000 1.0
C      1  0.5450060000000  0.4819510000000  0.4925860000000 1.0
C      1  0.5455360000000  0.5210270000000  0.4680300000000 1.0
C      1  0.4611100000000  0.5146950000000  0.5400280000000 1.0
C      1  0.5125520000000  0.5457910000000  0.5269850000000 1.0
C      1  0.4864440000000  0.5257520000000  0.4662130000000 1.0
C      1  0.4713780000000  0.4522210000000  0.5041300000000 1.0
C      1  0.4865800000000  0.4720190000000  0.5440010000000 1.0
C      1  0.5103660000000  0.4583300000000  0.4736940000000 1.0
C      1  0.5284210000000  0.4589980000000  0.4964880000000 1.0
C      1  0.5152480000000  0.4826260000000  0.4580220000000 1.0
C      1  0.5306440000000  0.5395240000000  0.4548240000000 1.0
C      1  0.5464600000000  0.5031690000000  0.5116770000000 1.0
C      1  0.5241090000000  0.5452430000000  0.5004100000000 1.0
C      1  0.5458880000000  0.5274220000000  0.4966910000000 1.0
C      1  0.4537970000000  0.4752820000000  0.5098650000000 1.0
C      1  0.4874020000000  0.5564450000000  0.5338540000000 1.0
C      1  0.4894030000000  0.4487160000000  0.5255420000000 1.0
C      1  0.5175420000000  0.4546920000000  0.5222860000000 1.0
C      1  0.4591750000000  0.5310010000000  0.4720400000000 1.0
END
