TITL C-147434-6606-4 0.10326844441121 125000 -769.1516333702 0 0 110 (C1) n - 1
REM
REM in /rds/project/t2_vol4/rds-t2-cs072/BORA/CARBON/from-Arr/AIRSS/Generating-Clusters/GAP-ML-2020/Only-C1/SD-CG/HFTN-CG
REM
REM
REM
REM
REM
REM ./C.cell (11c1c37f851c82e70ff6c80c92926a4b)
REM AIRSS Version 0.9.1 bugfix July 2018 build 013d7b7c2542+ Fri, 06 Jul 2018 19:26:36 +0100
REM compiler GCC version 9.3.0
REM options -cpp -mtune=generic -march=x86-64 -g -O0
REM seed -1722966067 1834489404 1019334318 -618524762 728408406 -1248070743 1047679567 -1775976577 -2145969022 1927851456 1430425381 1698189594 -1114434555 -708112604 412194666 -1561470931 571653062 -1702852087 -425725700 -1462594367 -1736164888 710216452 -1622580045 -1766573091 1806635572 -1401880349 228415323 241549197 1819092369 -570517387 1408188871 121386496 -767588319
REM
CELL 1.54180   50.00000   50.00000   50.00000   90.00000   90.00000   90.00000
LATT -1
SFAC C  
C      1  0.4461030000000  0.4486460000000  0.4429230000000 1.0
C      1  0.5858800000000  0.4701070000000  0.4905120000000 1.0
C      1  0.5459340000000  0.4814180000000  0.5702650000000 1.0
C      1  0.4740850000000  0.4120560000000  0.4778970000000 1.0
C      1  0.5754640000000  0.5248380000000  0.5406550000000 1.0
C      1  0.4211380000000  0.5484450000000  0.4960670000000 1.0
C      1  0.5255240000000  0.5407180000000  0.5076570000000 1.0
C      1  0.4217490000000  0.4717810000000  0.4961060000000 1.0
C      1  0.4343940000000  0.4352680000000  0.4659410000000 1.0
C      1  0.5593590000000  0.4450110000000  0.5428220000000 1.0
C      1  0.4656630000000  0.4474020000000  0.5526550000000 1.0
C      1  0.5301220000000  0.5194610000000  0.4344540000000 1.0
C      1  0.5042630000000  0.4072640000000  0.5378800000000 1.0
C      1  0.5411060000000  0.4131490000000  0.5034080000000 1.0
C      1  0.5374490000000  0.4372850000000  0.5614220000000 1.0
C      1  0.5465200000000  0.5644050000000  0.5548540000000 1.0
C      1  0.5741940000000  0.5706440000000  0.5242130000000 1.0
C      1  0.5500160000000  0.5796290000000  0.5308370000000 1.0
C      1  0.4894180000000  0.4422520000000  0.5680080000000 1.0
C      1  0.4191480000000  0.5470580000000  0.4652510000000 1.0
C      1  0.4466640000000  0.5015780000000  0.5271530000000 1.0
C      1  0.4873450000000  0.4260530000000  0.4558740000000 1.0
C      1  0.4402920000000  0.4295140000000  0.5128620000000 1.0
C      1  0.5388200000000  0.4926580000000  0.4332080000000 1.0
C      1  0.4523980000000  0.5389000000000  0.4269310000000 1.0
C      1  0.4779540000000  0.4075160000000  0.5266890000000 1.0
C      1  0.5583400000000  0.5379170000000  0.5597940000000 1.0
C      1  0.5892290000000  0.4924530000000  0.5087770000000 1.0
C      1  0.4187050000000  0.4588330000000  0.4712470000000 1.0
C      1  0.4569860000000  0.5046760000000  0.4732670000000 1.0
C      1  0.5172490000000  0.4724290000000  0.4329860000000 1.0
C      1  0.5656660000000  0.4740400000000  0.5496400000000 1.0
C      1  0.4269930000000  0.5132390000000  0.5443840000000 1.0
C      1  0.4773350000000  0.5850700000000  0.5283310000000 1.0
C      1  0.5037060000000  0.4626670000000  0.5819220000000 1.0
C      1  0.4820680000000  0.4881240000000  0.4709320000000 1.0
C      1  0.4486950000000  0.5513380000000  0.5398070000000 1.0
C      1  0.5242130000000  0.5028000000000  0.5672940000000 1.0
C      1  0.5099660000000  0.4775590000000  0.5260860000000 1.0
C      1  0.5104240000000  0.5229630000000  0.4548990000000 1.0
C      1  0.5290640000000  0.5841770000000  0.5115130000000 1.0
C      1  0.5161540000000  0.4026490000000  0.5117920000000 1.0
C      1  0.4907080000000  0.5440910000000  0.4537190000000 1.0
C      1  0.5044730000000  0.5788840000000  0.5242760000000 1.0
C      1  0.5615070000000  0.4316840000000  0.5166260000000 1.0
C      1  0.5862260000000  0.5113210000000  0.4861160000000 1.0
C      1  0.4632060000000  0.4784910000000  0.5428800000000 1.0
C      1  0.5058170000000  0.5070230000000  0.4779690000000 1.0
C      1  0.5300020000000  0.4952300000000  0.4912370000000 1.0
C      1  0.5558060000000  0.5630440000000  0.4495880000000 1.0
C      1  0.5750420000000  0.4441720000000  0.4938310000000 1.0
C      1  0.5286880000000  0.4488040000000  0.4422830000000 1.0
C      1  0.5153700000000  0.4328010000000  0.4626660000000 1.0
C      1  0.5190280000000  0.5538710000000  0.5627040000000 1.0
C      1  0.4891460000000  0.4026530000000  0.4996420000000 1.0
C      1  0.4342220000000  0.5000550000000  0.4487840000000 1.0
C      1  0.4590730000000  0.5200100000000  0.5738650000000 1.0
C      1  0.4743120000000  0.4472200000000  0.4412590000000 1.0
C      1  0.5593950000000  0.5562530000000  0.4755640000000 1.0
C      1  0.4775010000000  0.5381780000000  0.5819910000000 1.0
C      1  0.4890090000000  0.5590510000000  0.5697040000000 1.0
C      1  0.5796760000000  0.5441190000000  0.5187010000000 1.0
C      1  0.4800990000000  0.5470450000000  0.4260580000000 1.0
C      1  0.4280750000000  0.4719070000000  0.4472740000000 1.0
C      1  0.5395640000000  0.4195270000000  0.4755520000000 1.0
C      1  0.4890200000000  0.5893930000000  0.4669000000000 1.0
C      1  0.4874510000000  0.4753660000000  0.4391360000000 1.0
C      1  0.5105820000000  0.5680850000000  0.4629000000000 1.0
C      1  0.5806410000000  0.4886220000000  0.4678540000000 1.0
C      1  0.5072410000000  0.4527330000000  0.4880100000000 1.0
C      1  0.5337180000000  0.5294760000000  0.5727150000000 1.0
C      1  0.5305990000000  0.5653520000000  0.4390860000000 1.0
C      1  0.5783430000000  0.5381340000000  0.4901980000000 1.0
C      1  0.4688180000000  0.5695440000000  0.5506990000000 1.0
C      1  0.4750200000000  0.4967670000000  0.4207250000000 1.0
C      1  0.4254610000000  0.4520950000000  0.5145200000000 1.0
C      1  0.4584030000000  0.4259340000000  0.5344490000000 1.0
C      1  0.4817380000000  0.4661470000000  0.4915760000000 1.0
C      1  0.5169520000000  0.5037130000000  0.5356160000000 1.0
C      1  0.4695120000000  0.5933660000000  0.4827800000000 1.0
C      1  0.5363910000000  0.5139550000000  0.5130280000000 1.0
C      1  0.4651530000000  0.5351910000000  0.4696760000000 1.0
C      1  0.5795470000000  0.4960580000000  0.5356980000000 1.0
C      1  0.5627930000000  0.4811130000000  0.4462110000000 1.0
C      1  0.4155970000000  0.5195690000000  0.4635060000000 1.0
C      1  0.4355560000000  0.4980820000000  0.4989940000000 1.0
C      1  0.5617180000000  0.4358460000000  0.4699610000000 1.0
C      1  0.5323520000000  0.4586660000000  0.5789020000000 1.0
C      1  0.5002890000000  0.5403210000000  0.4079980000000 1.0
C      1  0.4166690000000  0.5198360000000  0.4928770000000 1.0
C      1  0.4988890000000  0.5277920000000  0.4992090000000 1.0
C      1  0.5110430000000  0.4248940000000  0.5583270000000 1.0
C      1  0.5324220000000  0.5636730000000  0.4882710000000 1.0
C      1  0.5259130000000  0.5443730000000  0.4201980000000 1.0
C      1  0.5107640000000  0.5505660000000  0.5337520000000 1.0
C      1  0.4975740000000  0.4894420000000  0.5783590000000 1.0
C      1  0.5248810000000  0.4700020000000  0.5020120000000 1.0
C      1  0.4717800000000  0.5378200000000  0.4973960000000 1.0
C      1  0.4944980000000  0.5240540000000  0.5304960000000 1.0
C      1  0.4928680000000  0.5139780000000  0.4091390000000 1.0
C      1  0.4367370000000  0.5641140000000  0.5141080000000 1.0
C      1  0.4827940000000  0.4752120000000  0.5199440000000 1.0
C      1  0.4476620000000  0.4208000000000  0.4854600000000 1.0
C      1  0.4371000000000  0.5321350000000  0.5601510000000 1.0
C      1  0.4649970000000  0.5269120000000  0.5250750000000 1.0
C      1  0.4576280000000  0.5846620000000  0.5072430000000 1.0
C      1  0.4715550000000  0.4946980000000  0.5676830000000 1.0
C      1  0.5558820000000  0.4533190000000  0.4486880000000 1.0
C      1  0.4436860000000  0.5480470000000  0.4526860000000 1.0
C      1  0.4500240000000  0.5107190000000  0.4262860000000 1.0
END
