TITL C-144794-3254-4 -0.0661012323805063 125000 -972.44209080974 0 0 137 (C1) n - 1
REM
REM in /rds/project/t2_vol4/rds-t2-cs072/BORA/CARBON/from-Arr/AIRSS/Generating-Clusters/GAP-ML-2020/Only-C1/SD-CG/HFTN-CG
REM
REM
REM
REM
REM
REM ./C.cell (11c1c37f851c82e70ff6c80c92926a4b)
REM AIRSS Version 0.9.1 bugfix July 2018 build 013d7b7c2542+ Fri, 06 Jul 2018 19:26:36 +0100
REM compiler GCC version 9.3.0
REM options -cpp -mtune=generic -march=x86-64 -g -O0
REM seed 1631688322 -42297493 170771943 1808049406 -661248990 -2016768075 -1213260893 -182693654 1736596723 -1070307660 1792001185 -1030123460 -1844033254 389552321 280374362 -1733974418 1816310993 364225347 982847365 2059843676 -1169616757 -629319918 -699748106 -1433963343 1379555475 2010245422 -1900262027 -1702839787 -1284901097 -925137737 987197107 -317647622 -919472377
REM
CELL 1.54180   50.00000   50.00000   50.00000   90.00000   90.00000   90.00000
LATT -1
SFAC C  
C      1  0.5270720000000  0.5279410000000  0.5294080000000 1.0
C      1  0.5223950000000  0.4229010000000  0.5545210000000 1.0
C      1  0.4229900000000  0.5374260000000  0.4447630000000 1.0
C      1  0.4762740000000  0.5877190000000  0.4690520000000 1.0
C      1  0.4977050000000  0.5918600000000  0.5157800000000 1.0
C      1  0.5880470000000  0.4831010000000  0.5598290000000 1.0
C      1  0.5221610000000  0.4121190000000  0.4669660000000 1.0
C      1  0.4955100000000  0.5564620000000  0.5833330000000 1.0
C      1  0.4446510000000  0.4110610000000  0.5080350000000 1.0
C      1  0.3948390000000  0.5134530000000  0.4795310000000 1.0
C      1  0.5864090000000  0.4507500000000  0.4805920000000 1.0
C      1  0.5492910000000  0.4311680000000  0.5580130000000 1.0
C      1  0.4096010000000  0.5519040000000  0.5101770000000 1.0
C      1  0.4682520000000  0.5338330000000  0.5209520000000 1.0
C      1  0.4737690000000  0.4086160000000  0.4670640000000 1.0
C      1  0.4335900000000  0.4798620000000  0.4916440000000 1.0
C      1  0.4956750000000  0.4106830000000  0.5109070000000 1.0
C      1  0.5147420000000  0.5362020000000  0.5068360000000 1.0
C      1  0.5682450000000  0.5518670000000  0.4644420000000 1.0
C      1  0.4498430000000  0.4418660000000  0.4431150000000 1.0
C      1  0.4299880000000  0.5436520000000  0.5581450000000 1.0
C      1  0.4346540000000  0.5575090000000  0.4935590000000 1.0
C      1  0.5875840000000  0.4895570000000  0.4501910000000 1.0
C      1  0.5877000000000  0.4421760000000  0.5310260000000 1.0
C      1  0.5174360000000  0.5473900000000  0.4348970000000 1.0
C      1  0.4684300000000  0.5883630000000  0.5220960000000 1.0
C      1  0.5294120000000  0.4862990000000  0.4043940000000 1.0
C      1  0.5055240000000  0.4883970000000  0.4489980000000 1.0
C      1  0.5943220000000  0.4775610000000  0.4738920000000 1.0
C      1  0.4979280000000  0.4065810000000  0.4819240000000 1.0
C      1  0.5877830000000  0.5173460000000  0.4532970000000 1.0
C      1  0.4606010000000  0.4334020000000  0.5466830000000 1.0
C      1  0.4511830000000  0.4666390000000  0.4273150000000 1.0
C      1  0.5461330000000  0.4988890000000  0.5884030000000 1.0
C      1  0.5642170000000  0.4793010000000  0.5770790000000 1.0
C      1  0.4649010000000  0.4884640000000  0.4788540000000 1.0
C      1  0.5960250000000  0.4590020000000  0.5507410000000 1.0
C      1  0.5228740000000  0.4582770000000  0.5853920000000 1.0
C      1  0.5538900000000  0.5226110000000  0.4190750000000 1.0
C      1  0.4491760000000  0.4122260000000  0.4800570000000 1.0
C      1  0.5445290000000  0.4173780000000  0.5124690000000 1.0
C      1  0.4939870000000  0.5772540000000  0.5613360000000 1.0
C      1  0.4374200000000  0.4924530000000  0.5661990000000 1.0
C      1  0.5216750000000  0.4598760000000  0.4093340000000 1.0
C      1  0.4207390000000  0.5381280000000  0.5321520000000 1.0
C      1  0.4292250000000  0.4752200000000  0.5441110000000 1.0
C      1  0.5123590000000  0.5320550000000  0.4613700000000 1.0
C      1  0.6039420000000  0.5082880000000  0.5175000000000 1.0
C      1  0.4824170000000  0.5055110000000  0.4099450000000 1.0
C      1  0.5189800000000  0.4237470000000  0.4399390000000 1.0
C      1  0.4884290000000  0.5233510000000  0.5016100000000 1.0
C      1  0.4523250000000  0.6057420000000  0.5042300000000 1.0
C      1  0.4386870000000  0.5610450000000  0.4446410000000 1.0
C      1  0.4586190000000  0.5162830000000  0.4685210000000 1.0
C      1  0.4652550000000  0.5267640000000  0.4221740000000 1.0
C      1  0.4641240000000  0.4506660000000  0.5075380000000 1.0
C      1  0.5110220000000  0.5087120000000  0.4041600000000 1.0
C      1  0.5452320000000  0.4191970000000  0.4828280000000 1.0
C      1  0.4336750000000  0.4874980000000  0.4348580000000 1.0
C      1  0.5933510000000  0.4562700000000  0.5075480000000 1.0
C      1  0.4743220000000  0.4750160000000  0.4123980000000 1.0
C      1  0.5543230000000  0.5208940000000  0.5250670000000 1.0
C      1  0.4375920000000  0.4356520000000  0.4684070000000 1.0
C      1  0.5212000000000  0.4740070000000  0.5280720000000 1.0
C      1  0.4439810000000  0.5156720000000  0.4396720000000 1.0
C      1  0.5546210000000  0.5677080000000  0.5579780000000 1.0
C      1  0.5016100000000  0.5892820000000  0.4865760000000 1.0
C      1  0.4713700000000  0.4234330000000  0.4423740000000 1.0
C      1  0.5128270000000  0.5871100000000  0.5403010000000 1.0
C      1  0.4349320000000  0.4512390000000  0.4932320000000 1.0
C      1  0.5054560000000  0.4387950000000  0.5718210000000 1.0
C      1  0.5063140000000  0.5151880000000  0.5447520000000 1.0
C      1  0.4007500000000  0.5361110000000  0.4618470000000 1.0
C      1  0.5227820000000  0.5815370000000  0.4688670000000 1.0
C      1  0.4885130000000  0.4730270000000  0.4645580000000 1.0
C      1  0.4813010000000  0.5287030000000  0.5463880000000 1.0
C      1  0.5019950000000  0.5078120000000  0.5978960000000 1.0
C      1  0.4935390000000  0.4300600000000  0.4276620000000 1.0
C      1  0.4638310000000  0.5567560000000  0.4307280000000 1.0
C      1  0.4409310000000  0.5191520000000  0.5172680000000 1.0
C      1  0.4348870000000  0.4466330000000  0.5407080000000 1.0
C      1  0.5401770000000  0.5851420000000  0.5464160000000 1.0
C      1  0.5634130000000  0.4261470000000  0.5334650000000 1.0
C      1  0.5193950000000  0.4139360000000  0.5261990000000 1.0
C      1  0.4671650000000  0.5518930000000  0.5868870000000 1.0
C      1  0.4267430000000  0.4339460000000  0.5160420000000 1.0
C      1  0.5601690000000  0.4422380000000  0.4697870000000 1.0
C      1  0.5580540000000  0.4957340000000  0.5078900000000 1.0
C      1  0.4503460000000  0.5638240000000  0.5666500000000 1.0
C      1  0.5371580000000  0.4627830000000  0.4745540000000 1.0
C      1  0.4693450000000  0.4220050000000  0.5202600000000 1.0
C      1  0.4799040000000  0.4744420000000  0.5524980000000 1.0
C      1  0.3941270000000  0.5393420000000  0.4899800000000 1.0
C      1  0.5548950000000  0.4940410000000  0.4152430000000 1.0
C      1  0.4637620000000  0.4862070000000  0.5742950000000 1.0
C      1  0.4824930000000  0.5771580000000  0.4414960000000 1.0
C      1  0.4508160000000  0.5985290000000  0.4782980000000 1.0
C      1  0.4942150000000  0.4541570000000  0.4115180000000 1.0
C      1  0.6025010000000  0.5304150000000  0.5006040000000 1.0
C      1  0.5461300000000  0.5655780000000  0.4764600000000 1.0
C      1  0.5372110000000  0.4903860000000  0.4847260000000 1.0
C      1  0.5100750000000  0.5738840000000  0.4425510000000 1.0
C      1  0.5213850000000  0.4861330000000  0.5952540000000 1.0
C      1  0.5276540000000  0.5449190000000  0.4833500000000 1.0
C      1  0.4393040000000  0.4893740000000  0.5199790000000 1.0
C      1  0.5589070000000  0.4511920000000  0.4404410000000 1.0
C      1  0.5233470000000  0.5046390000000  0.4626950000000 1.0
C      1  0.4119070000000  0.4822290000000  0.4500740000000 1.0
C      1  0.5693680000000  0.4766570000000  0.4323710000000 1.0
C      1  0.4093360000000  0.4896190000000  0.4760630000000 1.0
C      1  0.5363810000000  0.4421600000000  0.4267810000000 1.0
C      1  0.4674200000000  0.5814600000000  0.5521660000000 1.0
C      1  0.4833750000000  0.4925130000000  0.5028660000000 1.0
C      1  0.5722950000000  0.5264810000000  0.5462860000000 1.0
C      1  0.5484030000000  0.4753520000000  0.5263130000000 1.0
C      1  0.5066040000000  0.4870180000000  0.5480340000000 1.0
C      1  0.4390850000000  0.5275370000000  0.4886690000000 1.0
C      1  0.5084090000000  0.4589910000000  0.4809810000000 1.0
C      1  0.5422170000000  0.5279940000000  0.5855760000000 1.0
C      1  0.4826700000000  0.5338610000000  0.4744200000000 1.0
C      1  0.4797880000000  0.4463150000000  0.5623960000000 1.0
C      1  0.5140370000000  0.5343820000000  0.5914430000000 1.0
C      1  0.5605850000000  0.5426970000000  0.5677450000000 1.0
C      1  0.4346180000000  0.5753200000000  0.4696870000000 1.0
C      1  0.4611340000000  0.5617140000000  0.5079650000000 1.0
C      1  0.5697270000000  0.5345510000000  0.4398100000000 1.0
C      1  0.5908950000000  0.4861940000000  0.5023400000000 1.0
C      1  0.5887530000000  0.5342610000000  0.4775280000000 1.0
C      1  0.4347520000000  0.5201270000000  0.5739680000000 1.0
C      1  0.5497100000000  0.4540040000000  0.5766120000000 1.0
C      1  0.5100070000000  0.4787590000000  0.5021890000000 1.0
C      1  0.4744180000000  0.5045790000000  0.5933180000000 1.0
C      1  0.5269150000000  0.5312180000000  0.4135850000000 1.0
C      1  0.4766690000000  0.5615730000000  0.4836670000000 1.0
C      1  0.4675110000000  0.4767630000000  0.5228450000000 1.0
C      1  0.5935260000000  0.5076460000000  0.5449880000000 1.0
C      1  0.4569030000000  0.5263150000000  0.5917630000000 1.0
END
