TITL C-140204-7283-1 0.0526649122948529 125000 -736.307816153401 0 0 107 (C1) n - 1
REM
REM in /rds/project/t2_vol4/rds-t2-cs072/BORA/CARBON/from-Arr/AIRSS/Generating-Clusters/GAP-ML-2020/Only-C1/SD-CG/HFTN-CG
REM
REM
REM
REM
REM
REM ./C.cell (11c1c37f851c82e70ff6c80c92926a4b)
REM AIRSS Version 0.9.1 bugfix July 2018 build 013d7b7c2542+ Fri, 06 Jul 2018 19:26:36 +0100
REM compiler GCC version 9.3.0
REM options -cpp -mtune=generic -march=x86-64 -g -O0
REM seed -1909462939 1344049759 -347465139 -92101335 113778772 -1105900553 -1832349312 -1692334201 -574023541 1055434844 370311335 1224937068 2005812780 -110225080 1050086432 -471282939 -2106246989 1354190565 504804324 1201385896 736529850 777370972 -1966691870 -1990688281 1548126216 -67942487 927503632 1457611682 1987640003 1702363856 -1444964921 1010919244 1761281446
REM
CELL 1.54180   50.00000   50.00000   50.00000   90.00000   90.00000   90.00000
LATT -1
SFAC C  
C      1  0.4445960000000  0.5354050000000  0.5466910000000 1.0
C      1  0.4966660000000  0.4755380000000  0.4168330000000 1.0
C      1  0.5022360000000  0.5407540000000  0.5810810000000 1.0
C      1  0.5054370000000  0.5616630000000  0.5614490000000 1.0
C      1  0.5115590000000  0.4997400000000  0.4231950000000 1.0
C      1  0.4828080000000  0.5715750000000  0.5466340000000 1.0
C      1  0.4597840000000  0.4897050000000  0.4358000000000 1.0
C      1  0.4876300000000  0.5177330000000  0.4694510000000 1.0
C      1  0.4192510000000  0.5029860000000  0.4885170000000 1.0
C      1  0.5236940000000  0.5259010000000  0.5934580000000 1.0
C      1  0.4553180000000  0.5619300000000  0.5435240000000 1.0
C      1  0.4668560000000  0.4874630000000  0.5553750000000 1.0
C      1  0.5711410000000  0.4723240000000  0.5325950000000 1.0
C      1  0.4864850000000  0.4476140000000  0.4647080000000 1.0
C      1  0.5237700000000  0.5293960000000  0.4943430000000 1.0
C      1  0.4256660000000  0.4917310000000  0.5339800000000 1.0
C      1  0.4243580000000  0.5487840000000  0.4912120000000 1.0
C      1  0.5090380000000  0.4836820000000  0.4975100000000 1.0
C      1  0.4539600000000  0.5776180000000  0.5188870000000 1.0
C      1  0.4763440000000  0.5397160000000  0.5047270000000 1.0
C      1  0.4328790000000  0.4840150000000  0.5058690000000 1.0
C      1  0.4682700000000  0.4709490000000  0.4178880000000 1.0
C      1  0.5724200000000  0.5513420000000  0.4931560000000 1.0
C      1  0.4397810000000  0.4440380000000  0.4487950000000 1.0
C      1  0.5685800000000  0.5481910000000  0.4653510000000 1.0
C      1  0.4733670000000  0.4688660000000  0.5304250000000 1.0
C      1  0.4717290000000  0.4461250000000  0.5690090000000 1.0
C      1  0.4248880000000  0.5206180000000  0.5321520000000 1.0
C      1  0.4856970000000  0.4983170000000  0.5946060000000 1.0
C      1  0.4414950000000  0.5373580000000  0.4433110000000 1.0
C      1  0.5157710000000  0.4799580000000  0.5758870000000 1.0
C      1  0.5832600000000  0.4971720000000  0.4594870000000 1.0
C      1  0.4615190000000  0.4446550000000  0.4290420000000 1.0
C      1  0.5119780000000  0.5093660000000  0.5156350000000 1.0
C      1  0.5093590000000  0.5441060000000  0.4352350000000 1.0
C      1  0.5744730000000  0.4752060000000  0.4437870000000 1.0
C      1  0.5835660000000  0.4882300000000  0.5129310000000 1.0
C      1  0.5295660000000  0.5776490000000  0.4718920000000 1.0
C      1  0.4890050000000  0.4252020000000  0.5704240000000 1.0
C      1  0.5130700000000  0.4989590000000  0.5992860000000 1.0
C      1  0.4367190000000  0.4342340000000  0.4967140000000 1.0
C      1  0.5631350000000  0.5047710000000  0.5675040000000 1.0
C      1  0.5629320000000  0.4775170000000  0.5595470000000 1.0
C      1  0.5349420000000  0.4847630000000  0.4837040000000 1.0
C      1  0.5847270000000  0.4803870000000  0.4843640000000 1.0
C      1  0.5523520000000  0.4761050000000  0.4263610000000 1.0
C      1  0.5481060000000  0.4794830000000  0.5159260000000 1.0
C      1  0.5906090000000  0.5391240000000  0.5091810000000 1.0
C      1  0.5096000000000  0.4117030000000  0.4755600000000 1.0
C      1  0.4394020000000  0.5087010000000  0.4411170000000 1.0
C      1  0.4741630000000  0.4736910000000  0.4626140000000 1.0
C      1  0.5505790000000  0.5437260000000  0.5574430000000 1.0
C      1  0.4970130000000  0.5411230000000  0.4858270000000 1.0
C      1  0.5368090000000  0.5707030000000  0.5220950000000 1.0
C      1  0.5190610000000  0.5010120000000  0.5557510000000 1.0
C      1  0.4519820000000  0.4496400000000  0.5448960000000 1.0
C      1  0.4923630000000  0.4444750000000  0.5255040000000 1.0
C      1  0.5125580000000  0.4539180000000  0.5066580000000 1.0
C      1  0.5836470000000  0.5162370000000  0.5222740000000 1.0
C      1  0.5484320000000  0.5265750000000  0.5804320000000 1.0
C      1  0.5005780000000  0.5707420000000  0.4718630000000 1.0
C      1  0.4805210000000  0.5161510000000  0.5216430000000 1.0
C      1  0.5347960000000  0.5020660000000  0.5323240000000 1.0
C      1  0.5363780000000  0.5488370000000  0.4327360000000 1.0
C      1  0.5696470000000  0.4599260000000  0.4685060000000 1.0
C      1  0.4498260000000  0.4301560000000  0.5220850000000 1.0
C      1  0.5344380000000  0.4567860000000  0.4376330000000 1.0
C      1  0.5093430000000  0.4520980000000  0.4251850000000 1.0
C      1  0.4236750000000  0.4949290000000  0.4611940000000 1.0
C      1  0.5085930000000  0.5163670000000  0.4483820000000 1.0
C      1  0.5371930000000  0.4536140000000  0.5222200000000 1.0
C      1  0.5448500000000  0.5503710000000  0.5043130000000 1.0
C      1  0.5149530000000  0.4416730000000  0.4793610000000 1.0
C      1  0.5012530000000  0.4099840000000  0.4489050000000 1.0
C      1  0.5054710000000  0.4335230000000  0.5495700000000 1.0
C      1  0.4396340000000  0.4755450000000  0.5522170000000 1.0
C      1  0.4264260000000  0.4656930000000  0.4626440000000 1.0
C      1  0.4896500000000  0.4344500000000  0.4377590000000 1.0
C      1  0.5402110000000  0.5008320000000  0.4185120000000 1.0
C      1  0.4627100000000  0.5584280000000  0.4450100000000 1.0
C      1  0.4813840000000  0.5222260000000  0.5786660000000 1.0
C      1  0.5521280000000  0.5245830000000  0.4285660000000 1.0
C      1  0.4672120000000  0.4901650000000  0.5091020000000 1.0
C      1  0.5645770000000  0.5209650000000  0.4548310000000 1.0
C      1  0.4979510000000  0.5885630000000  0.4981070000000 1.0
C      1  0.4900420000000  0.5631160000000  0.4444670000000 1.0
C      1  0.5268540000000  0.5861490000000  0.5004130000000 1.0
C      1  0.4814940000000  0.5859920000000  0.5207160000000 1.0
C      1  0.4828860000000  0.4909490000000  0.4831390000000 1.0
C      1  0.4268380000000  0.4597490000000  0.4908140000000 1.0
C      1  0.5609980000000  0.5201150000000  0.5412970000000 1.0
C      1  0.5313160000000  0.4449010000000  0.5486560000000 1.0
C      1  0.4761650000000  0.4228160000000  0.5146420000000 1.0
C      1  0.5476260000000  0.5642340000000  0.4544720000000 1.0
C      1  0.4491260000000  0.5708090000000  0.4674370000000 1.0
C      1  0.4264970000000  0.5515670000000  0.4632110000000 1.0
C      1  0.4855900000000  0.4083780000000  0.4922370000000 1.0
C      1  0.5380530000000  0.4573800000000  0.4668780000000 1.0
C      1  0.5339330000000  0.5121510000000  0.4708450000000 1.0
C      1  0.5316510000000  0.5630550000000  0.5492120000000 1.0
C      1  0.4430230000000  0.4242040000000  0.4705180000000 1.0
C      1  0.4162050000000  0.5260030000000  0.5043530000000 1.0
C      1  0.4684820000000  0.5174240000000  0.5519510000000 1.0
C      1  0.5396170000000  0.4635880000000  0.5674450000000 1.0
C      1  0.4512320000000  0.5603320000000  0.4963820000000 1.0
C      1  0.4692900000000  0.4245870000000  0.4766470000000 1.0
C      1  0.4832810000000  0.4743640000000  0.5753260000000 1.0
END
