TITL C-149900-8936-5 0.101978971181074 125000 -631.654319399945 0 0 91 (C1) n - 1
REM
REM in /rds/project/t2_vol4/rds-t2-cs072/BORA/CARBON/from-Arr/AIRSS/Generating-Clusters/GAP-ML-2020/Only-C1/SD-CG/HFTN-CG
REM
REM
REM
REM
REM
REM ./C.cell (11c1c37f851c82e70ff6c80c92926a4b)
REM AIRSS Version 0.9.1 bugfix July 2018 build 013d7b7c2542+ Fri, 06 Jul 2018 19:26:36 +0100
REM compiler GCC version 9.3.0
REM options -cpp -mtune=generic -march=x86-64 -g -O0
REM seed -869053689 1937887680 1017624228 -1149884313 1610806682 1616356276 976049291 -1330573140 -533187584 -770146595 1921077710 7913186 -794066859 -443211903 -1669341688 -1177606687 1062133018 -1161127226 -114380435 -226442828 -1484832029 211249230 -213496960 -73439359 -1092150903 -1076607656 -1970125091 1682250750 -2067344318 -1760477829 1663335555 1793840583 -606045952
REM
CELL 1.54180   50.00000   50.00000   50.00000   90.00000   90.00000   90.00000
LATT -1
SFAC C  
C      1  0.4709700000000  0.5014900000000  0.5642030000000 1.0
C      1  0.5282310000000  0.5085900000000  0.5816310000000 1.0
C      1  0.5221340000000  0.5349130000000  0.4903990000000 1.0
C      1  0.5598590000000  0.5282470000000  0.5472520000000 1.0
C      1  0.4308970000000  0.4908530000000  0.4595080000000 1.0
C      1  0.4708070000000  0.5652780000000  0.5391570000000 1.0
C      1  0.4377230000000  0.4871390000000  0.5064140000000 1.0
C      1  0.5636130000000  0.4861800000000  0.4631400000000 1.0
C      1  0.5725210000000  0.5152020000000  0.5240180000000 1.0
C      1  0.5476530000000  0.4382810000000  0.4773280000000 1.0
C      1  0.5332920000000  0.5811170000000  0.4785350000000 1.0
C      1  0.5521750000000  0.4796540000000  0.4373960000000 1.0
C      1  0.5117060000000  0.4850120000000  0.5860210000000 1.0
C      1  0.4843850000000  0.4274550000000  0.4562580000000 1.0
C      1  0.4606290000000  0.4310270000000  0.4969020000000 1.0
C      1  0.5661530000000  0.5147400000000  0.4699710000000 1.0
C      1  0.5363230000000  0.4345840000000  0.4517740000000 1.0
C      1  0.4849730000000  0.4955720000000  0.4055300000000 1.0
C      1  0.5516600000000  0.5733110000000  0.4979410000000 1.0
C      1  0.5058490000000  0.4834300000000  0.4752070000000 1.0
C      1  0.5704340000000  0.5253370000000  0.4968210000000 1.0
C      1  0.4474310000000  0.4884970000000  0.4359650000000 1.0
C      1  0.5081750000000  0.4241030000000  0.5002160000000 1.0
C      1  0.5365530000000  0.4205240000000  0.4983410000000 1.0
C      1  0.4527000000000  0.5524790000000  0.4628970000000 1.0
C      1  0.4326260000000  0.4764390000000  0.5342680000000 1.0
C      1  0.5341550000000  0.4971130000000  0.4240270000000 1.0
C      1  0.4305190000000  0.4985700000000  0.5504180000000 1.0
C      1  0.4628740000000  0.4779390000000  0.5814960000000 1.0
C      1  0.5509910000000  0.5454360000000  0.4968330000000 1.0
C      1  0.4358240000000  0.5405800000000  0.5143990000000 1.0
C      1  0.5556680000000  0.4703090000000  0.5108200000000 1.0
C      1  0.5285060000000  0.4667580000000  0.5244300000000 1.0
C      1  0.4248600000000  0.5166710000000  0.4716550000000 1.0
C      1  0.5583180000000  0.4823180000000  0.5548300000000 1.0
C      1  0.5077890000000  0.5343760000000  0.4337990000000 1.0
C      1  0.4758350000000  0.5867560000000  0.4936050000000 1.0
C      1  0.4479900000000  0.4531910000000  0.5426720000000 1.0
C      1  0.4767200000000  0.5343040000000  0.4686500000000 1.0
C      1  0.5140160000000  0.5769470000000  0.5218620000000 1.0
C      1  0.5075110000000  0.4834030000000  0.4206340000000 1.0
C      1  0.5010760000000  0.5525270000000  0.4765260000000 1.0
C      1  0.4646740000000  0.4551210000000  0.5662670000000 1.0
C      1  0.4330730000000  0.4719780000000  0.4808130000000 1.0
C      1  0.4654340000000  0.5072420000000  0.4215550000000 1.0
C      1  0.5129130000000  0.4929270000000  0.5301450000000 1.0
C      1  0.5479220000000  0.4309530000000  0.5467900000000 1.0
C      1  0.5149950000000  0.4608490000000  0.5712690000000 1.0
C      1  0.4612610000000  0.4445200000000  0.4530370000000 1.0
C      1  0.5524370000000  0.5069660000000  0.5661630000000 1.0
C      1  0.4488750000000  0.5181200000000  0.5567610000000 1.0
C      1  0.5045820000000  0.5786500000000  0.4923310000000 1.0
C      1  0.4527750000000  0.5748280000000  0.4796980000000 1.0
C      1  0.5385980000000  0.4588610000000  0.5534560000000 1.0
C      1  0.5383600000000  0.5634160000000  0.4550640000000 1.0
C      1  0.5518020000000  0.5355750000000  0.4517510000000 1.0
C      1  0.5057320000000  0.4503040000000  0.5134540000000 1.0
C      1  0.5188050000000  0.5532980000000  0.5607570000000 1.0
C      1  0.4908920000000  0.4690010000000  0.4949590000000 1.0
C      1  0.5101080000000  0.5089940000000  0.4877840000000 1.0
C      1  0.4392350000000  0.5670180000000  0.5041960000000 1.0
C      1  0.5163480000000  0.5331570000000  0.5787500000000 1.0
C      1  0.4847510000000  0.4202990000000  0.4843640000000 1.0
C      1  0.4616640000000  0.5814070000000  0.5182340000000 1.0
C      1  0.4668570000000  0.4689860000000  0.4407120000000 1.0
C      1  0.5119000000000  0.5575040000000  0.4491090000000 1.0
C      1  0.4916280000000  0.4473670000000  0.5607670000000 1.0
C      1  0.5408990000000  0.5696770000000  0.5243040000000 1.0
C      1  0.5427220000000  0.4538500000000  0.4316940000000 1.0
C      1  0.4786540000000  0.5146920000000  0.4921800000000 1.0
C      1  0.5079430000000  0.4330780000000  0.4413600000000 1.0
C      1  0.4847470000000  0.4920560000000  0.5892460000000 1.0
C      1  0.5471560000000  0.4190270000000  0.5241890000000 1.0
C      1  0.4292610000000  0.5395070000000  0.4574040000000 1.0
C      1  0.4458530000000  0.4464300000000  0.4769290000000 1.0
C      1  0.5128520000000  0.5179730000000  0.5155590000000 1.0
C      1  0.5595620000000  0.4645740000000  0.4832370000000 1.0
C      1  0.4833200000000  0.4947770000000  0.5341180000000 1.0
C      1  0.4820260000000  0.5229820000000  0.5207030000000 1.0
C      1  0.4899990000000  0.4373890000000  0.5340660000000 1.0
C      1  0.5339680000000  0.5235220000000  0.4323070000000 1.0
C      1  0.5153090000000  0.4538510000000  0.4217560000000 1.0
C      1  0.4280700000000  0.5161510000000  0.5006830000000 1.0
C      1  0.4920560000000  0.4873510000000  0.4484730000000 1.0
C      1  0.5446180000000  0.5524880000000  0.5468570000000 1.0
C      1  0.4704750000000  0.4880570000000  0.5061060000000 1.0
C      1  0.4993080000000  0.5686590000000  0.5445110000000 1.0
C      1  0.4846340000000  0.5182990000000  0.4430490000000 1.0
C      1  0.4572780000000  0.5380800000000  0.5356310000000 1.0
C      1  0.4624720000000  0.4361660000000  0.5246870000000 1.0
C      1  0.5690670000000  0.4873720000000  0.5290170000000 1.0
END
