TITL C-142166-2757-3 -0.0246560263098711 125000 -848.983724614207 0 0 122 (C1) n - 1
REM
REM in /rds/project/t2_vol4/rds-t2-cs072/BORA/CARBON/from-Arr/AIRSS/Generating-Clusters/GAP-ML-2020/Only-C1/SD-CG/HFTN-CG
REM
REM
REM
REM
REM
REM ./C.cell (11c1c37f851c82e70ff6c80c92926a4b)
REM AIRSS Version 0.9.1 bugfix July 2018 build 013d7b7c2542+ Fri, 06 Jul 2018 19:26:36 +0100
REM compiler GCC version 9.3.0
REM options -cpp -mtune=generic -march=x86-64 -g -O0
REM seed -555787557 -568089388 -1004355619 -13506278 472062431 1479638266 -1739188768 -1079702935 -1448755332 -1748021787 1188408588 -1729549501 -1089603125 1755086556 400303 -1190313890 -1701943569 -942111136 1799996205 -625452953 -837063078 1492165904 755617939 -1571410302 1490294313 1468480386 -1892513173 1512760159 932968449 -98723781 1352929165 842150190 544408383
REM
CELL 1.54180   50.00000   50.00000   50.00000   90.00000   90.00000   90.00000
LATT -1
SFAC C  
C      1  0.4666300000000  0.4862490000000  0.5645160000000 1.0
C      1  0.4862740000000  0.4236650000000  0.5543340000000 1.0
C      1  0.4360080000000  0.4994770000000  0.5094520000000 1.0
C      1  0.4454900000000  0.5657720000000  0.5195340000000 1.0
C      1  0.5798760000000  0.5045990000000  0.4660870000000 1.0
C      1  0.4773140000000  0.4336490000000  0.4841730000000 1.0
C      1  0.4806590000000  0.3981040000000  0.5046050000000 1.0
C      1  0.5913130000000  0.4940900000000  0.4899010000000 1.0
C      1  0.5082160000000  0.5175710000000  0.4287040000000 1.0
C      1  0.4173260000000  0.4882120000000  0.5612190000000 1.0
C      1  0.4244580000000  0.4409140000000  0.4642200000000 1.0
C      1  0.5395650000000  0.5921810000000  0.5023890000000 1.0
C      1  0.5343810000000  0.4473730000000  0.5678900000000 1.0
C      1  0.4974230000000  0.5937010000000  0.4422990000000 1.0
C      1  0.5369690000000  0.5160910000000  0.4994160000000 1.0
C      1  0.4974510000000  0.4953110000000  0.4865620000000 1.0
C      1  0.5172800000000  0.4937610000000  0.4137620000000 1.0
C      1  0.5657250000000  0.4574930000000  0.4470750000000 1.0
C      1  0.5475140000000  0.4926400000000  0.5858570000000 1.0
C      1  0.5253380000000  0.5888470000000  0.4433240000000 1.0
C      1  0.5056900000000  0.5136170000000  0.5865430000000 1.0
C      1  0.5718550000000  0.4450840000000  0.4980570000000 1.0
C      1  0.4043400000000  0.5366400000000  0.4845570000000 1.0
C      1  0.4745040000000  0.4995280000000  0.4709250000000 1.0
C      1  0.4723200000000  0.4530200000000  0.4636580000000 1.0
C      1  0.5791000000000  0.5144780000000  0.5557080000000 1.0
C      1  0.5568100000000  0.4461380000000  0.5490230000000 1.0
C      1  0.5468870000000  0.5418730000000  0.4566070000000 1.0
C      1  0.4087760000000  0.4857670000000  0.4722610000000 1.0
C      1  0.5436820000000  0.5995680000000  0.4599170000000 1.0
C      1  0.4388370000000  0.5697360000000  0.4896960000000 1.0
C      1  0.4558100000000  0.4773800000000  0.4710490000000 1.0
C      1  0.4646150000000  0.5426150000000  0.5284910000000 1.0
C      1  0.4779110000000  0.4596310000000  0.4181160000000 1.0
C      1  0.5290390000000  0.4267560000000  0.5128950000000 1.0
C      1  0.4939480000000  0.4101190000000  0.4796040000000 1.0
C      1  0.4072010000000  0.5104390000000  0.5168930000000 1.0
C      1  0.5362920000000  0.4912870000000  0.5149330000000 1.0
C      1  0.5734700000000  0.4863280000000  0.4446560000000 1.0
C      1  0.4318630000000  0.4893050000000  0.4556400000000 1.0
C      1  0.4178520000000  0.4600060000000  0.4833520000000 1.0
C      1  0.4199640000000  0.5554650000000  0.5312490000000 1.0
C      1  0.4667470000000  0.5261920000000  0.4813980000000 1.0
C      1  0.4217910000000  0.4614050000000  0.5568900000000 1.0
C      1  0.4808680000000  0.5284730000000  0.4282740000000 1.0
C      1  0.4677120000000  0.4417910000000  0.5660390000000 1.0
C      1  0.5637320000000  0.5383820000000  0.5523220000000 1.0
C      1  0.4393750000000  0.5129520000000  0.4418980000000 1.0
C      1  0.5615740000000  0.4400740000000  0.4705980000000 1.0
C      1  0.4042520000000  0.5408930000000  0.5127050000000 1.0
C      1  0.5445590000000  0.5772120000000  0.5263790000000 1.0
C      1  0.5121050000000  0.5860070000000  0.4961300000000 1.0
C      1  0.5137290000000  0.5197940000000  0.4817440000000 1.0
C      1  0.4056480000000  0.5106440000000  0.5460720000000 1.0
C      1  0.5554310000000  0.4354500000000  0.5212200000000 1.0
C      1  0.5099900000000  0.4396010000000  0.5564270000000 1.0
C      1  0.4917990000000  0.4154590000000  0.4490770000000 1.0
C      1  0.5378340000000  0.4240170000000  0.4666950000000 1.0
C      1  0.5252790000000  0.4453550000000  0.4227370000000 1.0
C      1  0.4674580000000  0.5399390000000  0.5591690000000 1.0
C      1  0.4437630000000  0.4479420000000  0.5490850000000 1.0
C      1  0.4798200000000  0.4397890000000  0.5116590000000 1.0
C      1  0.4930700000000  0.5372810000000  0.5719620000000 1.0
C      1  0.4464060000000  0.5367580000000  0.4581510000000 1.0
C      1  0.4632320000000  0.4822180000000  0.4149260000000 1.0
C      1  0.5230490000000  0.4889700000000  0.5395530000000 1.0
C      1  0.5290600000000  0.4710940000000  0.5852130000000 1.0
C      1  0.5936840000000  0.5047340000000  0.5337500000000 1.0
C      1  0.5049910000000  0.4641470000000  0.5403400000000 1.0
C      1  0.4423490000000  0.5000860000000  0.5704730000000 1.0
C      1  0.4914420000000  0.5497570000000  0.5173060000000 1.0
C      1  0.3996450000000  0.5070160000000  0.4877640000000 1.0
C      1  0.5245370000000  0.4700920000000  0.4996690000000 1.0
C      1  0.4692280000000  0.5493340000000  0.4443580000000 1.0
C      1  0.4597560000000  0.5079420000000  0.4233640000000 1.0
C      1  0.5789570000000  0.5393970000000  0.5006670000000 1.0
C      1  0.4415460000000  0.4719860000000  0.4995730000000 1.0
C      1  0.5759600000000  0.4670630000000  0.5537740000000 1.0
C      1  0.5281720000000  0.5628580000000  0.4572740000000 1.0
C      1  0.4683150000000  0.4355770000000  0.4392620000000 1.0
C      1  0.5192720000000  0.5773030000000  0.5418170000000 1.0
C      1  0.4578830000000  0.4578650000000  0.5221450000000 1.0
C      1  0.5009090000000  0.4558860000000  0.4620630000000 1.0
C      1  0.5366070000000  0.5396230000000  0.5148440000000 1.0
C      1  0.5410050000000  0.5399890000000  0.5694950000000 1.0
C      1  0.4426960000000  0.5288070000000  0.5673340000000 1.0
C      1  0.5145780000000  0.4751680000000  0.4756930000000 1.0
C      1  0.5696870000000  0.4938330000000  0.4163400000000 1.0
C      1  0.5063840000000  0.4658670000000  0.4145330000000 1.0
C      1  0.4399540000000  0.4311390000000  0.4461330000000 1.0
C      1  0.5884700000000  0.4683730000000  0.5044120000000 1.0
C      1  0.4972550000000  0.5793940000000  0.5201370000000 1.0
C      1  0.5697290000000  0.5321700000000  0.4723890000000 1.0
C      1  0.4594820000000  0.5171150000000  0.5098750000000 1.0
C      1  0.4806790000000  0.5753290000000  0.4577750000000 1.0
C      1  0.5931330000000  0.5162840000000  0.5082670000000 1.0
C      1  0.5337200000000  0.5178930000000  0.5862250000000 1.0
C      1  0.5612210000000  0.5509300000000  0.5250240000000 1.0
C      1  0.4689630000000  0.5856780000000  0.5127030000000 1.0
C      1  0.4196030000000  0.5361730000000  0.5532660000000 1.0
C      1  0.4255530000000  0.5510620000000  0.4729620000000 1.0
C      1  0.5054300000000  0.5096500000000  0.5334620000000 1.0
C      1  0.5591540000000  0.4715810000000  0.4025490000000 1.0
C      1  0.4785100000000  0.4670780000000  0.5812280000000 1.0
C      1  0.5047680000000  0.5666170000000  0.4751480000000 1.0
C      1  0.5703090000000  0.4907240000000  0.5698530000000 1.0
C      1  0.5438880000000  0.4943330000000  0.4029790000000 1.0
C      1  0.5160050000000  0.4317960000000  0.4467820000000 1.0
C      1  0.4940420000000  0.5413680000000  0.4884240000000 1.0
C      1  0.5538040000000  0.6062140000000  0.4827660000000 1.0
C      1  0.5134060000000  0.5371800000000  0.5316730000000 1.0
C      1  0.5910360000000  0.4762450000000  0.5315050000000 1.0
C      1  0.5230520000000  0.4143360000000  0.4880040000000 1.0
C      1  0.5526250000000  0.4513050000000  0.4219610000000 1.0
C      1  0.5240640000000  0.5247770000000  0.4527340000000 1.0
C      1  0.5094100000000  0.4495130000000  0.5157100000000 1.0
C      1  0.5024460000000  0.4828170000000  0.5873220000000 1.0
C      1  0.5163370000000  0.5518610000000  0.5581240000000 1.0
C      1  0.4626230000000  0.5837620000000  0.4837520000000 1.0
C      1  0.4761720000000  0.4776910000000  0.5357120000000 1.0
C      1  0.4836440000000  0.4997660000000  0.5170450000000 1.0
C      1  0.4796510000000  0.4133360000000  0.5267920000000 1.0
END
