TITL C-142780-1232-3 67.127150122091 125000 -713.213606674338 0 0 102 (C1) n - 1
REM
REM in /rds/project/t2_vol4/rds-t2-cs072/BORA/CARBON/from-Arr/AIRSS/Generating-Clusters/GAP-ML-2020/Only-C1/SD-CG/HFTN-CG
REM
REM
REM
REM
REM
REM ./C.cell (11c1c37f851c82e70ff6c80c92926a4b)
REM AIRSS Version 0.9.1 bugfix July 2018 build 013d7b7c2542+ Fri, 06 Jul 2018 19:26:36 +0100
REM compiler GCC version 9.3.0
REM options -cpp -mtune=generic -march=x86-64 -g -O0
REM seed -173586695 2129962321 1805073965 -1605465244 -1975970736 -1362953068 407451722 -842431642 -880667363 1947338203 209917789 -421225385 1743617152 1656946567 1782355056 -1558303716 486261918 -628955035 1389568577 1979317360 -120742456 1020833742 -1476057720 -1144112359 2042663218 1917213112 953659621 -926917773 -2141307175 -806876988 1475089868 385039069 -1028796980
REM
CELL 1.54180   50.00000   50.00000   50.00000   90.00000   90.00000   90.00000
LATT -1
SFAC C  
C      1  0.5052550000000  0.5416250000000  0.5365820000000 1.0
C      1  0.4171480000000  0.5115240000000  0.5227700000000 1.0
C      1  0.5491020000000  0.5221820000000  0.5515930000000 1.0
C      1  0.5165810000000  0.4925030000000  0.5259050000000 1.0
C      1  0.5144400000000  0.4721380000000  0.4128620000000 1.0
C      1  0.4679690000000  0.5595990000000  0.5723110000000 1.0
C      1  0.5830080000000  0.4677550000000  0.4806620000000 1.0
C      1  0.4879500000000  0.4628140000000  0.5981390000000 1.0
C      1  0.5558560000000  0.4434340000000  0.4602320000000 1.0
C      1  0.4913790000000  0.5612300000000  0.4882540000000 1.0
C      1  0.5112050000000  0.4158630000000  0.5115080000000 1.0
C      1  0.5605100000000  0.5387440000000  0.5009200000000 1.0
C      1  0.4480370000000  0.4346410000000  0.4731140000000 1.0
C      1  0.5308510000000  0.4353430000000  0.4496170000000 1.0
C      1  0.4325110000000  0.4999730000000  0.5448680000000 1.0
C      1  0.5109290000000  0.5559020000000  0.4460190000000 1.0
C      1  0.4965980000000  0.4520960000000  0.4220380000000 1.0
C      1  0.4859280000000  0.5459920000000  0.5162840000000 1.0
C      1  0.4781220000000  0.5215820000000  0.4227270000000 1.0
C      1  0.4842420000000  0.4466100000000  0.5560700000000 1.0
C      1  0.5120960000000  0.5206710000000  0.4857590000000 1.0
C      1  0.4181230000000  0.5452140000000  0.4903000000000 1.0
C      1  0.4191990000000  0.4386740000000  0.5135190000000 1.0
C      1  0.4960910000000  0.4191600000000  0.4857650000000 1.0
C      1  0.5761190000000  0.5628330000000  0.4927130000000 1.0
C      1  0.4468560000000  0.5178030000000  0.5635170000000 1.0
C      1  0.5720740000000  0.4814240000000  0.5407580000000 1.0
C      1  0.4264230000000  0.4772700000000  0.4821470000000 1.0
C      1  0.4619710000000  0.5693080000000  0.4907220000000 1.0
C      1  0.5120810000000  0.5635890000000  0.5529170000000 1.0
C      1  0.5401050000000  0.4436670000000  0.5484910000000 1.0
C      1  0.4584150000000  0.4452200000000  0.4492680000000 1.0
C      1  0.4958730000000  0.4769320000000  0.4768570000000 1.0
C      1  0.5308690000000  0.5325650000000  0.5055810000000 1.0
C      1  0.5054840000000  0.5211030000000  0.4138880000000 1.0
C      1  0.4950420000000  0.5534390000000  0.5731410000000 1.0
C      1  0.5252530000000  0.5209900000000  0.5322340000000 1.0
C      1  0.4096080000000  0.5210160000000  0.4772880000000 1.0
C      1  0.4406830000000  0.4508060000000  0.5263280000000 1.0
C      1  0.5325240000000  0.5847520000000  0.5100430000000 1.0
C      1  0.4475260000000  0.5463310000000  0.5596220000000 1.0
C      1  0.5310150000000  0.5678800000000  0.4619450000000 1.0
C      1  0.4951200000000  0.5249620000000  0.5818070000000 1.0
C      1  0.5275000000000  0.4569630000000  0.5700790000000 1.0
C      1  0.4827060000000  0.4853840000000  0.5798840000000 1.0
C      1  0.5695120000000  0.4426630000000  0.4869380000000 1.0
C      1  0.5645300000000  0.4546260000000  0.5365710000000 1.0
C      1  0.4294310000000  0.5219240000000  0.4253440000000 1.0
C      1  0.4541910000000  0.4732590000000  0.4447750000000 1.0
C      1  0.4567470000000  0.4860160000000  0.4880550000000 1.0
C      1  0.5307810000000  0.5784710000000  0.5393790000000 1.0
C      1  0.5854830000000  0.4936500000000  0.4914150000000 1.0
C      1  0.5460560000000  0.5361620000000  0.4306420000000 1.0
C      1  0.5018030000000  0.4479340000000  0.5784160000000 1.0
C      1  0.4967230000000  0.4046140000000  0.5330660000000 1.0
C      1  0.4260020000000  0.4479870000000  0.4881560000000 1.0
C      1  0.4750390000000  0.4895740000000  0.4604420000000 1.0
C      1  0.5558300000000  0.4958410000000  0.5603290000000 1.0
C      1  0.5707280000000  0.4687050000000  0.4542140000000 1.0
C      1  0.5789460000000  0.5116480000000  0.4690880000000 1.0
C      1  0.5818220000000  0.4994570000000  0.5197300000000 1.0
C      1  0.4298460000000  0.4849040000000  0.4542020000000 1.0
C      1  0.5049020000000  0.4256500000000  0.4595440000000 1.0
C      1  0.5756900000000  0.5268720000000  0.5233870000000 1.0
C      1  0.4842950000000  0.4366060000000  0.4418390000000 1.0
C      1  0.4419630000000  0.5545300000000  0.4774140000000 1.0
C      1  0.4608200000000  0.5632570000000  0.5186950000000 1.0
C      1  0.4970770000000  0.5387810000000  0.4660430000000 1.0
C      1  0.5236260000000  0.4985940000000  0.4163670000000 1.0
C      1  0.4447870000000  0.4739820000000  0.5432180000000 1.0
C      1  0.5178530000000  0.5759730000000  0.4869020000000 1.0
C      1  0.5666650000000  0.5429920000000  0.5454080000000 1.0
C      1  0.5101650000000  0.5003100000000  0.5817870000000 1.0
C      1  0.4832530000000  0.4288130000000  0.5356390000000 1.0
C      1  0.4577230000000  0.5140570000000  0.4927640000000 1.0
C      1  0.5247770000000  0.4496030000000  0.4260570000000 1.0
C      1  0.4510490000000  0.5282400000000  0.4658270000000 1.0
C      1  0.5584720000000  0.5689390000000  0.5384450000000 1.0
C      1  0.5290860000000  0.4828970000000  0.5030320000000 1.0
C      1  0.4271600000000  0.5139020000000  0.4536190000000 1.0
C      1  0.5680340000000  0.4963450000000  0.4469240000000 1.0
C      1  0.5198340000000  0.5436510000000  0.4226000000000 1.0
C      1  0.4766300000000  0.5207410000000  0.4524640000000 1.0
C      1  0.4195240000000  0.5403340000000  0.5185890000000 1.0
C      1  0.5611780000000  0.5769060000000  0.5101800000000 1.0
C      1  0.5334720000000  0.4846790000000  0.5741790000000 1.0
C      1  0.4520630000000  0.5199910000000  0.4133950000000 1.0
C      1  0.4735410000000  0.4737380000000  0.5511260000000 1.0
C      1  0.4386630000000  0.5549740000000  0.5335240000000 1.0
C      1  0.5486960000000  0.5079860000000  0.4287800000000 1.0
C      1  0.4118340000000  0.5002160000000  0.4957960000000 1.0
C      1  0.5718510000000  0.5403980000000  0.4718420000000 1.0
C      1  0.4877430000000  0.4911200000000  0.5237380000000 1.0
C      1  0.5192170000000  0.4924450000000  0.4793650000000 1.0
C      1  0.5539100000000  0.5518680000000  0.4528410000000 1.0
C      1  0.4787930000000  0.4715260000000  0.5025310000000 1.0
C      1  0.5357140000000  0.4271260000000  0.5239980000000 1.0
C      1  0.4688730000000  0.4257790000000  0.4906600000000 1.0
C      1  0.5608610000000  0.4371040000000  0.5131500000000 1.0
C      1  0.4831420000000  0.5180820000000  0.5060190000000 1.0
C      1  0.4677500000000  0.4424830000000  0.5146250000000 1.0
C      1  0.4694660000000  0.5115740000000  0.5798780000000 1.0
END
