TITL C-149880-9010-8 34.6600332774537 125000 -773.427765348493 0 0 109 (C1) n - 1
REM
REM in /rds/project/t2_vol4/rds-t2-cs072/BORA/CARBON/from-Arr/AIRSS/Generating-Clusters/GAP-ML-2020/Only-C1/SD-CG/HFTN-CG
REM
REM
REM
REM
REM
REM ./C.cell (11c1c37f851c82e70ff6c80c92926a4b)
REM AIRSS Version 0.9.1 bugfix July 2018 build 013d7b7c2542+ Fri, 06 Jul 2018 19:26:36 +0100
REM compiler GCC version 9.3.0
REM options -cpp -mtune=generic -march=x86-64 -g -O0
REM seed -2146930090 1753737284 -1279847687 1636533613 2061412506 1833092435 -950686729 1190526583 -537036743 -824819658 -2081142179 -1850581426 400823715 666801785 797483246 1581059540 -2062584326 -1945094001 337209994 -1929878808 846230309 629293716 -2083699036 -904893478 -1526645995 1384544096 397814909 -1421953677 1064405977 998539564 -494535563 -1997945990 -1774731440
REM
CELL 1.54180   50.00000   50.00000   50.00000   90.00000   90.00000   90.00000
LATT -1
SFAC C  
C      1  0.4688570000000  0.4190510000000  0.5203840000000 1.0
C      1  0.5164450000000  0.4902070000000  0.5320650000000 1.0
C      1  0.5123210000000  0.4695120000000  0.5857390000000 1.0
C      1  0.5940200000000  0.4730370000000  0.5019060000000 1.0
C      1  0.5637970000000  0.5604770000000  0.5056500000000 1.0
C      1  0.4612610000000  0.5115730000000  0.4313350000000 1.0
C      1  0.4186320000000  0.4991620000000  0.5041310000000 1.0
C      1  0.4947270000000  0.5776380000000  0.5005150000000 1.0
C      1  0.4275960000000  0.4841930000000  0.4574510000000 1.0
C      1  0.4822530000000  0.5041660000000  0.4087930000000 1.0
C      1  0.4625640000000  0.4742360000000  0.5826860000000 1.0
C      1  0.5636230000000  0.5581950000000  0.4768240000000 1.0
C      1  0.4629510000000  0.5035790000000  0.5848440000000 1.0
C      1  0.4427930000000  0.4756910000000  0.5379930000000 1.0
C      1  0.5517630000000  0.4243980000000  0.4665260000000 1.0
C      1  0.5218890000000  0.4680330000000  0.4778630000000 1.0
C      1  0.6017380000000  0.4984050000000  0.4967320000000 1.0
C      1  0.5408610000000  0.5729080000000  0.4671420000000 1.0
C      1  0.5328890000000  0.5113830000000  0.5181190000000 1.0
C      1  0.5718670000000  0.5369970000000  0.5182910000000 1.0
C      1  0.5424510000000  0.4894160000000  0.4770960000000 1.0
C      1  0.4715040000000  0.4758030000000  0.5277320000000 1.0
C      1  0.5678370000000  0.5153040000000  0.4454360000000 1.0
C      1  0.5106220000000  0.4558510000000  0.5013340000000 1.0
C      1  0.4280420000000  0.5500700000000  0.4844870000000 1.0
C      1  0.5151070000000  0.5244080000000  0.4957550000000 1.0
C      1  0.4424210000000  0.4643120000000  0.5660190000000 1.0
C      1  0.5349510000000  0.5121360000000  0.5807240000000 1.0
C      1  0.5264130000000  0.5702640000000  0.5360320000000 1.0
C      1  0.5523020000000  0.5271270000000  0.5391530000000 1.0
C      1  0.5117920000000  0.5439260000000  0.4126630000000 1.0
C      1  0.4867800000000  0.4373380000000  0.5603960000000 1.0
C      1  0.4400590000000  0.5509090000000  0.4583030000000 1.0
C      1  0.4813960000000  0.4658770000000  0.5037840000000 1.0
C      1  0.5371590000000  0.5491770000000  0.5523590000000 1.0
C      1  0.5231800000000  0.5117250000000  0.4717930000000 1.0
C      1  0.5737640000000  0.5325040000000  0.4686690000000 1.0
C      1  0.4235290000000  0.4761260000000  0.4862820000000 1.0
C      1  0.5129730000000  0.4972990000000  0.5915340000000 1.0
C      1  0.4275590000000  0.4517950000000  0.5278240000000 1.0
C      1  0.4892410000000  0.5135260000000  0.5915930000000 1.0
C      1  0.4419410000000  0.5694630000000  0.5006870000000 1.0
C      1  0.5394020000000  0.5461970000000  0.4216770000000 1.0
C      1  0.5074960000000  0.4352690000000  0.5412300000000 1.0
C      1  0.4376400000000  0.4395040000000  0.5521160000000 1.0
C      1  0.4890250000000  0.4964180000000  0.5364330000000 1.0
C      1  0.4533120000000  0.5496070000000  0.5713830000000 1.0
C      1  0.4810520000000  0.5212720000000  0.5279410000000 1.0
C      1  0.5539220000000  0.4586180000000  0.5304820000000 1.0
C      1  0.5361370000000  0.4611710000000  0.5752120000000 1.0
C      1  0.5499840000000  0.5199730000000  0.4236210000000 1.0
C      1  0.5627650000000  0.4885200000000  0.4537500000000 1.0
C      1  0.4802800000000  0.5201720000000  0.4544470000000 1.0
C      1  0.4852860000000  0.5256270000000  0.5009910000000 1.0
C      1  0.4627810000000  0.4279190000000  0.5468430000000 1.0
C      1  0.5797750000000  0.5180750000000  0.4950250000000 1.0
C      1  0.4983910000000  0.5398790000000  0.5848120000000 1.0
C      1  0.5613900000000  0.4623520000000  0.4429010000000 1.0
C      1  0.5254580000000  0.5384680000000  0.5754970000000 1.0
C      1  0.5039250000000  0.5033610000000  0.4530600000000 1.0
C      1  0.5818120000000  0.4498050000000  0.4902470000000 1.0
C      1  0.5045090000000  0.5609510000000  0.4345820000000 1.0
C      1  0.4768210000000  0.4820490000000  0.4818470000000 1.0
C      1  0.4288450000000  0.4495910000000  0.5005940000000 1.0
C      1  0.5077790000000  0.4205510000000  0.4659020000000 1.0
C      1  0.4213120000000  0.5104340000000  0.4521810000000 1.0
C      1  0.4806340000000  0.5587060000000  0.5753940000000 1.0
C      1  0.4636370000000  0.5664030000000  0.4620590000000 1.0
C      1  0.4490770000000  0.4840770000000  0.4360450000000 1.0
C      1  0.4979590000000  0.4750640000000  0.4617100000000 1.0
C      1  0.4513070000000  0.5687560000000  0.5496010000000 1.0
C      1  0.5299670000000  0.5013540000000  0.4114790000000 1.0
C      1  0.5230090000000  0.4603080000000  0.5283280000000 1.0
C      1  0.5445680000000  0.4223200000000  0.4942290000000 1.0
C      1  0.4899230000000  0.4775600000000  0.4114920000000 1.0
C      1  0.4797630000000  0.5759300000000  0.5511080000000 1.0
C      1  0.4865990000000  0.4582260000000  0.5800270000000 1.0
C      1  0.5242220000000  0.5809140000000  0.4900930000000 1.0
C      1  0.4806550000000  0.4261780000000  0.4591700000000 1.0
C      1  0.4597000000000  0.4182230000000  0.4744810000000 1.0
C      1  0.4681410000000  0.4645500000000  0.4264230000000 1.0
C      1  0.5407480000000  0.5753330000000  0.5125460000000 1.0
C      1  0.5356380000000  0.4534950000000  0.4313210000000 1.0
C      1  0.4238890000000  0.4959010000000  0.5320340000000 1.0
C      1  0.4990440000000  0.5784710000000  0.5304470000000 1.0
C      1  0.4716780000000  0.5100870000000  0.4814920000000 1.0
C      1  0.4347390000000  0.5641940000000  0.5280470000000 1.0
C      1  0.4374750000000  0.5291240000000  0.4399260000000 1.0
C      1  0.5536550000000  0.5031920000000  0.5611700000000 1.0
C      1  0.4824570000000  0.4513640000000  0.4461560000000 1.0
C      1  0.4211980000000  0.5391900000000  0.5287560000000 1.0
C      1  0.4995300000000  0.5501440000000  0.4871780000000 1.0
C      1  0.4975400000000  0.4183350000000  0.5192740000000 1.0
C      1  0.5629080000000  0.4385560000000  0.5091100000000 1.0
C      1  0.5553090000000  0.4986140000000  0.5020450000000 1.0
C      1  0.5322730000000  0.5664770000000  0.4413770000000 1.0
C      1  0.5066540000000  0.5178720000000  0.4051430000000 1.0
C      1  0.4259680000000  0.5191060000000  0.5484120000000 1.0
C      1  0.4492300000000  0.4269190000000  0.4976220000000 1.0
C      1  0.4181390000000  0.5286790000000  0.5019800000000 1.0
C      1  0.4449390000000  0.5225210000000  0.5709260000000 1.0
C      1  0.4660590000000  0.5789330000000  0.4878930000000 1.0
C      1  0.5203040000000  0.4738520000000  0.4161820000000 1.0
C      1  0.5150100000000  0.4226780000000  0.4954060000000 1.0
C      1  0.5544750000000  0.4731420000000  0.5589580000000 1.0
C      1  0.5699570000000  0.4790750000000  0.5177480000000 1.0
C      1  0.4882000000000  0.5503100000000  0.4577050000000 1.0
C      1  0.5715000000000  0.4439360000000  0.4632400000000 1.0
C      1  0.5293520000000  0.4289540000000  0.4488530000000 1.0
END
