TITL C-142792-1187-3 0.11778091548832 125000 -311.645892921458 0 0 47 (C1) n - 1
REM
REM in /rds/project/t2_vol4/rds-t2-cs072/BORA/CARBON/from-Arr/AIRSS/Generating-Clusters/GAP-ML-2020/Only-C1/SD-CG/HFTN-CG
REM
REM
REM
REM
REM
REM ./C.cell (11c1c37f851c82e70ff6c80c92926a4b)
REM AIRSS Version 0.9.1 bugfix July 2018 build 013d7b7c2542+ Fri, 06 Jul 2018 19:26:36 +0100
REM compiler GCC version 9.3.0
REM options -cpp -mtune=generic -march=x86-64 -g -O0
REM seed 396972432 844760544 1818238363 -1366664047 -64365919 1558064534 2138302133 1066402752 -20278959 -299343845 -1379538992 -2141561881 -762137325 16329250 333721266 -343544675 -1705162447 -1723790731 -817855478 -1838204294 408996365 1595161219 1037690606 1374203829 -1430844153 893903489 1793145311 -1884154005 240967827 -1675590046 107113798 -1566437225 -1978760116
REM
CELL 1.54180   50.00000   50.00000   50.00000   90.00000   90.00000   90.00000
LATT -1
SFAC C  
C      1  0.4869370000000  0.5303340000000  0.5527610000000 1.0
C      1  0.5370210000000  0.5188330000000  0.4857610000000 1.0
C      1  0.4244690000000  0.5133000000000  0.5061720000000 1.0
C      1  0.5078570000000  0.5129630000000  0.4916330000000 1.0
C      1  0.5370990000000  0.5237200000000  0.4556570000000 1.0
C      1  0.5432240000000  0.5287400000000  0.5470930000000 1.0
C      1  0.5624510000000  0.5154090000000  0.5289170000000 1.0
C      1  0.5268790000000  0.5068650000000  0.5553100000000 1.0
C      1  0.4898560000000  0.4965190000000  0.4420100000000 1.0
C      1  0.5003650000000  0.4974680000000  0.5159650000000 1.0
C      1  0.5401000000000  0.4553570000000  0.5053390000000 1.0
C      1  0.5389650000000  0.4539330000000  0.4768630000000 1.0
C      1  0.5373120000000  0.4813110000000  0.5490470000000 1.0
C      1  0.5130270000000  0.5359730000000  0.4489700000000 1.0
C      1  0.4938840000000  0.4715070000000  0.4315950000000 1.0
C      1  0.5617590000000  0.4732920000000  0.5063520000000 1.0
C      1  0.5011890000000  0.5080550000000  0.5443940000000 1.0
C      1  0.4963130000000  0.4512040000000  0.4947830000000 1.0
C      1  0.4909570000000  0.4565770000000  0.5442340000000 1.0
C      1  0.5514570000000  0.5024130000000  0.4662690000000 1.0
C      1  0.4405420000000  0.5315190000000  0.4949330000000 1.0
C      1  0.4536150000000  0.4862850000000  0.5287110000000 1.0
C      1  0.5349610000000  0.5466410000000  0.5256010000000 1.0
C      1  0.5579150000000  0.4766830000000  0.4757090000000 1.0
C      1  0.4707970000000  0.5018760000000  0.5112990000000 1.0
C      1  0.5036140000000  0.4507120000000  0.4433460000000 1.0
C      1  0.4939280000000  0.5496820000000  0.4679280000000 1.0
C      1  0.4927990000000  0.5556470000000  0.5427320000000 1.0
C      1  0.4907210000000  0.4981640000000  0.4712940000000 1.0
C      1  0.4641770000000  0.4974140000000  0.4819690000000 1.0
C      1  0.4665280000000  0.5326240000000  0.5103710000000 1.0
C      1  0.5587650000000  0.4872300000000  0.5305350000000 1.0
C      1  0.4897580000000  0.5239510000000  0.4359760000000 1.0
C      1  0.5117100000000  0.4475190000000  0.4701580000000 1.0
C      1  0.4526260000000  0.5222850000000  0.4697240000000 1.0
C      1  0.5169440000000  0.4608660000000  0.5432080000000 1.0
C      1  0.5093700000000  0.5541250000000  0.5187550000000 1.0
C      1  0.4678750000000  0.4612190000000  0.5304310000000 1.0
C      1  0.4295770000000  0.4875530000000  0.5116890000000 1.0
C      1  0.5122050000000  0.4680410000000  0.5133350000000 1.0
C      1  0.5520710000000  0.5309110000000  0.5073710000000 1.0
C      1  0.4409310000000  0.4749360000000  0.4871800000000 1.0
C      1  0.4674610000000  0.5435240000000  0.5373620000000 1.0
C      1  0.4947860000000  0.5407290000000  0.4964320000000 1.0
C      1  0.4710670000000  0.5374270000000  0.4549720000000 1.0
C      1  0.4451460000000  0.4486600000000  0.4877140000000 1.0
C      1  0.4689940000000  0.4500040000000  0.5021420000000 1.0
END
