TITL C-141417-3279-4 -0.379510092101296 125000 -714.12668465852 0 0 100 (C1) n - 1
REM
REM in /rds/project/t2_vol4/rds-t2-cs072/BORA/CARBON/from-Arr/AIRSS/Generating-Clusters/GAP-ML-2020/Only-C1/SD-CG/HFTN-CG
REM
REM
REM
REM
REM
REM ./C.cell (11c1c37f851c82e70ff6c80c92926a4b)
REM AIRSS Version 0.9.1 bugfix July 2018 build 013d7b7c2542+ Fri, 06 Jul 2018 19:26:36 +0100
REM compiler GCC version 9.3.0
REM options -cpp -mtune=generic -march=x86-64 -g -O0
REM seed 1742548098 -444911334 -1629609529 -1039181334 -951678186 -258362798 1102108682 1767228899 614491006 -116016957 -1708516129 -1390506957 -1482317907 293409597 -651136482 588986790 -252560454 -1310358822 -402543565 1755474110 -1645796168 1506258044 1125809159 1848943207 940983371 649950002 2012311814 -269008571 1899722631 -679136989 -1715174957 -1724726227 2002260407
REM
CELL 1.54180   50.00000   50.00000   50.00000   90.00000   90.00000   90.00000
LATT -1
SFAC C  
C      1  0.5082260000000  0.4164140000000  0.4650690000000 1.0
C      1  0.5398750000000  0.5092430000000  0.4232040000000 1.0
C      1  0.5324920000000  0.5069550000000  0.5010510000000 1.0
C      1  0.4679680000000  0.5802860000000  0.5132620000000 1.0
C      1  0.5029500000000  0.5648800000000  0.5612780000000 1.0
C      1  0.5729820000000  0.4784940000000  0.4543700000000 1.0
C      1  0.4604360000000  0.4308780000000  0.5425190000000 1.0
C      1  0.4459340000000  0.4777840000000  0.5620290000000 1.0
C      1  0.5119840000000  0.4263160000000  0.5378670000000 1.0
C      1  0.4902710000000  0.5130420000000  0.4745220000000 1.0
C      1  0.4974170000000  0.5644100000000  0.4693860000000 1.0
C      1  0.5730990000000  0.5074840000000  0.4597490000000 1.0
C      1  0.4644150000000  0.4744530000000  0.4251160000000 1.0
C      1  0.5064530000000  0.5470850000000  0.4263730000000 1.0
C      1  0.5502870000000  0.4321440000000  0.4784570000000 1.0
C      1  0.4388510000000  0.4505590000000  0.5009660000000 1.0
C      1  0.5585770000000  0.5360920000000  0.5501750000000 1.0
C      1  0.5086200000000  0.4175410000000  0.5110640000000 1.0
C      1  0.4315640000000  0.5245190000000  0.4954220000000 1.0
C      1  0.5687560000000  0.4490270000000  0.4951620000000 1.0
C      1  0.4847820000000  0.4704990000000  0.5241250000000 1.0
C      1  0.5707590000000  0.5123530000000  0.5399020000000 1.0
C      1  0.5435790000000  0.5465040000000  0.4564570000000 1.0
C      1  0.5369760000000  0.5786090000000  0.4942170000000 1.0
C      1  0.5595130000000  0.5570930000000  0.5296930000000 1.0
C      1  0.4805070000000  0.4243170000000  0.4996990000000 1.0
C      1  0.4727200000000  0.4698150000000  0.4767150000000 1.0
C      1  0.4355700000000  0.5502820000000  0.5045130000000 1.0
C      1  0.4178250000000  0.4871740000000  0.4790220000000 1.0
C      1  0.4515890000000  0.5017940000000  0.5044410000000 1.0
C      1  0.4339660000000  0.5219860000000  0.5473040000000 1.0
C      1  0.4665060000000  0.5608520000000  0.4653640000000 1.0
C      1  0.4547300000000  0.4305450000000  0.5150330000000 1.0
C      1  0.5401720000000  0.5780830000000  0.5222290000000 1.0
C      1  0.4807400000000  0.4184270000000  0.4712390000000 1.0
C      1  0.5388260000000  0.5003860000000  0.5732160000000 1.0
C      1  0.4545480000000  0.5675180000000  0.4908500000000 1.0
C      1  0.4462650000000  0.4526010000000  0.4717820000000 1.0
C      1  0.5588700000000  0.4893150000000  0.5549480000000 1.0
C      1  0.4871090000000  0.4867550000000  0.4121110000000 1.0
C      1  0.4943020000000  0.5404510000000  0.5174470000000 1.0
C      1  0.5190400000000  0.4314200000000  0.4437120000000 1.0
C      1  0.4904380000000  0.5142600000000  0.4103110000000 1.0
C      1  0.4947360000000  0.5901840000000  0.5115810000000 1.0
C      1  0.4742120000000  0.4969910000000  0.5230630000000 1.0
C      1  0.5496230000000  0.5539080000000  0.4841980000000 1.0
C      1  0.5449160000000  0.4406120000000  0.4512680000000 1.0
C      1  0.5555760000000  0.4612160000000  0.5452680000000 1.0
C      1  0.5016970000000  0.4463630000000  0.4271980000000 1.0
C      1  0.5550810000000  0.5231210000000  0.4442350000000 1.0
C      1  0.4292800000000  0.4723020000000  0.4588370000000 1.0
C      1  0.5696890000000  0.5455450000000  0.5061990000000 1.0
C      1  0.4878890000000  0.4575240000000  0.4968640000000 1.0
C      1  0.4946110000000  0.5150820000000  0.5285730000000 1.0
C      1  0.4734200000000  0.4478840000000  0.4328180000000 1.0
C      1  0.5150580000000  0.5436560000000  0.5777980000000 1.0
C      1  0.4303850000000  0.4919510000000  0.5404540000000 1.0
C      1  0.5196630000000  0.5014380000000  0.5259430000000 1.0
C      1  0.5006840000000  0.5375200000000  0.4891110000000 1.0
C      1  0.5086540000000  0.4969240000000  0.4624170000000 1.0
C      1  0.5240670000000  0.4865930000000  0.4818580000000 1.0
C      1  0.4681600000000  0.5422380000000  0.5773960000000 1.0
C      1  0.5822690000000  0.5017000000000  0.4877300000000 1.0
C      1  0.4875210000000  0.4257200000000  0.5515440000000 1.0
C      1  0.4629590000000  0.4339610000000  0.4554430000000 1.0
C      1  0.4495700000000  0.5222690000000  0.5708870000000 1.0
C      1  0.5163260000000  0.4645570000000  0.4970120000000 1.0
C      1  0.5178210000000  0.5575220000000  0.4487250000000 1.0
C      1  0.5259370000000  0.4176830000000  0.4875100000000 1.0
C      1  0.4606300000000  0.4970280000000  0.5780360000000 1.0
C      1  0.5263960000000  0.4520390000000  0.5482030000000 1.0
C      1  0.4433920000000  0.4889460000000  0.4386960000000 1.0
C      1  0.5289140000000  0.5331950000000  0.4918850000000 1.0
C      1  0.5103260000000  0.5580870000000  0.5350050000000 1.0
C      1  0.5393320000000  0.5291930000000  0.5711200000000 1.0
C      1  0.5138710000000  0.4868320000000  0.5810880000000 1.0
C      1  0.4787910000000  0.5375200000000  0.4246600000000 1.0
C      1  0.5665320000000  0.4522130000000  0.5222290000000 1.0
C      1  0.4224910000000  0.5143490000000  0.4708650000000 1.0
C      1  0.4893240000000  0.5016040000000  0.5862480000000 1.0
C      1  0.4575840000000  0.4518820000000  0.5630190000000 1.0
C      1  0.4741890000000  0.5645400000000  0.5618110000000 1.0
C      1  0.5791990000000  0.5186080000000  0.5115570000000 1.0
C      1  0.4383310000000  0.5478720000000  0.5328890000000 1.0
C      1  0.4923360000000  0.5296550000000  0.5868230000000 1.0
C      1  0.4584020000000  0.5678750000000  0.5384430000000 1.0
C      1  0.5104660000000  0.4602410000000  0.5722930000000 1.0
C      1  0.5372160000000  0.4803860000000  0.4213820000000 1.0
C      1  0.5110010000000  0.4702090000000  0.4147650000000 1.0
C      1  0.5140260000000  0.5856620000000  0.5325980000000 1.0
C      1  0.4302900000000  0.4790710000000  0.5084130000000 1.0
C      1  0.5148600000000  0.4723640000000  0.5267540000000 1.0
C      1  0.4582440000000  0.5410160000000  0.4443200000000 1.0
C      1  0.4684880000000  0.4972540000000  0.4816920000000 1.0
C      1  0.5542370000000  0.4646380000000  0.4385390000000 1.0
C      1  0.4390500000000  0.5173500000000  0.4467290000000 1.0
C      1  0.5796410000000  0.4725320000000  0.4816250000000 1.0
C      1  0.4855870000000  0.4468710000000  0.5713030000000 1.0
C      1  0.5176730000000  0.5236250000000  0.4138950000000 1.0
C      1  0.5088900000000  0.5842320000000  0.4878150000000 1.0
END
