TITL C-141435-3362-2 12.6641662872141 125000 -274.052997558176 0 0 41 (C1) n - 1
REM
REM in /rds/project/t2_vol4/rds-t2-cs072/BORA/CARBON/from-Arr/AIRSS/Generating-Clusters/GAP-ML-2020/Only-C1/SD-CG/HFTN-CG
REM
REM
REM
REM
REM
REM ./C.cell (11c1c37f851c82e70ff6c80c92926a4b)
REM AIRSS Version 0.9.1 bugfix July 2018 build 013d7b7c2542+ Fri, 06 Jul 2018 19:26:36 +0100
REM compiler GCC version 9.3.0
REM options -cpp -mtune=generic -march=x86-64 -g -O0
REM seed -1274970981 1084592293 1568013515 1343687779 1452867288 1074705922 1016534122 1893872845 -798844422 1381611997 2017416136 1999680326 -341489322 -1966804716 1413317647 1948867643 -1667075755 743390538 -1543082831 -1910883236 1164180379 -1681767529 -1981721988 1878792368 -220209387 -1692449379 388414124 -1658244296 1882465350 1481710588 124290327 438371876 948692738
REM
CELL 1.54180   50.00000   50.00000   50.00000   90.00000   90.00000   90.00000
LATT -1
SFAC C  
C      1  0.5205520000000  0.4503120000000  0.5360120000000 1.0
C      1  0.4927880000000  0.5216080000000  0.4455480000000 1.0
C      1  0.5211230000000  0.5667590000000  0.4880740000000 1.0
C      1  0.5431590000000  0.4997870000000  0.5220230000000 1.0
C      1  0.4651850000000  0.4847410000000  0.5489090000000 1.0
C      1  0.5027540000000  0.4360690000000  0.4851130000000 1.0
C      1  0.5007380000000  0.5284950000000  0.4861660000000 1.0
C      1  0.5531880000000  0.4745750000000  0.5131010000000 1.0
C      1  0.4694650000000  0.5326690000000  0.4599930000000 1.0
C      1  0.4862740000000  0.4670430000000  0.5510810000000 1.0
C      1  0.4917770000000  0.5014480000000  0.4906940000000 1.0
C      1  0.5293280000000  0.4421800000000  0.4884330000000 1.0
C      1  0.4587430000000  0.5190900000000  0.5157480000000 1.0
C      1  0.4837870000000  0.4970820000000  0.4350800000000 1.0
C      1  0.5178800000000  0.5295480000000  0.4602380000000 1.0
C      1  0.4630940000000  0.5451130000000  0.5089070000000 1.0
C      1  0.5628110000000  0.4729110000000  0.4868500000000 1.0
C      1  0.4766320000000  0.5477830000000  0.4822630000000 1.0
C      1  0.4728780000000  0.5101800000000  0.5395280000000 1.0
C      1  0.5005970000000  0.5186660000000  0.5406440000000 1.0
C      1  0.5459770000000  0.4576290000000  0.4707310000000 1.0
C      1  0.4925040000000  0.5701960000000  0.4924610000000 1.0
C      1  0.5252140000000  0.5571080000000  0.4621580000000 1.0
C      1  0.4599460000000  0.4902140000000  0.4453690000000 1.0
C      1  0.5059770000000  0.5440200000000  0.5292040000000 1.0
C      1  0.5053560000000  0.4806180000000  0.4994090000000 1.0
C      1  0.5140220000000  0.4738600000000  0.5515600000000 1.0
C      1  0.5393900000000  0.5116840000000  0.4735070000000 1.0
C      1  0.5406710000000  0.5190640000000  0.5014760000000 1.0
C      1  0.4605930000000  0.4691760000000  0.4993400000000 1.0
C      1  0.4870370000000  0.4554540000000  0.5019130000000 1.0
C      1  0.4922940000000  0.4464370000000  0.5305590000000 1.0
C      1  0.5237310000000  0.5419780000000  0.5062640000000 1.0
C      1  0.4380100000000  0.4582830000000  0.5139470000000 1.0
C      1  0.5512930000000  0.4875580000000  0.4667950000000 1.0
C      1  0.4537860000000  0.5089040000000  0.4662610000000 1.0
C      1  0.5386110000000  0.4505440000000  0.5159650000000 1.0
C      1  0.4441240000000  0.4723180000000  0.5345170000000 1.0
C      1  0.5215540000000  0.4992880000000  0.5419040000000 1.0
C      1  0.4845450000000  0.5608230000000  0.5198420000000 1.0
C      1  0.4626130000000  0.4987870000000  0.4924130000000 1.0
END
