TITL C-140211-7050-1 0.0750531406618974 125000 -587.40132532148 0 0 86 (C1) n - 1
REM
REM in /rds/project/t2_vol4/rds-t2-cs072/BORA/CARBON/from-Arr/AIRSS/Generating-Clusters/GAP-ML-2020/Only-C1/SD-CG/HFTN-CG
REM
REM
REM
REM
REM
REM ./C.cell (11c1c37f851c82e70ff6c80c92926a4b)
REM AIRSS Version 0.9.1 bugfix July 2018 build 013d7b7c2542+ Fri, 06 Jul 2018 19:26:36 +0100
REM compiler GCC version 9.3.0
REM options -cpp -mtune=generic -march=x86-64 -g -O0
REM seed -91683081 560989763 -621264518 2080064212 -1533139896 1006295907 -1390007658 -1822168140 -1926428058 -441699761 -118945389 -237547733 -392928115 1144700695 712805108 1794111459 1644043179 -1071451928 630651048 1468313665 753575977 1178714100 -36632302 -525428784 -232401521 353653020 -695707332 22923460 1738435809 1451926199 -1782329704 -793127865 -897718617
REM
CELL 1.54180   50.00000   50.00000   50.00000   90.00000   90.00000   90.00000
LATT -1
SFAC C  
C      1  0.5053820000000  0.4563110000000  0.4451220000000 1.0
C      1  0.4549700000000  0.4625400000000  0.5661250000000 1.0
C      1  0.4672930000000  0.4531920000000  0.4747290000000 1.0
C      1  0.5735400000000  0.4483080000000  0.5438800000000 1.0
C      1  0.4973370000000  0.4175610000000  0.4907980000000 1.0
C      1  0.4870660000000  0.5040090000000  0.4843260000000 1.0
C      1  0.4792530000000  0.4935230000000  0.5329160000000 1.0
C      1  0.4388840000000  0.4863580000000  0.4491120000000 1.0
C      1  0.4977080000000  0.5305670000000  0.5230570000000 1.0
C      1  0.4999340000000  0.5861990000000  0.4864520000000 1.0
C      1  0.4321920000000  0.4413740000000  0.4887530000000 1.0
C      1  0.5073430000000  0.4785030000000  0.5353090000000 1.0
C      1  0.4607820000000  0.4691830000000  0.4500870000000 1.0
C      1  0.4777530000000  0.4142100000000  0.4707160000000 1.0
C      1  0.5114300000000  0.4882370000000  0.4880850000000 1.0
C      1  0.5511460000000  0.5633410000000  0.4997680000000 1.0
C      1  0.5386960000000  0.5586190000000  0.4725680000000 1.0
C      1  0.4506610000000  0.4254260000000  0.4791300000000 1.0
C      1  0.5233650000000  0.4706710000000  0.4659850000000 1.0
C      1  0.5392320000000  0.5038730000000  0.5681200000000 1.0
C      1  0.4452050000000  0.5233250000000  0.5431920000000 1.0
C      1  0.5457110000000  0.5402710000000  0.4508970000000 1.0
C      1  0.5341980000000  0.4947700000000  0.4490730000000 1.0
C      1  0.4863730000000  0.4967910000000  0.5767030000000 1.0
C      1  0.5591240000000  0.4536050000000  0.4976280000000 1.0
C      1  0.5185570000000  0.5373400000000  0.4833530000000 1.0
C      1  0.4300690000000  0.5109070000000  0.5234000000000 1.0
C      1  0.5438230000000  0.5415500000000  0.5352690000000 1.0
C      1  0.5380390000000  0.4472870000000  0.4800810000000 1.0
C      1  0.5248010000000  0.4252370000000  0.4932940000000 1.0
C      1  0.4774950000000  0.4566540000000  0.5051720000000 1.0
C      1  0.4968980000000  0.5249370000000  0.4658740000000 1.0
C      1  0.5308470000000  0.4276900000000  0.5224930000000 1.0
C      1  0.4707900000000  0.5120080000000  0.5559590000000 1.0
C      1  0.5333260000000  0.4947780000000  0.5391580000000 1.0
C      1  0.5651240000000  0.5435410000000  0.5152940000000 1.0
C      1  0.5064480000000  0.4325110000000  0.5367190000000 1.0
C      1  0.5014010000000  0.4556250000000  0.5534590000000 1.0
C      1  0.4436440000000  0.5518550000000  0.4936900000000 1.0
C      1  0.5063240000000  0.5526570000000  0.5062770000000 1.0
C      1  0.5731810000000  0.5174980000000  0.5101910000000 1.0
C      1  0.4820920000000  0.5396610000000  0.5481480000000 1.0
C      1  0.4263920000000  0.5287780000000  0.5008930000000 1.0
C      1  0.5069120000000  0.5772260000000  0.5371400000000 1.0
C      1  0.4227080000000  0.4880260000000  0.4728700000000 1.0
C      1  0.4882340000000  0.4376230000000  0.4602880000000 1.0
C      1  0.4874460000000  0.5765040000000  0.5108660000000 1.0
C      1  0.5112150000000  0.5109600000000  0.5795200000000 1.0
C      1  0.4399500000000  0.4649080000000  0.5448810000000 1.0
C      1  0.4425870000000  0.5121300000000  0.4369580000000 1.0
C      1  0.4873920000000  0.4306290000000  0.5140270000000 1.0
C      1  0.4682420000000  0.5212220000000  0.4300960000000 1.0
C      1  0.5723540000000  0.4748410000000  0.5510340000000 1.0
C      1  0.5569800000000  0.4401770000000  0.5234470000000 1.0
C      1  0.5133550000000  0.5757570000000  0.4649850000000 1.0
C      1  0.4587500000000  0.5649550000000  0.5145260000000 1.0
C      1  0.5046200000000  0.4697580000000  0.5082650000000 1.0
C      1  0.5283200000000  0.4502090000000  0.4252380000000 1.0
C      1  0.5299880000000  0.5124460000000  0.4956710000000 1.0
C      1  0.5160050000000  0.5395700000000  0.5723080000000 1.0
C      1  0.5018570000000  0.5599120000000  0.4436410000000 1.0
C      1  0.5220100000000  0.5401390000000  0.4349410000000 1.0
C      1  0.5606730000000  0.4863690000000  0.5737550000000 1.0
C      1  0.5599680000000  0.5059610000000  0.4865300000000 1.0
C      1  0.4241650000000  0.4688130000000  0.4943550000000 1.0
C      1  0.4192870000000  0.5159140000000  0.4768530000000 1.0
C      1  0.5647940000000  0.4802510000000  0.4999370000000 1.0
C      1  0.5633420000000  0.4924660000000  0.5267800000000 1.0
C      1  0.4308070000000  0.5303740000000  0.4550800000000 1.0
C      1  0.5117790000000  0.5125000000000  0.4397410000000 1.0
C      1  0.5254830000000  0.5182460000000  0.5244940000000 1.0
C      1  0.5564980000000  0.5129440000000  0.4571500000000 1.0
C      1  0.5477030000000  0.4680830000000  0.4249170000000 1.0
C      1  0.5426260000000  0.5343830000000  0.5631580000000 1.0
C      1  0.4821670000000  0.4674100000000  0.5714490000000 1.0
C      1  0.4323030000000  0.4818410000000  0.5195970000000 1.0
C      1  0.4838450000000  0.4747720000000  0.4360840000000 1.0
C      1  0.4495840000000  0.5488860000000  0.4644480000000 1.0
C      1  0.4564510000000  0.5490480000000  0.5376880000000 1.0
C      1  0.5595680000000  0.4909060000000  0.4331550000000 1.0
C      1  0.4802950000000  0.5120250000000  0.5101650000000 1.0
C      1  0.4882880000000  0.5011820000000  0.4269200000000 1.0
C      1  0.4612400000000  0.4717870000000  0.5252290000000 1.0
C      1  0.4766430000000  0.5431690000000  0.4494420000000 1.0
C      1  0.5000130000000  0.5593200000000  0.5589290000000 1.0
C      1  0.5297200000000  0.5650790000000  0.5221890000000 1.0
END
