TITL C-144806-3192-7 181.627622795229 125000 -555.583913930364 0 0 81 (C1) n - 1
REM
REM in /rds/project/t2_vol4/rds-t2-cs072/BORA/CARBON/from-Arr/AIRSS/Generating-Clusters/GAP-ML-2020/Only-C1/SD-CG/HFTN-CG
REM
REM
REM
REM
REM
REM ./C.cell (11c1c37f851c82e70ff6c80c92926a4b)
REM AIRSS Version 0.9.1 bugfix July 2018 build 013d7b7c2542+ Fri, 06 Jul 2018 19:26:36 +0100
REM compiler GCC version 9.3.0
REM options -cpp -mtune=generic -march=x86-64 -g -O0
REM seed -1675101652 669697759 -1793508933 2105672657 1677822580 352469365 -429119296 311517453 -1538869785 1199703679 -91875393 493829193 1353682832 132323945 -1420355534 -1351931932 -1411533386 -496529054 -1909901754 120523223 1209095939 -1120741446 -1050319557 -1839710940 -1501110753 -1395827864 1605765435 -475462295 -1823597305 421101166 1102534574 -25460057 965915959
REM
CELL 1.54180   50.00000   50.00000   50.00000   90.00000   90.00000   90.00000
LATT -1
SFAC C  
C      1  0.5116560000000  0.5274400000000  0.4637740000000 1.0
C      1  0.5166430000000  0.4462350000000  0.4623120000000 1.0
C      1  0.5057450000000  0.4601200000000  0.4389270000000 1.0
C      1  0.5504280000000  0.5449320000000  0.5142510000000 1.0
C      1  0.5363840000000  0.5638600000000  0.4532930000000 1.0
C      1  0.5245120000000  0.5360170000000  0.5563880000000 1.0
C      1  0.4454660000000  0.5299520000000  0.5548280000000 1.0
C      1  0.5162010000000  0.5055580000000  0.4154880000000 1.0
C      1  0.4603950000000  0.5390220000000  0.4576900000000 1.0
C      1  0.5217420000000  0.5438410000000  0.4401840000000 1.0
C      1  0.5375360000000  0.5103830000000  0.5590480000000 1.0
C      1  0.4162830000000  0.5052000000000  0.5110700000000 1.0
C      1  0.5655890000000  0.4558710000000  0.5171940000000 1.0
C      1  0.5058040000000  0.5707150000000  0.5267610000000 1.0
C      1  0.4671140000000  0.5043420000000  0.4218240000000 1.0
C      1  0.5047310000000  0.4805630000000  0.5366230000000 1.0
C      1  0.5314710000000  0.4442430000000  0.5473000000000 1.0
C      1  0.4789060000000  0.5657740000000  0.5291940000000 1.0
C      1  0.4446400000000  0.5166700000000  0.4691010000000 1.0
C      1  0.4772750000000  0.4717250000000  0.5480890000000 1.0
C      1  0.4889110000000  0.4933210000000  0.4885250000000 1.0
C      1  0.4700040000000  0.5314330000000  0.4320280000000 1.0
C      1  0.5603720000000  0.4485430000000  0.5435130000000 1.0
C      1  0.4343370000000  0.5250740000000  0.5266850000000 1.0
C      1  0.5740840000000  0.4993170000000  0.5269850000000 1.0
C      1  0.5350330000000  0.5251720000000  0.4227920000000 1.0
C      1  0.5733050000000  0.5124290000000  0.4822010000000 1.0
C      1  0.4645070000000  0.5084150000000  0.4909730000000 1.0
C      1  0.4603330000000  0.4789070000000  0.5249930000000 1.0
C      1  0.5816540000000  0.4771820000000  0.5094270000000 1.0
C      1  0.4591490000000  0.5089990000000  0.5189400000000 1.0
C      1  0.4930890000000  0.4437770000000  0.5073540000000 1.0
C      1  0.5049230000000  0.5300610000000  0.5129880000000 1.0
C      1  0.5685410000000  0.5274700000000  0.4593090000000 1.0
C      1  0.5370800000000  0.4931880000000  0.5071350000000 1.0
C      1  0.5602490000000  0.4709210000000  0.4627520000000 1.0
C      1  0.4382910000000  0.4925290000000  0.4505180000000 1.0
C      1  0.4498290000000  0.5085150000000  0.5697820000000 1.0
C      1  0.4765260000000  0.4589220000000  0.4418810000000 1.0
C      1  0.4742050000000  0.5441020000000  0.5495830000000 1.0
C      1  0.4942020000000  0.5007110000000  0.5802650000000 1.0
C      1  0.5773700000000  0.4846070000000  0.4819190000000 1.0
C      1  0.4180660000000  0.5102410000000  0.4835010000000 1.0
C      1  0.4620430000000  0.5612870000000  0.5051340000000 1.0
C      1  0.5020540000000  0.5016550000000  0.4649820000000 1.0
C      1  0.5094250000000  0.5002380000000  0.5115680000000 1.0
C      1  0.4742900000000  0.4688620000000  0.4998100000000 1.0
C      1  0.4953750000000  0.5250180000000  0.5927740000000 1.0
C      1  0.4726390000000  0.4317460000000  0.5251370000000 1.0
C      1  0.5502090000000  0.5614290000000  0.4919120000000 1.0
C      1  0.4511850000000  0.4505790000000  0.4860210000000 1.0
C      1  0.4173300000000  0.4756640000000  0.5107350000000 1.0
C      1  0.4704030000000  0.4428000000000  0.4647210000000 1.0
C      1  0.4745740000000  0.5540110000000  0.4797610000000 1.0
C      1  0.5618170000000  0.4966240000000  0.5524270000000 1.0
C      1  0.5029230000000  0.5460610000000  0.4848760000000 1.0
C      1  0.4785250000000  0.4425600000000  0.5492490000000 1.0
C      1  0.5501080000000  0.4849840000000  0.4396950000000 1.0
C      1  0.4391620000000  0.5488270000000  0.5114740000000 1.0
C      1  0.5602990000000  0.5542580000000  0.4652040000000 1.0
C      1  0.5239470000000  0.4796790000000  0.4269740000000 1.0
C      1  0.4952300000000  0.4366140000000  0.4781840000000 1.0
C      1  0.4168000000000  0.4853930000000  0.4672830000000 1.0
C      1  0.5603000000000  0.4693810000000  0.5630830000000 1.0
C      1  0.4812630000000  0.5253230000000  0.5288320000000 1.0
C      1  0.4898960000000  0.5163810000000  0.4141320000000 1.0
C      1  0.5393090000000  0.4623770000000  0.5042580000000 1.0
C      1  0.4475440000000  0.4373020000000  0.5131750000000 1.0
C      1  0.4697150000000  0.4900850000000  0.5708550000000 1.0
C      1  0.5247680000000  0.5674610000000  0.4800540000000 1.0
C      1  0.4982630000000  0.5387720000000  0.5689190000000 1.0
C      1  0.5167220000000  0.4546010000000  0.5231630000000 1.0
C      1  0.5565570000000  0.5129600000000  0.4369210000000 1.0
C      1  0.4579890000000  0.4807280000000  0.4345670000000 1.0
C      1  0.4359010000000  0.4608630000000  0.5256670000000 1.0
C      1  0.5174410000000  0.4890170000000  0.5632930000000 1.0
C      1  0.5611610000000  0.5180640000000  0.5087220000000 1.0
C      1  0.5403370000000  0.4548100000000  0.4750450000000 1.0
C      1  0.5323420000000  0.4640390000000  0.5687720000000 1.0
C      1  0.4246640000000  0.4652170000000  0.4850430000000 1.0
C      1  0.5249100000000  0.5480350000000  0.5301930000000 1.0
END
