TITL C-141702-1613-4 -0.0609258587201059 125000 -910.827759162332 0 0 130 (C1) n - 1
REM
REM in /rds/project/t2_vol4/rds-t2-cs072/BORA/CARBON/from-Arr/AIRSS/Generating-Clusters/GAP-ML-2020/Only-C1/SD-CG/HFTN-CG
REM
REM
REM
REM
REM
REM ./C.cell (11c1c37f851c82e70ff6c80c92926a4b)
REM AIRSS Version 0.9.1 bugfix July 2018 build 013d7b7c2542+ Fri, 06 Jul 2018 19:26:36 +0100
REM compiler GCC version 9.3.0
REM options -cpp -mtune=generic -march=x86-64 -g -O0
REM seed -1422903590 81819169 -257966776 -1555807937 353249145 -1978947225 833135720 -996644381 846727344 750265072 -2093717960 1115874269 -944272488 -481100828 -570873562 -467695893 -856481668 -882624458 1102089461 2029100793 -1702788441 1909862079 -1786889029 1533292223 1652018306 -111440998 345486128 -770967548 -1541079688 -575126243 755167988 -1882902413 1517356133
REM
CELL 1.54180   50.00000   50.00000   50.00000   90.00000   90.00000   90.00000
LATT -1
SFAC C  
C      1  0.5774760000000  0.5494280000000  0.4534920000000 1.0
C      1  0.5590390000000  0.4824910000000  0.5316640000000 1.0
C      1  0.5407000000000  0.4249070000000  0.4753200000000 1.0
C      1  0.5571890000000  0.5506290000000  0.4334780000000 1.0
C      1  0.4605560000000  0.4646950000000  0.4808810000000 1.0
C      1  0.5346820000000  0.4627640000000  0.5668030000000 1.0
C      1  0.5564620000000  0.4421650000000  0.5684660000000 1.0
C      1  0.5379430000000  0.5926640000000  0.5134040000000 1.0
C      1  0.4240980000000  0.4662840000000  0.5555780000000 1.0
C      1  0.5529560000000  0.5247570000000  0.4214300000000 1.0
C      1  0.4169430000000  0.4651940000000  0.4574840000000 1.0
C      1  0.4953160000000  0.5416310000000  0.5055060000000 1.0
C      1  0.4632800000000  0.5563390000000  0.4463010000000 1.0
C      1  0.4362070000000  0.5147220000000  0.4425100000000 1.0
C      1  0.5096440000000  0.4881470000000  0.5998590000000 1.0
C      1  0.5091330000000  0.5143970000000  0.5938820000000 1.0
C      1  0.5720880000000  0.4808630000000  0.4467820000000 1.0
C      1  0.5132290000000  0.4896050000000  0.4172740000000 1.0
C      1  0.4812650000000  0.4387430000000  0.5190810000000 1.0
C      1  0.4564680000000  0.4253560000000  0.5534070000000 1.0
C      1  0.5451590000000  0.5783790000000  0.4692570000000 1.0
C      1  0.4663120000000  0.5061450000000  0.5641210000000 1.0
C      1  0.4968100000000  0.4313620000000  0.4482880000000 1.0
C      1  0.5246120000000  0.4031680000000  0.4835300000000 1.0
C      1  0.4798160000000  0.5846310000000  0.4690540000000 1.0
C      1  0.4827070000000  0.4430590000000  0.4876670000000 1.0
C      1  0.4750940000000  0.4799040000000  0.4591270000000 1.0
C      1  0.4912150000000  0.4415990000000  0.4208880000000 1.0
C      1  0.4178490000000  0.4533900000000  0.5015150000000 1.0
C      1  0.4150310000000  0.4832240000000  0.5012660000000 1.0
C      1  0.5033680000000  0.4349800000000  0.5385530000000 1.0
C      1  0.4645700000000  0.5250500000000  0.5370600000000 1.0
C      1  0.4586930000000  0.5611010000000  0.5651490000000 1.0
C      1  0.4339440000000  0.4481100000000  0.4766540000000 1.0
C      1  0.4381210000000  0.4913560000000  0.4274860000000 1.0
C      1  0.5881740000000  0.5235530000000  0.4517800000000 1.0
C      1  0.4110140000000  0.5295780000000  0.5139090000000 1.0
C      1  0.4090700000000  0.5023220000000  0.5229450000000 1.0
C      1  0.5094960000000  0.5652010000000  0.5742460000000 1.0
C      1  0.5198810000000  0.4610280000000  0.5393840000000 1.0
C      1  0.5295560000000  0.5249210000000  0.4791250000000 1.0
C      1  0.5817320000000  0.5500530000000  0.5015420000000 1.0
C      1  0.5508610000000  0.4257700000000  0.5228670000000 1.0
C      1  0.5553690000000  0.4428510000000  0.4981990000000 1.0
C      1  0.4406590000000  0.5406230000000  0.5524990000000 1.0
C      1  0.4534130000000  0.5708450000000  0.4692110000000 1.0
C      1  0.4384220000000  0.4470570000000  0.4154110000000 1.0
C      1  0.5347260000000  0.5256250000000  0.5856290000000 1.0
C      1  0.5236260000000  0.4808940000000  0.4939340000000 1.0
C      1  0.4324320000000  0.5609360000000  0.4860040000000 1.0
C      1  0.5338950000000  0.5507570000000  0.5732220000000 1.0
C      1  0.4418580000000  0.4151140000000  0.5073940000000 1.0
C      1  0.5705000000000  0.5635110000000  0.4774150000000 1.0
C      1  0.4660660000000  0.4807340000000  0.4277040000000 1.0
C      1  0.5272240000000  0.5181540000000  0.4115550000000 1.0
C      1  0.5120930000000  0.5847090000000  0.5537920000000 1.0
C      1  0.4348940000000  0.5689130000000  0.5128810000000 1.0
C      1  0.4657660000000  0.4774620000000  0.5061710000000 1.0
C      1  0.5372540000000  0.5686540000000  0.4423200000000 1.0
C      1  0.4568740000000  0.5177720000000  0.5089690000000 1.0
C      1  0.4969990000000  0.5954940000000  0.4891520000000 1.0
C      1  0.4783140000000  0.4791330000000  0.5534390000000 1.0
C      1  0.4649050000000  0.4526200000000  0.4158430000000 1.0
C      1  0.5978140000000  0.5075710000000  0.5202500000000 1.0
C      1  0.5275550000000  0.4270540000000  0.4491080000000 1.0
C      1  0.5026360000000  0.4878550000000  0.5363640000000 1.0
C      1  0.5346760000000  0.5295740000000  0.5284220000000 1.0
C      1  0.4478060000000  0.4201830000000  0.4800580000000 1.0
C      1  0.4813850000000  0.5184460000000  0.4937790000000 1.0
C      1  0.4779160000000  0.4174660000000  0.4721140000000 1.0
C      1  0.5364360000000  0.4458290000000  0.4297920000000 1.0
C      1  0.4840100000000  0.5239500000000  0.5822780000000 1.0
C      1  0.4179990000000  0.5155490000000  0.4648520000000 1.0
C      1  0.5355680000000  0.5811210000000  0.5375090000000 1.0
C      1  0.5145560000000  0.4577140000000  0.4155230000000 1.0
C      1  0.5229810000000  0.5411310000000  0.5015090000000 1.0
C      1  0.4234740000000  0.5494910000000  0.5304260000000 1.0
C      1  0.4877680000000  0.5708490000000  0.4446520000000 1.0
C      1  0.5389940000000  0.4639590000000  0.5158870000000 1.0
C      1  0.4206130000000  0.4930760000000  0.5498320000000 1.0
C      1  0.4631450000000  0.5279250000000  0.4424600000000 1.0
C      1  0.4905960000000  0.5363390000000  0.5336000000000 1.0
C      1  0.5112210000000  0.5626360000000  0.4312040000000 1.0
C      1  0.4944450000000  0.4896530000000  0.5064930000000 1.0
C      1  0.4969890000000  0.4580400000000  0.4642100000000 1.0
C      1  0.4103480000000  0.4886100000000  0.4727100000000 1.0
C      1  0.4436840000000  0.4943490000000  0.5030300000000 1.0
C      1  0.5113540000000  0.4654180000000  0.5860460000000 1.0
C      1  0.4371410000000  0.5125950000000  0.5629770000000 1.0
C      1  0.4821620000000  0.4332590000000  0.5628190000000 1.0
C      1  0.4961120000000  0.3988630000000  0.4854770000000 1.0
C      1  0.4310770000000  0.4403890000000  0.5490580000000 1.0
C      1  0.4176380000000  0.5356540000000  0.4856230000000 1.0
C      1  0.5632320000000  0.4314390000000  0.5465250000000 1.0
C      1  0.5068000000000  0.5380400000000  0.4157710000000 1.0
C      1  0.4240940000000  0.4338970000000  0.5206670000000 1.0
C      1  0.4822800000000  0.5963550000000  0.5136040000000 1.0
C      1  0.4231320000000  0.4666650000000  0.4299440000000 1.0
C      1  0.4632770000000  0.5831490000000  0.5486070000000 1.0
C      1  0.5226330000000  0.4715640000000  0.4655580000000 1.0
C      1  0.4626910000000  0.4157380000000  0.5264300000000 1.0
C      1  0.5889530000000  0.5262420000000  0.5410180000000 1.0
C      1  0.5481470000000  0.5551480000000  0.5443480000000 1.0
C      1  0.5970570000000  0.5239680000000  0.4974530000000 1.0
C      1  0.4665260000000  0.4628100000000  0.5297140000000 1.0
C      1  0.5969600000000  0.5085010000000  0.4738660000000 1.0
C      1  0.4821300000000  0.5102700000000  0.4650440000000 1.0
C      1  0.4864220000000  0.4582860000000  0.5738580000000 1.0
C      1  0.5133240000000  0.3974880000000  0.5082440000000 1.0
C      1  0.5760790000000  0.5502010000000  0.5299470000000 1.0
C      1  0.5725710000000  0.5075290000000  0.4345000000000 1.0
C      1  0.4816820000000  0.5244780000000  0.4184910000000 1.0
C      1  0.5539200000000  0.4838630000000  0.5613250000000 1.0
C      1  0.5111660000000  0.5166800000000  0.5409540000000 1.0
C      1  0.4552160000000  0.5860740000000  0.5210140000000 1.0
C      1  0.5515790000000  0.5085230000000  0.5182430000000 1.0
C      1  0.5416170000000  0.5036450000000  0.4922790000000 1.0
C      1  0.4889970000000  0.5943560000000  0.5417700000000 1.0
C      1  0.4853350000000  0.4974380000000  0.4143810000000 1.0
C      1  0.5561520000000  0.5086970000000  0.5749020000000 1.0
C      1  0.5856510000000  0.4805210000000  0.5184390000000 1.0
C      1  0.5787680000000  0.5191090000000  0.5643960000000 1.0
C      1  0.5228730000000  0.4154290000000  0.5278000000000 1.0
C      1  0.5273880000000  0.5927770000000  0.4882570000000 1.0
C      1  0.5875810000000  0.4807420000000  0.4713840000000 1.0
C      1  0.5209350000000  0.4932830000000  0.4456940000000 1.0
C      1  0.4831270000000  0.5517270000000  0.5783310000000 1.0
C      1  0.5487220000000  0.4647670000000  0.4465160000000 1.0
C      1  0.5807700000000  0.4645040000000  0.4944900000000 1.0
C      1  0.5110620000000  0.5160190000000  0.4594180000000 1.0
END
