TITL C-141435-3362-8 101.602319962543 125000 -661.182857712612 0 0 96 (C1) n - 1
REM
REM in /rds/project/t2_vol4/rds-t2-cs072/BORA/CARBON/from-Arr/AIRSS/Generating-Clusters/GAP-ML-2020/Only-C1/SD-CG/HFTN-CG
REM
REM
REM
REM
REM
REM ./C.cell (11c1c37f851c82e70ff6c80c92926a4b)
REM AIRSS Version 0.9.1 bugfix July 2018 build 013d7b7c2542+ Fri, 06 Jul 2018 19:26:36 +0100
REM compiler GCC version 9.3.0
REM options -cpp -mtune=generic -march=x86-64 -g -O0
REM seed 729382130 -1635971116 506890723 -996265137 46892551 105822012 746026946 -2108462796 1370362520 -1623985007 -634524937 221508323 1631944623 -609087452 301042385 1305001953 -2118750301 -1202557772 -1603052038 1733441189 1575241419 1445605127 2014222780 1520509385 1945860406 -1137261554 895802397 -86595193 1111088416 12611457 940778326 766827408 -1554936223
REM
CELL 1.54180   50.00000   50.00000   50.00000   90.00000   90.00000   90.00000
LATT -1
SFAC C  
C      1  0.4921440000000  0.5539180000000  0.5550640000000 1.0
C      1  0.4259790000000  0.5481990000000  0.4667630000000 1.0
C      1  0.5636470000000  0.4924750000000  0.5534080000000 1.0
C      1  0.4437580000000  0.4759700000000  0.4494050000000 1.0
C      1  0.4607950000000  0.4279730000000  0.5266180000000 1.0
C      1  0.5260540000000  0.4303860000000  0.5229780000000 1.0
C      1  0.5399620000000  0.5011220000000  0.5685930000000 1.0
C      1  0.5566630000000  0.5586030000000  0.4971720000000 1.0
C      1  0.4848600000000  0.5016590000000  0.5223490000000 1.0
C      1  0.5730860000000  0.4913230000000  0.4440640000000 1.0
C      1  0.5333080000000  0.4998700000000  0.4223510000000 1.0
C      1  0.4402350000000  0.4767260000000  0.5355040000000 1.0
C      1  0.4350130000000  0.5007830000000  0.4599950000000 1.0
C      1  0.5553910000000  0.5388680000000  0.5458420000000 1.0
C      1  0.4657870000000  0.5751280000000  0.4935970000000 1.0
C      1  0.4274230000000  0.5248830000000  0.4490130000000 1.0
C      1  0.4499170000000  0.4591550000000  0.4733870000000 1.0
C      1  0.4951170000000  0.5420540000000  0.4388860000000 1.0
C      1  0.4929130000000  0.5237050000000  0.5879190000000 1.0
C      1  0.5470070000000  0.5554530000000  0.5239250000000 1.0
C      1  0.5161510000000  0.4581000000000  0.5663070000000 1.0
C      1  0.4775980000000  0.4473050000000  0.4382200000000 1.0
C      1  0.5234390000000  0.5692220000000  0.4535880000000 1.0
C      1  0.4955340000000  0.5325940000000  0.4714990000000 1.0
C      1  0.4969640000000  0.4959130000000  0.5920650000000 1.0
C      1  0.4809350000000  0.4499940000000  0.5316390000000 1.0
C      1  0.5865270000000  0.4871600000000  0.4705190000000 1.0
C      1  0.4356690000000  0.4992430000000  0.5526800000000 1.0
C      1  0.5440950000000  0.5261050000000  0.4286820000000 1.0
C      1  0.5368190000000  0.4207090000000  0.4990360000000 1.0
C      1  0.4641060000000  0.4729990000000  0.4303090000000 1.0
C      1  0.4417610000000  0.4306600000000  0.5070550000000 1.0
C      1  0.4891270000000  0.4511430000000  0.5604330000000 1.0
C      1  0.5206670000000  0.4367770000000  0.4526460000000 1.0
C      1  0.5695660000000  0.5200580000000  0.4417620000000 1.0
C      1  0.5287390000000  0.4737220000000  0.5309780000000 1.0
C      1  0.4683190000000  0.5742740000000  0.4640420000000 1.0
C      1  0.4471130000000  0.5610150000000  0.4510230000000 1.0
C      1  0.4734210000000  0.5258130000000  0.4259260000000 1.0
C      1  0.5157730000000  0.4230440000000  0.4772780000000 1.0
C      1  0.4654640000000  0.5281290000000  0.5781340000000 1.0
C      1  0.5063930000000  0.4917660000000  0.4276150000000 1.0
C      1  0.4692210000000  0.4592280000000  0.5771600000000 1.0
C      1  0.4752810000000  0.5303620000000  0.5161010000000 1.0
C      1  0.5105230000000  0.5404180000000  0.5732170000000 1.0
C      1  0.5707710000000  0.4600070000000  0.5142710000000 1.0
C      1  0.4232130000000  0.5536170000000  0.4927430000000 1.0
C      1  0.4876050000000  0.4272790000000  0.4869680000000 1.0
C      1  0.4698930000000  0.4396250000000  0.4648320000000 1.0
C      1  0.4926030000000  0.5706200000000  0.4493230000000 1.0
C      1  0.5089330000000  0.4982550000000  0.5005120000000 1.0
C      1  0.5835650000000  0.5291870000000  0.4665980000000 1.0
C      1  0.5340960000000  0.4646020000000  0.4560100000000 1.0
C      1  0.4317660000000  0.5186870000000  0.5318230000000 1.0
C      1  0.5596520000000  0.4667810000000  0.5396770000000 1.0
C      1  0.4238730000000  0.4761880000000  0.5120830000000 1.0
C      1  0.5610090000000  0.5111150000000  0.5078670000000 1.0
C      1  0.4681260000000  0.4760100000000  0.5208130000000 1.0
C      1  0.4959100000000  0.5026520000000  0.5475160000000 1.0
C      1  0.4704610000000  0.4841970000000  0.5863980000000 1.0
C      1  0.5109410000000  0.5550790000000  0.4892700000000 1.0
C      1  0.5499600000000  0.4792720000000  0.4353530000000 1.0
C      1  0.4692960000000  0.5290490000000  0.4868570000000 1.0
C      1  0.4905120000000  0.5708280000000  0.5045500000000 1.0
C      1  0.5221240000000  0.5430310000000  0.5154240000000 1.0
C      1  0.5019780000000  0.4432640000000  0.5114350000000 1.0
C      1  0.5300210000000  0.5137670000000  0.5149900000000 1.0
C      1  0.4650680000000  0.4149190000000  0.5023180000000 1.0
C      1  0.5131640000000  0.5096830000000  0.4734440000000 1.0
C      1  0.4490330000000  0.5376210000000  0.4335020000000 1.0
C      1  0.5106520000000  0.4853720000000  0.4564790000000 1.0
C      1  0.4504010000000  0.5419710000000  0.5310160000000 1.0
C      1  0.4435040000000  0.5623040000000  0.5088650000000 1.0
C      1  0.5697580000000  0.5345490000000  0.4911060000000 1.0
C      1  0.5206230000000  0.4828230000000  0.5820570000000 1.0
C      1  0.5341080000000  0.4493350000000  0.5454350000000 1.0
C      1  0.5246110000000  0.5464350000000  0.4347840000000 1.0
C      1  0.5240480000000  0.5005660000000  0.5418360000000 1.0
C      1  0.4666030000000  0.4788830000000  0.4900730000000 1.0
C      1  0.5433960000000  0.4654220000000  0.4848420000000 1.0
C      1  0.5367520000000  0.5308110000000  0.5666160000000 1.0
C      1  0.4287540000000  0.5041020000000  0.5066030000000 1.0
C      1  0.4956880000000  0.5514860000000  0.5264200000000 1.0
C      1  0.5180280000000  0.4689550000000  0.5022970000000 1.0
C      1  0.5682030000000  0.4828010000000  0.4941970000000 1.0
C      1  0.5346850000000  0.5687800000000  0.4795810000000 1.0
C      1  0.6034550000000  0.5091620000000  0.4708520000000 1.0
C      1  0.4951210000000  0.4784160000000  0.4813500000000 1.0
C      1  0.4515040000000  0.5036690000000  0.5760790000000 1.0
C      1  0.4302040000000  0.4535830000000  0.4949830000000 1.0
C      1  0.5538790000000  0.4417130000000  0.4999650000000 1.0
C      1  0.5691680000000  0.5152650000000  0.5371670000000 1.0
C      1  0.5009920000000  0.4344930000000  0.4329390000000 1.0
C      1  0.4644510000000  0.5472840000000  0.5578930000000 1.0
C      1  0.4505170000000  0.5049280000000  0.4854680000000 1.0
C      1  0.4790560000000  0.4975560000000  0.4217770000000 1.0
END
