TITL C-140197-7347-6 560.090535903129 125000 -527.631564661709 0 0 76 (C1) n - 1
REM
REM in /rds/project/t2_vol4/rds-t2-cs072/BORA/CARBON/from-Arr/AIRSS/Generating-Clusters/GAP-ML-2020/Only-C1/SD-CG/HFTN-CG
REM
REM
REM
REM
REM
REM ./C.cell (11c1c37f851c82e70ff6c80c92926a4b)
REM AIRSS Version 0.9.1 bugfix July 2018 build 013d7b7c2542+ Fri, 06 Jul 2018 19:26:36 +0100
REM compiler GCC version 9.3.0
REM options -cpp -mtune=generic -march=x86-64 -g -O0
REM seed -1143161154 552423382 1371398981 -278519015 2114514324 1035086035 -1636980028 -294013504 417679276 -1996720340 -34613124 -15531306 -1325193621 1029256709 -1613318618 -1820095795 485234736 393932255 -331906467 -1566942070 2085228223 1403067063 -1422983999 1982809793 -164984774 -754923972 1072569563 -1068579151 -39766678 50932996 1708984708 1702119506 1918970908
REM
CELL 1.54180   50.00000   50.00000   50.00000   90.00000   90.00000   90.00000
LATT -1
SFAC C  
C      1  0.4245750000000  0.5011010000000  0.5172870000000 1.0
C      1  0.4795810000000  0.5836640000000  0.5065680000000 1.0
C      1  0.4986560000000  0.5269150000000  0.4824800000000 1.0
C      1  0.4552250000000  0.4627410000000  0.5294000000000 1.0
C      1  0.4931050000000  0.5441550000000  0.4335400000000 1.0
C      1  0.5390130000000  0.4572330000000  0.4395980000000 1.0
C      1  0.5207200000000  0.4346770000000  0.4456350000000 1.0
C      1  0.5299690000000  0.4804100000000  0.5322800000000 1.0
C      1  0.5473420000000  0.4558420000000  0.5271440000000 1.0
C      1  0.4721490000000  0.5303750000000  0.5353730000000 1.0
C      1  0.5327440000000  0.5478900000000  0.4555460000000 1.0
C      1  0.4956750000000  0.4417630000000  0.4540760000000 1.0
C      1  0.5354620000000  0.5436550000000  0.5007350000000 1.0
C      1  0.4863020000000  0.5459860000000  0.5573430000000 1.0
C      1  0.4628560000000  0.5659390000000  0.4957890000000 1.0
C      1  0.5168130000000  0.5033910000000  0.4323480000000 1.0
C      1  0.5060500000000  0.5836720000000  0.5152460000000 1.0
C      1  0.5290720000000  0.4199220000000  0.4951220000000 1.0
C      1  0.5387880000000  0.4860940000000  0.4391280000000 1.0
C      1  0.5692300000000  0.5168420000000  0.4724320000000 1.0
C      1  0.5618720000000  0.4935320000000  0.4560160000000 1.0
C      1  0.4278840000000  0.5005010000000  0.4703530000000 1.0
C      1  0.5718780000000  0.4692910000000  0.5197390000000 1.0
C      1  0.5138210000000  0.5669510000000  0.4669930000000 1.0
C      1  0.4576810000000  0.5392840000000  0.5096950000000 1.0
C      1  0.4797980000000  0.4933380000000  0.5004770000000 1.0
C      1  0.4914460000000  0.5079160000000  0.5254570000000 1.0
C      1  0.5853000000000  0.5062630000000  0.4943880000000 1.0
C      1  0.4666010000000  0.4792220000000  0.4415590000000 1.0
C      1  0.5008420000000  0.4225590000000  0.4948720000000 1.0
C      1  0.5727170000000  0.4957090000000  0.5348830000000 1.0
C      1  0.5312530000000  0.5422290000000  0.5682690000000 1.0
C      1  0.5188460000000  0.5324900000000  0.4359990000000 1.0
C      1  0.4434750000000  0.4953160000000  0.5631290000000 1.0
C      1  0.4517910000000  0.5222590000000  0.5590500000000 1.0
C      1  0.5089910000000  0.4992800000000  0.5705970000000 1.0
C      1  0.5067960000000  0.4291400000000  0.5365550000000 1.0
C      1  0.4752340000000  0.5235780000000  0.4272350000000 1.0
C      1  0.5254910000000  0.4911380000000  0.5030000000000 1.0
C      1  0.4428950000000  0.5429510000000  0.4591350000000 1.0
C      1  0.5330670000000  0.5149840000000  0.5662360000000 1.0
C      1  0.4944420000000  0.4412530000000  0.5567920000000 1.0
C      1  0.4619650000000  0.5623220000000  0.4670210000000 1.0
C      1  0.4295840000000  0.4854890000000  0.4940940000000 1.0
C      1  0.4610720000000  0.4383440000000  0.5124110000000 1.0
C      1  0.4266030000000  0.5278890000000  0.4776640000000 1.0
C      1  0.5205730000000  0.5686420000000  0.4946530000000 1.0
C      1  0.5887820000000  0.5142900000000  0.5208560000000 1.0
C      1  0.4445350000000  0.4971680000000  0.4475780000000 1.0
C      1  0.5576740000000  0.4474120000000  0.4598830000000 1.0
C      1  0.4695590000000  0.4530900000000  0.4534230000000 1.0
C      1  0.5479110000000  0.4978320000000  0.5483700000000 1.0
C      1  0.4876840000000  0.5636870000000  0.4533940000000 1.0
C      1  0.4502040000000  0.5238580000000  0.4390720000000 1.0
C      1  0.4668580000000  0.4829810000000  0.5736270000000 1.0
C      1  0.4350090000000  0.4834590000000  0.5384660000000 1.0
C      1  0.4731450000000  0.5301010000000  0.5775410000000 1.0
C      1  0.4957390000000  0.4496140000000  0.4829460000000 1.0
C      1  0.4844160000000  0.5040590000000  0.5836590000000 1.0
C      1  0.4645410000000  0.4503140000000  0.4841180000000 1.0
C      1  0.5160950000000  0.5197310000000  0.5054620000000 1.0
C      1  0.5022820000000  0.4865680000000  0.5450130000000 1.0
C      1  0.5827140000000  0.4761740000000  0.4941690000000 1.0
C      1  0.5508540000000  0.5383660000000  0.4754260000000 1.0
C      1  0.4850740000000  0.4233400000000  0.5184670000000 1.0
C      1  0.5334260000000  0.4317240000000  0.5220170000000 1.0
C      1  0.5037740000000  0.4782640000000  0.4904180000000 1.0
C      1  0.4793600000000  0.4658240000000  0.5520470000000 1.0
C      1  0.5117390000000  0.5598450000000  0.5579750000000 1.0
C      1  0.4877260000000  0.4975640000000  0.4299150000000 1.0
C      1  0.5142240000000  0.5829130000000  0.5418920000000 1.0
C      1  0.4735640000000  0.5182170000000  0.4868790000000 1.0
C      1  0.4560420000000  0.4740670000000  0.4997180000000 1.0
C      1  0.4306440000000  0.5281640000000  0.5063410000000 1.0
C      1  0.5392790000000  0.4272510000000  0.4692290000000 1.0
C      1  0.5718990000000  0.4699830000000  0.4687600000000 1.0
END
