TITL C-147429-8099-6 25.3072441975438 125000 -654.703931760589 0 0 94 (C1) n - 1
REM
REM in /rds/project/t2_vol4/rds-t2-cs072/BORA/CARBON/from-Arr/AIRSS/Generating-Clusters/GAP-ML-2020/Only-C1/SD-CG/HFTN-CG
REM
REM
REM
REM
REM
REM ./C.cell (11c1c37f851c82e70ff6c80c92926a4b)
REM AIRSS Version 0.9.1 bugfix July 2018 build 013d7b7c2542+ Fri, 06 Jul 2018 19:26:36 +0100
REM compiler GCC version 9.3.0
REM options -cpp -mtune=generic -march=x86-64 -g -O0
REM seed -1249792110 -1315058713 1680045953 -313901668 2142696372 1242568882 570671740 151174279 -100720313 -2068680803 1665530870 -750180008 584090315 -1221689725 -1864941306 159391777 -1493172553 -166967238 944590279 -545673843 850804945 -261493358 547876700 -2102552709 52291190 1785476489 537420764 -1176725358 1048619629 -1832233711 762214311 66584200 81468184
REM
CELL 1.54180   50.00000   50.00000   50.00000   90.00000   90.00000   90.00000
LATT -1
SFAC C  
C      1  0.4646030000000  0.5369360000000  0.5792170000000 1.0
C      1  0.5296860000000  0.5105050000000  0.5496090000000 1.0
C      1  0.5190120000000  0.4503320000000  0.4660080000000 1.0
C      1  0.5216010000000  0.4805600000000  0.5857340000000 1.0
C      1  0.4977900000000  0.5630720000000  0.4638290000000 1.0
C      1  0.5434290000000  0.5460210000000  0.5655600000000 1.0
C      1  0.4639530000000  0.5401360000000  0.5003690000000 1.0
C      1  0.5659520000000  0.5208890000000  0.4414560000000 1.0
C      1  0.5720600000000  0.5101420000000  0.5393150000000 1.0
C      1  0.4741510000000  0.5728150000000  0.5319190000000 1.0
C      1  0.5085510000000  0.5230130000000  0.5947150000000 1.0
C      1  0.5654700000000  0.4906290000000  0.5598100000000 1.0
C      1  0.4801440000000  0.4195520000000  0.5000010000000 1.0
C      1  0.4116540000000  0.5024890000000  0.5078960000000 1.0
C      1  0.5507200000000  0.5307810000000  0.5397140000000 1.0
C      1  0.5368350000000  0.4501300000000  0.5542890000000 1.0
C      1  0.4435100000000  0.4475920000000  0.4787660000000 1.0
C      1  0.5446010000000  0.5551810000000  0.4674930000000 1.0
C      1  0.5445990000000  0.5264370000000  0.4216190000000 1.0
C      1  0.5660810000000  0.5219180000000  0.4941700000000 1.0
C      1  0.4311770000000  0.4568580000000  0.5035940000000 1.0
C      1  0.4692860000000  0.5127880000000  0.4884530000000 1.0
C      1  0.5558220000000  0.4721850000000  0.5166280000000 1.0
C      1  0.5301280000000  0.4848450000000  0.5036310000000 1.0
C      1  0.4152180000000  0.4795850000000  0.4941810000000 1.0
C      1  0.4287310000000  0.5332730000000  0.4742930000000 1.0
C      1  0.5207420000000  0.5411250000000  0.4268390000000 1.0
C      1  0.5339390000000  0.4319090000000  0.5330460000000 1.0
C      1  0.4797390000000  0.5767670000000  0.5598410000000 1.0
C      1  0.5281050000000  0.5679530000000  0.5688050000000 1.0
C      1  0.4381680000000  0.4653930000000  0.4565310000000 1.0
C      1  0.5079950000000  0.4992190000000  0.4112520000000 1.0
C      1  0.5602270000000  0.4709090000000  0.4528820000000 1.0
C      1  0.5361240000000  0.4751070000000  0.4731590000000 1.0
C      1  0.4477370000000  0.5111190000000  0.5425370000000 1.0
C      1  0.5425080000000  0.4987430000000  0.5759160000000 1.0
C      1  0.5011000000000  0.5676520000000  0.5760200000000 1.0
C      1  0.4812700000000  0.4233160000000  0.5303430000000 1.0
C      1  0.5085610000000  0.4154260000000  0.4993310000000 1.0
C      1  0.5643300000000  0.5335190000000  0.4672630000000 1.0
C      1  0.5217210000000  0.5153600000000  0.5021200000000 1.0
C      1  0.4848250000000  0.4696420000000  0.4962590000000 1.0
C      1  0.5556580000000  0.4833060000000  0.4153110000000 1.0
C      1  0.5096240000000  0.4841510000000  0.4374200000000 1.0
C      1  0.4585560000000  0.4884070000000  0.5288090000000 1.0
C      1  0.5281790000000  0.4321640000000  0.4871810000000 1.0
C      1  0.4556910000000  0.5596810000000  0.5651250000000 1.0
C      1  0.4996070000000  0.4519550000000  0.4142930000000 1.0
C      1  0.4729670000000  0.4644880000000  0.4145590000000 1.0
C      1  0.5717060000000  0.4930270000000  0.4379720000000 1.0
C      1  0.4587630000000  0.5111070000000  0.5691480000000 1.0
C      1  0.4882790000000  0.5543560000000  0.5118590000000 1.0
C      1  0.5372360000000  0.5028940000000  0.4079220000000 1.0
C      1  0.5449220000000  0.5366460000000  0.5098960000000 1.0
C      1  0.5100710000000  0.4174710000000  0.5284700000000 1.0
C      1  0.5271260000000  0.4971710000000  0.4569570000000 1.0
C      1  0.4972240000000  0.5258450000000  0.4203310000000 1.0
C      1  0.4680770000000  0.4455010000000  0.5427710000000 1.0
C      1  0.4989110000000  0.4963050000000  0.5923840000000 1.0
C      1  0.4858740000000  0.5095240000000  0.4657060000000 1.0
C      1  0.4843820000000  0.4809750000000  0.4523340000000 1.0
C      1  0.4633630000000  0.4891000000000  0.4995040000000 1.0
C      1  0.4855630000000  0.4653390000000  0.5597660000000 1.0
C      1  0.4754300000000  0.4884600000000  0.5782480000000 1.0
C      1  0.5064510000000  0.5648620000000  0.4910530000000 1.0
C      1  0.4719900000000  0.5529710000000  0.4554060000000 1.0
C      1  0.4209640000000  0.4854800000000  0.4658910000000 1.0
C      1  0.4697150000000  0.4368820000000  0.4806590000000 1.0
C      1  0.5355970000000  0.5249430000000  0.5845390000000 1.0
C      1  0.5570980000000  0.4681730000000  0.5457330000000 1.0
C      1  0.4930270000000  0.4759800000000  0.3995850000000 1.0
C      1  0.5014000000000  0.5136290000000  0.5451820000000 1.0
C      1  0.4907790000000  0.5432620000000  0.5889760000000 1.0
C      1  0.5132530000000  0.5155660000000  0.4734550000000 1.0
C      1  0.5017390000000  0.5280900000000  0.5217060000000 1.0
C      1  0.4476010000000  0.5600960000000  0.5381610000000 1.0
C      1  0.5047990000000  0.4747910000000  0.5146140000000 1.0
C      1  0.4431450000000  0.5354030000000  0.5230700000000 1.0
C      1  0.5144020000000  0.4587700000000  0.5699260000000 1.0
C      1  0.4746170000000  0.5273370000000  0.4393080000000 1.0
C      1  0.4295090000000  0.5115030000000  0.4556120000000 1.0
C      1  0.4897670000000  0.4866150000000  0.5376510000000 1.0
C      1  0.5480250000000  0.4597160000000  0.4288960000000 1.0
C      1  0.4507900000000  0.5085820000000  0.4374500000000 1.0
C      1  0.5347120000000  0.5600040000000  0.4933000000000 1.0
C      1  0.4474520000000  0.4601180000000  0.5288660000000 1.0
C      1  0.4585250000000  0.4785590000000  0.4372710000000 1.0
C      1  0.5221210000000  0.5581640000000  0.4489880000000 1.0
C      1  0.4221620000000  0.5266280000000  0.5025570000000 1.0
C      1  0.4899480000000  0.4574160000000  0.4703500000000 1.0
C      1  0.5207340000000  0.4554100000000  0.4345510000000 1.0
C      1  0.5455350000000  0.4418520000000  0.5089600000000 1.0
C      1  0.5732620000000  0.4992930000000  0.5127890000000 1.0
C      1  0.4518190000000  0.5502070000000  0.4751130000000 1.0
END
