TITL C-140215-7015-2 29.0717687869715 125000 -301.094605406261 0 0 44 (C1) n - 1
REM
REM in /rds/project/t2_vol4/rds-t2-cs072/BORA/CARBON/from-Arr/AIRSS/Generating-Clusters/GAP-ML-2020/Only-C1/SD-CG/HFTN-CG
REM
REM
REM
REM
REM
REM ./C.cell (11c1c37f851c82e70ff6c80c92926a4b)
REM AIRSS Version 0.9.1 bugfix July 2018 build 013d7b7c2542+ Fri, 06 Jul 2018 19:26:36 +0100
REM compiler GCC version 9.3.0
REM options -cpp -mtune=generic -march=x86-64 -g -O0
REM seed -1011463200 583872634 -1264234505 -565053031 -1497927228 465694478 -488068461 147543589 -1078561105 1105080380 1476188238 -1781354902 -665248497 -680349676 -2015227533 1498588233 1839790480 230078882 1572739003 -1053724875 -627640851 77237709 952054303 -1474179982 -1795310334 745612220 1619278306 -15329576 -1476942353 -601074409 -1626415325 2136509159 -1929510328
REM
CELL 1.54180   50.00000   50.00000   50.00000   90.00000   90.00000   90.00000
LATT -1
SFAC C  
C      1  0.5222090000000  0.5586740000000  0.4618960000000 1.0
C      1  0.4692670000000  0.4874610000000  0.4201530000000 1.0
C      1  0.4809410000000  0.5443250000000  0.4815150000000 1.0
C      1  0.5475800000000  0.4781780000000  0.4936630000000 1.0
C      1  0.4911880000000  0.5532410000000  0.5075460000000 1.0
C      1  0.4711740000000  0.5590480000000  0.5259860000000 1.0
C      1  0.5170550000000  0.4803140000000  0.5567540000000 1.0
C      1  0.5193860000000  0.5427590000000  0.5453510000000 1.0
C      1  0.4758970000000  0.5179230000000  0.5512430000000 1.0
C      1  0.5150570000000  0.4411820000000  0.4752400000000 1.0
C      1  0.5510900000000  0.5135090000000  0.5264050000000 1.0
C      1  0.4759470000000  0.5047730000000  0.4401940000000 1.0
C      1  0.4943500000000  0.4502530000000  0.5294650000000 1.0
C      1  0.4710290000000  0.4341810000000  0.4856870000000 1.0
C      1  0.5005230000000  0.5263250000000  0.5606350000000 1.0
C      1  0.4536220000000  0.5093010000000  0.4598030000000 1.0
C      1  0.5511850000000  0.5351970000000  0.4777900000000 1.0
C      1  0.4491300000000  0.4547360000000  0.4807620000000 1.0
C      1  0.5307320000000  0.4529860000000  0.4941330000000 1.0
C      1  0.5215420000000  0.5064000000000  0.5650860000000 1.0
C      1  0.4932100000000  0.4277590000000  0.4706540000000 1.0
C      1  0.4643180000000  0.5334830000000  0.5302170000000 1.0
C      1  0.4534080000000  0.4647930000000  0.5078300000000 1.0
C      1  0.4700030000000  0.4901600000000  0.5458960000000 1.0
C      1  0.5478860000000  0.5608200000000  0.4658220000000 1.0
C      1  0.4532830000000  0.5159560000000  0.5100670000000 1.0
C      1  0.5220560000000  0.5043230000000  0.4611070000000 1.0
C      1  0.4539490000000  0.4894050000000  0.5212270000000 1.0
C      1  0.5638450000000  0.4877580000000  0.4723450000000 1.0
C      1  0.5357800000000  0.4692000000000  0.5378320000000 1.0
C      1  0.5370570000000  0.5274680000000  0.5030520000000 1.0
C      1  0.5233100000000  0.5018930000000  0.4903010000000 1.0
C      1  0.5012430000000  0.5173270000000  0.4473010000000 1.0
C      1  0.5216070000000  0.4509640000000  0.5211260000000 1.0
C      1  0.4358770000000  0.4674050000000  0.4609110000000 1.0
C      1  0.5524730000000  0.4853650000000  0.5221180000000 1.0
C      1  0.4905730000000  0.4709750000000  0.5495470000000 1.0
C      1  0.5513320000000  0.5102430000000  0.4616870000000 1.0
C      1  0.4306290000000  0.4925640000000  0.4582340000000 1.0
C      1  0.4985580000000  0.5445190000000  0.4590860000000 1.0
C      1  0.5173320000000  0.5465070000000  0.5175100000000 1.0
C      1  0.4601310000000  0.5241200000000  0.4830080000000 1.0
C      1  0.5404370000000  0.5224030000000  0.5504530000000 1.0
C      1  0.4727980000000  0.4438230000000  0.5133580000000 1.0
END
