TITL C-141417-3279-1 -0.138296218191317 125000 -575.062077697513 0 0 82 (C1) n - 1
REM
REM in /rds/project/t2_vol4/rds-t2-cs072/BORA/CARBON/from-Arr/AIRSS/Generating-Clusters/GAP-ML-2020/Only-C1/SD-CG/HFTN-CG
REM
REM
REM
REM
REM
REM ./C.cell (11c1c37f851c82e70ff6c80c92926a4b)
REM AIRSS Version 0.9.1 bugfix July 2018 build 013d7b7c2542+ Fri, 06 Jul 2018 19:26:36 +0100
REM compiler GCC version 9.3.0
REM options -cpp -mtune=generic -march=x86-64 -g -O0
REM seed -1108482728 742554525 -1968748732 2032017055 1696219994 1531869714 246617177 1125357124 1838360083 1900706816 -860093394 -1129402729 -2088641213 1652247565 -2023155718 -183663492 -208597021 79369483 11427929 756898943 -962987347 2046908039 389929584 -1419653088 -616806722 837021482 -645774073 -2047840420 1895843789 22020034 -653492876 -529247433 -2145696394
REM
CELL 1.54180   50.00000   50.00000   50.00000   90.00000   90.00000   90.00000
LATT -1
SFAC C  
C      1  0.5370040000000  0.4905350000000  0.4309880000000 1.0
C      1  0.4475110000000  0.5121730000000  0.5503850000000 1.0
C      1  0.5095410000000  0.4539620000000  0.4347700000000 1.0
C      1  0.5152880000000  0.5266650000000  0.5734360000000 1.0
C      1  0.5274770000000  0.4257840000000  0.5248210000000 1.0
C      1  0.5258300000000  0.5154720000000  0.4432410000000 1.0
C      1  0.4657390000000  0.4321710000000  0.4825800000000 1.0
C      1  0.5462600000000  0.5763100000000  0.4790570000000 1.0
C      1  0.5656620000000  0.4836290000000  0.4710280000000 1.0
C      1  0.4812140000000  0.4552930000000  0.4374890000000 1.0
C      1  0.4871790000000  0.4661350000000  0.4866300000000 1.0
C      1  0.4377890000000  0.4566660000000  0.5137910000000 1.0
C      1  0.4691960000000  0.5071610000000  0.4933350000000 1.0
C      1  0.4225610000000  0.5084340000000  0.5074930000000 1.0
C      1  0.5712550000000  0.5226340000000  0.5022370000000 1.0
C      1  0.4767230000000  0.4842940000000  0.5083810000000 1.0
C      1  0.5625740000000  0.4411910000000  0.5061560000000 1.0
C      1  0.4371680000000  0.5239140000000  0.5263100000000 1.0
C      1  0.5047860000000  0.5375240000000  0.4335350000000 1.0
C      1  0.4672360000000  0.5300860000000  0.5609700000000 1.0
C      1  0.5116590000000  0.4785070000000  0.4761560000000 1.0
C      1  0.4441360000000  0.4340340000000  0.4990400000000 1.0
C      1  0.5509680000000  0.4806920000000  0.5146080000000 1.0
C      1  0.4837310000000  0.4510720000000  0.5706410000000 1.0
C      1  0.5666830000000  0.4662110000000  0.4947360000000 1.0
C      1  0.4571530000000  0.5620200000000  0.4956650000000 1.0
C      1  0.5694370000000  0.5026240000000  0.5218390000000 1.0
C      1  0.5162950000000  0.5118160000000  0.5130660000000 1.0
C      1  0.5075480000000  0.5327200000000  0.4972480000000 1.0
C      1  0.4682530000000  0.5604910000000  0.4500560000000 1.0
C      1  0.4721540000000  0.4776310000000  0.4211870000000 1.0
C      1  0.4875570000000  0.5205860000000  0.5777700000000 1.0
C      1  0.5482180000000  0.4920030000000  0.5612180000000 1.0
C      1  0.5209200000000  0.4332340000000  0.4795580000000 1.0
C      1  0.5565530000000  0.5711030000000  0.5048430000000 1.0
C      1  0.5294490000000  0.5789890000000  0.5014510000000 1.0
C      1  0.5132990000000  0.5604870000000  0.4482340000000 1.0
C      1  0.4993240000000  0.4936650000000  0.5252690000000 1.0
C      1  0.5297010000000  0.5019090000000  0.5797600000000 1.0
C      1  0.4899010000000  0.5191200000000  0.4797810000000 1.0
C      1  0.4517300000000  0.5195080000000  0.4384730000000 1.0
C      1  0.4669020000000  0.4557790000000  0.4630060000000 1.0
C      1  0.4527230000000  0.4839890000000  0.5540770000000 1.0
C      1  0.4223320000000  0.5126400000000  0.4783470000000 1.0
C      1  0.4236890000000  0.4793120000000  0.5034510000000 1.0
C      1  0.4355950000000  0.5300600000000  0.4606130000000 1.0
C      1  0.5168250000000  0.4761770000000  0.4180590000000 1.0
C      1  0.4849970000000  0.4943570000000  0.5885840000000 1.0
C      1  0.5394460000000  0.4692090000000  0.5417380000000 1.0
C      1  0.5610780000000  0.5127970000000  0.5472420000000 1.0
C      1  0.5055600000000  0.5638170000000  0.5091020000000 1.0
C      1  0.4248380000000  0.4838400000000  0.4749150000000 1.0
C      1  0.5083960000000  0.4722550000000  0.5427510000000 1.0
C      1  0.5009870000000  0.5574970000000  0.5376800000000 1.0
C      1  0.4907490000000  0.5722160000000  0.4626350000000 1.0
C      1  0.4530300000000  0.5483320000000  0.5206160000000 1.0
C      1  0.4735250000000  0.5498440000000  0.5414090000000 1.0
C      1  0.5228970000000  0.5451120000000  0.5529320000000 1.0
C      1  0.4944690000000  0.4364920000000  0.4938940000000 1.0
C      1  0.4748110000000  0.5377930000000  0.4340300000000 1.0
C      1  0.5094500000000  0.4579350000000  0.5798530000000 1.0
C      1  0.4853810000000  0.4501260000000  0.5408470000000 1.0
C      1  0.4942420000000  0.4899170000000  0.4100340000000 1.0
C      1  0.5484920000000  0.4420520000000  0.5347000000000 1.0
C      1  0.5615210000000  0.5460710000000  0.5165510000000 1.0
C      1  0.5480330000000  0.5296220000000  0.4576760000000 1.0
C      1  0.4476670000000  0.5546450000000  0.4693220000000 1.0
C      1  0.5492640000000  0.4735300000000  0.4504690000000 1.0
C      1  0.4679510000000  0.4754390000000  0.5765090000000 1.0
C      1  0.4603260000000  0.4669800000000  0.5307010000000 1.0
C      1  0.4513320000000  0.4911300000000  0.4353760000000 1.0
C      1  0.5399420000000  0.5571410000000  0.4592700000000 1.0
C      1  0.5401090000000  0.4241610000000  0.4980730000000 1.0
C      1  0.5258790000000  0.4547920000000  0.4589520000000 1.0
C      1  0.5654230000000  0.5135310000000  0.4750130000000 1.0
C      1  0.5270390000000  0.4905800000000  0.4986150000000 1.0
C      1  0.5113980000000  0.4828230000000  0.5909070000000 1.0
C      1  0.5041780000000  0.5021710000000  0.4615100000000 1.0
C      1  0.4438410000000  0.4742470000000  0.4571390000000 1.0
C      1  0.4994520000000  0.4318770000000  0.5227290000000 1.0
C      1  0.5497150000000  0.5386920000000  0.5423000000000 1.0
C      1  0.4838480000000  0.5725690000000  0.4911400000000 1.0
END
