TITL C-141431-3295-3 0.0713876845953568 125000 -890.03442820354 0 0 129 (C1) n - 1
REM
REM in /rds/project/t2_vol4/rds-t2-cs072/BORA/CARBON/from-Arr/AIRSS/Generating-Clusters/GAP-ML-2020/Only-C1/SD-CG/HFTN-CG
REM
REM
REM
REM
REM
REM ./C.cell (11c1c37f851c82e70ff6c80c92926a4b)
REM AIRSS Version 0.9.1 bugfix July 2018 build 013d7b7c2542+ Fri, 06 Jul 2018 19:26:36 +0100
REM compiler GCC version 9.3.0
REM options -cpp -mtune=generic -march=x86-64 -g -O0
REM seed 719287720 1392151395 194762949 1757064740 896972193 -362983216 336403550 -227549651 -1474422763 875931934 -1534608347 589945670 1393952825 -467818394 1898093211 -692883973 -218992221 473886990 -94111705 -1106946267 615802579 -1073055241 -1540155616 -1436701575 1924183860 -1931443344 1640556340 1721640150 1807030581 279933914 104315488 1172718762 -640800989
REM
CELL 1.54180   50.00000   50.00000   50.00000   90.00000   90.00000   90.00000
LATT -1
SFAC C  
C      1  0.4940120000000  0.4344470000000  0.4493490000000 1.0
C      1  0.4937760000000  0.5707930000000  0.5730680000000 1.0
C      1  0.4811990000000  0.5623810000000  0.5279870000000 1.0
C      1  0.4498910000000  0.4733520000000  0.5842100000000 1.0
C      1  0.5116730000000  0.5597170000000  0.5118270000000 1.0
C      1  0.4315920000000  0.4913540000000  0.4170360000000 1.0
C      1  0.4767670000000  0.5088580000000  0.5623080000000 1.0
C      1  0.4351650000000  0.5484120000000  0.5102780000000 1.0
C      1  0.5520910000000  0.5700380000000  0.5318290000000 1.0
C      1  0.5028780000000  0.4158050000000  0.4718580000000 1.0
C      1  0.5750440000000  0.5537550000000  0.5423270000000 1.0
C      1  0.5229320000000  0.5862100000000  0.4974000000000 1.0
C      1  0.4240290000000  0.5196600000000  0.5086870000000 1.0
C      1  0.4573730000000  0.4769550000000  0.5211970000000 1.0
C      1  0.5515540000000  0.4831360000000  0.5035950000000 1.0
C      1  0.5119920000000  0.5531810000000  0.4298180000000 1.0
C      1  0.4489120000000  0.5204050000000  0.5666130000000 1.0
C      1  0.5168790000000  0.4558670000000  0.5695810000000 1.0
C      1  0.4997620000000  0.5982480000000  0.4851880000000 1.0
C      1  0.4881720000000  0.5495880000000  0.4742730000000 1.0
C      1  0.5385230000000  0.5103740000000  0.4168890000000 1.0
C      1  0.5395610000000  0.4410560000000  0.5600010000000 1.0
C      1  0.5112070000000  0.5484780000000  0.5596650000000 1.0
C      1  0.4807230000000  0.5301170000000  0.4957120000000 1.0
C      1  0.4733480000000  0.6012380000000  0.4771920000000 1.0
C      1  0.5309640000000  0.4187920000000  0.4774770000000 1.0
C      1  0.5027810000000  0.5060540000000  0.5788650000000 1.0
C      1  0.4487660000000  0.5126760000000  0.4071720000000 1.0
C      1  0.5356910000000  0.5938170000000  0.5230130000000 1.0
C      1  0.4889710000000  0.4518300000000  0.5600670000000 1.0
C      1  0.5866890000000  0.4607440000000  0.5287990000000 1.0
C      1  0.5116140000000  0.5017640000000  0.4727320000000 1.0
C      1  0.5660230000000  0.5265470000000  0.5523420000000 1.0
C      1  0.4774900000000  0.4831010000000  0.5431120000000 1.0
C      1  0.3982730000000  0.5275210000000  0.4643340000000 1.0
C      1  0.4240790000000  0.4618300000000  0.4604440000000 1.0
C      1  0.5882370000000  0.5094930000000  0.4659240000000 1.0
C      1  0.4845460000000  0.5066760000000  0.4813560000000 1.0
C      1  0.5155190000000  0.5742190000000  0.4490760000000 1.0
C      1  0.4498350000000  0.5494350000000  0.5603950000000 1.0
C      1  0.4788680000000  0.4854240000000  0.4364830000000 1.0
C      1  0.5858400000000  0.4468230000000  0.5040020000000 1.0
C      1  0.4383650000000  0.4284510000000  0.5175520000000 1.0
C      1  0.5753930000000  0.5183920000000  0.4432050000000 1.0
C      1  0.4644910000000  0.4293240000000  0.4437050000000 1.0
C      1  0.4505260000000  0.5892960000000  0.4861560000000 1.0
C      1  0.4149830000000  0.4793010000000  0.4850310000000 1.0
C      1  0.4516380000000  0.5568300000000  0.5317580000000 1.0
C      1  0.5652290000000  0.4279540000000  0.5076310000000 1.0
C      1  0.5617030000000  0.4988480000000  0.4276670000000 1.0
C      1  0.4055230000000  0.5105040000000  0.4849080000000 1.0
C      1  0.4699650000000  0.5389660000000  0.4511480000000 1.0
C      1  0.4851160000000  0.5416040000000  0.4254540000000 1.0
C      1  0.5340490000000  0.5700460000000  0.4724290000000 1.0
C      1  0.5486040000000  0.4933990000000  0.5815050000000 1.0
C      1  0.5620690000000  0.4597980000000  0.5490630000000 1.0
C      1  0.5219490000000  0.4494150000000  0.5170000000000 1.0
C      1  0.5621770000000  0.4558360000000  0.4579730000000 1.0
C      1  0.5570900000000  0.4712040000000  0.4333860000000 1.0
C      1  0.5192470000000  0.4888430000000  0.4123570000000 1.0
C      1  0.5869420000000  0.4589670000000  0.4771750000000 1.0
C      1  0.5168100000000  0.5465050000000  0.4846410000000 1.0
C      1  0.4722810000000  0.4584030000000  0.5023920000000 1.0
C      1  0.4907990000000  0.4645930000000  0.4565710000000 1.0
C      1  0.5817630000000  0.5222200000000  0.4917860000000 1.0
C      1  0.4852200000000  0.4275630000000  0.5421560000000 1.0
C      1  0.4448690000000  0.4356560000000  0.5624580000000 1.0
C      1  0.5312600000000  0.4645490000000  0.4228390000000 1.0
C      1  0.4638440000000  0.4506030000000  0.5770820000000 1.0
C      1  0.4224210000000  0.4519400000000  0.5548270000000 1.0
C      1  0.5828250000000  0.5014310000000  0.5514430000000 1.0
C      1  0.5211650000000  0.5281120000000  0.5781880000000 1.0
C      1  0.5973880000000  0.4852710000000  0.4789000000000 1.0
C      1  0.5225380000000  0.4394610000000  0.4349630000000 1.0
C      1  0.4425950000000  0.5496940000000  0.4599320000000 1.0
C      1  0.4891460000000  0.5346540000000  0.5434810000000 1.0
C      1  0.5219780000000  0.4837600000000  0.5744500000000 1.0
C      1  0.4214990000000  0.5342130000000  0.4493480000000 1.0
C      1  0.4624870000000  0.5074460000000  0.4507000000000 1.0
C      1  0.4245660000000  0.4665980000000  0.4308860000000 1.0
C      1  0.5690820000000  0.4820040000000  0.5667130000000 1.0
C      1  0.4768940000000  0.5189310000000  0.4078930000000 1.0
C      1  0.4498790000000  0.4240760000000  0.4209050000000 1.0
C      1  0.4599210000000  0.4941760000000  0.4767120000000 1.0
C      1  0.5990700000000  0.4996500000000  0.5040280000000 1.0
C      1  0.4673860000000  0.5630370000000  0.5761250000000 1.0
C      1  0.5615060000000  0.5598260000000  0.4669850000000 1.0
C      1  0.4877700000000  0.5887330000000  0.5389990000000 1.0
C      1  0.5021610000000  0.4673170000000  0.5046480000000 1.0
C      1  0.4914830000000  0.4944760000000  0.4127410000000 1.0
C      1  0.4914630000000  0.5792470000000  0.4648220000000 1.0
C      1  0.4533530000000  0.4345920000000  0.4950460000000 1.0
C      1  0.4113870000000  0.5077560000000  0.5343730000000 1.0
C      1  0.5142090000000  0.4738970000000  0.4767910000000 1.0
C      1  0.5410180000000  0.4389740000000  0.4958600000000 1.0
C      1  0.5436640000000  0.4654930000000  0.4810610000000 1.0
C      1  0.5418020000000  0.5216580000000  0.5313030000000 1.0
C      1  0.5367440000000  0.5382220000000  0.4264760000000 1.0
C      1  0.5571430000000  0.4125510000000  0.5283320000000 1.0
C      1  0.5290340000000  0.5502230000000  0.5340860000000 1.0
C      1  0.5004410000000  0.4914590000000  0.5254440000000 1.0
C      1  0.4936100000000  0.5197920000000  0.5192220000000 1.0
C      1  0.4257910000000  0.5044480000000  0.5594710000000 1.0
C      1  0.5429440000000  0.4316490000000  0.4524990000000 1.0
C      1  0.4421490000000  0.4947130000000  0.5006410000000 1.0
C      1  0.4039060000000  0.4665060000000  0.5098760000000 1.0
C      1  0.5484500000000  0.5210350000000  0.5770740000000 1.0
C      1  0.4175560000000  0.4468240000000  0.5266920000000 1.0
C      1  0.5083840000000  0.4097130000000  0.4977830000000 1.0
C      1  0.5411980000000  0.4712800000000  0.5282350000000 1.0
C      1  0.4999180000000  0.5978330000000  0.5638110000000 1.0
C      1  0.5952100000000  0.4880100000000  0.5294240000000 1.0
C      1  0.4371360000000  0.5146370000000  0.4332450000000 1.0
C      1  0.5780420000000  0.5515020000000  0.4899110000000 1.0
C      1  0.5148680000000  0.5982260000000  0.5405010000000 1.0
C      1  0.5347220000000  0.4191990000000  0.5422220000000 1.0
C      1  0.5091540000000  0.4213330000000  0.5260510000000 1.0
C      1  0.5603870000000  0.5428610000000  0.4438390000000 1.0
C      1  0.3960910000000  0.4867110000000  0.5266380000000 1.0
C      1  0.4318850000000  0.4427760000000  0.4186620000000 1.0
C      1  0.5293770000000  0.5200830000000  0.4840800000000 1.0
C      1  0.5505980000000  0.5130770000000  0.5029920000000 1.0
C      1  0.4475400000000  0.4436790000000  0.4669670000000 1.0
C      1  0.4673250000000  0.4661660000000  0.4739260000000 1.0
C      1  0.4266650000000  0.4776780000000  0.5698320000000 1.0
C      1  0.5753770000000  0.5620170000000  0.5162230000000 1.0
C      1  0.4565780000000  0.4231130000000  0.5399780000000 1.0
C      1  0.5265480000000  0.4945860000000  0.5396580000000 1.0
C      1  0.4394210000000  0.5644320000000  0.4855790000000 1.0
END
