TITL C-147417-6631-6 3.59352772737661 125000 -635.945777499313 0 0 92 (C1) n - 1
REM
REM in /rds/project/t2_vol4/rds-t2-cs072/BORA/CARBON/from-Arr/AIRSS/Generating-Clusters/GAP-ML-2020/Only-C1/SD-CG/HFTN-CG
REM
REM
REM
REM
REM
REM ./C.cell (11c1c37f851c82e70ff6c80c92926a4b)
REM AIRSS Version 0.9.1 bugfix July 2018 build 013d7b7c2542+ Fri, 06 Jul 2018 19:26:36 +0100
REM compiler GCC version 9.3.0
REM options -cpp -mtune=generic -march=x86-64 -g -O0
REM seed -1173216642 1217000415 -1185564608 -987235327 -992813019 1609472091 513371588 -2073392775 -1740758630 -672319758 1542176581 -1455596621 1733618899 728458069 -51896963 1892093126 -1510825164 -1565084406 -1384163863 719373315 1089004231 390316938 1154208546 -1814707629 1257110671 706365967 -328305064 1414586952 -1049958822 -1060758678 390954230 991065400 -1414533104
REM
CELL 1.54180   50.00000   50.00000   50.00000   90.00000   90.00000   90.00000
LATT -1
SFAC C  
C      1  0.5055070000000  0.5810460000000  0.5239880000000 1.0
C      1  0.5194900000000  0.4983280000000  0.5390040000000 1.0
C      1  0.5301810000000  0.5099330000000  0.4929980000000 1.0
C      1  0.4355180000000  0.4529100000000  0.4895960000000 1.0
C      1  0.4703300000000  0.5186460000000  0.4474950000000 1.0
C      1  0.5226440000000  0.5371120000000  0.5037100000000 1.0
C      1  0.4411710000000  0.4798880000000  0.4464610000000 1.0
C      1  0.4990550000000  0.4318500000000  0.4914270000000 1.0
C      1  0.4673280000000  0.4411000000000  0.4594380000000 1.0
C      1  0.5341380000000  0.4632300000000  0.5098150000000 1.0
C      1  0.5190790000000  0.4796450000000  0.5648070000000 1.0
C      1  0.4337470000000  0.4735170000000  0.5091410000000 1.0
C      1  0.4326330000000  0.5691850000000  0.5275470000000 1.0
C      1  0.5522170000000  0.4729200000000  0.4364770000000 1.0
C      1  0.5287190000000  0.5680890000000  0.5360710000000 1.0
C      1  0.4314780000000  0.5016360000000  0.5035510000000 1.0
C      1  0.5112620000000  0.4917440000000  0.4544210000000 1.0
C      1  0.4660050000000  0.5067520000000  0.5367250000000 1.0
C      1  0.5655500000000  0.5048040000000  0.5239430000000 1.0
C      1  0.5218900000000  0.5066730000000  0.5787800000000 1.0
C      1  0.4916230000000  0.5479690000000  0.5427010000000 1.0
C      1  0.4832740000000  0.5296060000000  0.4217710000000 1.0
C      1  0.5316910000000  0.5235210000000  0.5553800000000 1.0
C      1  0.4527660000000  0.5269080000000  0.5839520000000 1.0
C      1  0.4375900000000  0.5428270000000  0.5353880000000 1.0
C      1  0.4996420000000  0.5770170000000  0.4973080000000 1.0
C      1  0.5545920000000  0.4724640000000  0.4652320000000 1.0
C      1  0.5264420000000  0.4130080000000  0.5280140000000 1.0
C      1  0.4960270000000  0.5317920000000  0.5170910000000 1.0
C      1  0.5450550000000  0.4228580000000  0.4914490000000 1.0
C      1  0.4503400000000  0.5211420000000  0.5164370000000 1.0
C      1  0.4597970000000  0.5660340000000  0.4665130000000 1.0
C      1  0.5506160000000  0.5007270000000  0.4276660000000 1.0
C      1  0.4438410000000  0.4565580000000  0.4622380000000 1.0
C      1  0.5042100000000  0.5009580000000  0.4800870000000 1.0
C      1  0.5033180000000  0.4576880000000  0.5129850000000 1.0
C      1  0.5180000000000  0.5494310000000  0.5539610000000 1.0
C      1  0.4996710000000  0.5130550000000  0.5927960000000 1.0
C      1  0.5030730000000  0.5513810000000  0.4596590000000 1.0
C      1  0.4703980000000  0.4822470000000  0.5735150000000 1.0
C      1  0.5852730000000  0.5382540000000  0.4931670000000 1.0
C      1  0.5548110000000  0.5286660000000  0.5385790000000 1.0
C      1  0.4487940000000  0.5421450000000  0.4504680000000 1.0
C      1  0.5390270000000  0.4519050000000  0.4799380000000 1.0
C      1  0.4610570000000  0.4411930000000  0.5359310000000 1.0
C      1  0.5119510000000  0.4444460000000  0.4677060000000 1.0
C      1  0.4919850000000  0.4835910000000  0.5031880000000 1.0
C      1  0.4908200000000  0.4470780000000  0.5422540000000 1.0
C      1  0.4923960000000  0.4665380000000  0.5656680000000 1.0
C      1  0.4864150000000  0.5241600000000  0.4725380000000 1.0
C      1  0.5374730000000  0.4926240000000  0.5161950000000 1.0
C      1  0.5533570000000  0.4221270000000  0.5197500000000 1.0
C      1  0.5755000000000  0.4862790000000  0.5432800000000 1.0
C      1  0.5295550000000  0.4328920000000  0.5683490000000 1.0
C      1  0.5456560000000  0.5501510000000  0.5204760000000 1.0
C      1  0.4674080000000  0.5516130000000  0.4274130000000 1.0
C      1  0.5569620000000  0.5017170000000  0.4751900000000 1.0
C      1  0.4912510000000  0.4776430000000  0.4354670000000 1.0
C      1  0.4487210000000  0.4284590000000  0.4993330000000 1.0
C      1  0.4651080000000  0.4917680000000  0.4371600000000 1.0
C      1  0.5200550000000  0.4124900000000  0.4999820000000 1.0
C      1  0.5113550000000  0.5278630000000  0.4185860000000 1.0
C      1  0.4732510000000  0.5069700000000  0.5883430000000 1.0
C      1  0.4534810000000  0.4853810000000  0.5508790000000 1.0
C      1  0.4816700000000  0.5740660000000  0.5369250000000 1.0
C      1  0.4931330000000  0.5034300000000  0.5257680000000 1.0
C      1  0.5553760000000  0.4493260000000  0.5252720000000 1.0
C      1  0.5400130000000  0.4580980000000  0.5654440000000 1.0
C      1  0.5218810000000  0.5440520000000  0.4389640000000 1.0
C      1  0.4918270000000  0.4516120000000  0.4491930000000 1.0
C      1  0.5573830000000  0.5167680000000  0.4496120000000 1.0
C      1  0.5266460000000  0.5044650000000  0.4131220000000 1.0
C      1  0.5117630000000  0.4255900000000  0.5487050000000 1.0
C      1  0.5467770000000  0.5592020000000  0.4744160000000 1.0
C      1  0.5638480000000  0.4628040000000  0.5487980000000 1.0
C      1  0.4703740000000  0.5659130000000  0.4938880000000 1.0
C      1  0.4429760000000  0.5362110000000  0.5626260000000 1.0
C      1  0.4458630000000  0.4655980000000  0.5337750000000 1.0
C      1  0.5472960000000  0.5429540000000  0.4509350000000 1.0
C      1  0.4578540000000  0.5740920000000  0.5195130000000 1.0
C      1  0.4738160000000  0.5353050000000  0.4980380000000 1.0
C      1  0.4199010000000  0.5102810000000  0.4789580000000 1.0
C      1  0.4251110000000  0.5280210000000  0.4564500000000 1.0
C      1  0.4715550000000  0.4255130000000  0.4824200000000 1.0
C      1  0.4214340000000  0.4995800000000  0.4539610000000 1.0
C      1  0.5758100000000  0.5128270000000  0.4965270000000 1.0
C      1  0.5129640000000  0.4786800000000  0.4135660000000 1.0
C      1  0.5327820000000  0.4610140000000  0.4218240000000 1.0
C      1  0.5637170000000  0.5549640000000  0.4965920000000 1.0
C      1  0.4804740000000  0.5680700000000  0.4474490000000 1.0
C      1  0.4478140000000  0.4191980000000  0.5250480000000 1.0
C      1  0.5183680000000  0.5602170000000  0.4828360000000 1.0
END
