TITL C-142171-2795-4 -65.6195360477355 125000 -637.83938168083 0 0 93 (C1) n - 1
REM
REM in /rds/project/t2_vol4/rds-t2-cs072/BORA/CARBON/from-Arr/AIRSS/Generating-Clusters/GAP-ML-2020/Only-C1/SD-CG/HFTN-CG
REM
REM
REM
REM
REM
REM ./C.cell (11c1c37f851c82e70ff6c80c92926a4b)
REM AIRSS Version 0.9.1 bugfix July 2018 build 013d7b7c2542+ Fri, 06 Jul 2018 19:26:36 +0100
REM compiler GCC version 9.3.0
REM options -cpp -mtune=generic -march=x86-64 -g -O0
REM seed -2053363777 35055162 2066377510 -1521723846 571597754 -383122098 1280969267 -1885476852 -559104800 -640054126 1051009122 -1546002610 -239425421 -974460514 817012539 -548422815 -1020898891 -1940815844 410945719 127131846 667527934 1746328031 -1273373302 1270399999 -771325573 -2001850133 911924330 1007434653 -949217522 -266604958 1008082218 -716493717 253423503
REM
CELL 1.54180   50.00000   50.00000   50.00000   90.00000   90.00000   90.00000
LATT -1
SFAC C  
C      1  0.4912910000000  0.5462420000000  0.5603190000000 1.0
C      1  0.4385110000000  0.5088880000000  0.4833910000000 1.0
C      1  0.5346590000000  0.4293660000000  0.4936190000000 1.0
C      1  0.4201090000000  0.4823810000000  0.4472020000000 1.0
C      1  0.4240240000000  0.4835110000000  0.5307660000000 1.0
C      1  0.5161860000000  0.5385880000000  0.4243950000000 1.0
C      1  0.5240430000000  0.4748690000000  0.4804390000000 1.0
C      1  0.4465950000000  0.5233640000000  0.5541240000000 1.0
C      1  0.5559210000000  0.5585420000000  0.5322140000000 1.0
C      1  0.5366300000000  0.5497920000000  0.5527760000000 1.0
C      1  0.4969900000000  0.5226440000000  0.5401010000000 1.0
C      1  0.5590920000000  0.4936570000000  0.5497420000000 1.0
C      1  0.5274130000000  0.5579530000000  0.4437190000000 1.0
C      1  0.4798110000000  0.5261580000000  0.5142080000000 1.0
C      1  0.4819290000000  0.5099730000000  0.4105800000000 1.0
C      1  0.4926330000000  0.4405110000000  0.4753330000000 1.0
C      1  0.4679800000000  0.5778800000000  0.4661060000000 1.0
C      1  0.5379240000000  0.5731200000000  0.5131480000000 1.0
C      1  0.5302060000000  0.5249550000000  0.4897380000000 1.0
C      1  0.4423800000000  0.5785200000000  0.4608020000000 1.0
C      1  0.4893510000000  0.4863670000000  0.4227390000000 1.0
C      1  0.4861640000000  0.4069810000000  0.5027450000000 1.0
C      1  0.5676210000000  0.4660500000000  0.5118460000000 1.0
C      1  0.5246600000000  0.5469470000000  0.5093740000000 1.0
C      1  0.5741610000000  0.5096730000000  0.5302220000000 1.0
C      1  0.5173670000000  0.4881120000000  0.5780820000000 1.0
C      1  0.4300440000000  0.5113720000000  0.5336380000000 1.0
C      1  0.5291320000000  0.5061470000000  0.5110350000000 1.0
C      1  0.4632750000000  0.4288100000000  0.5109760000000 1.0
C      1  0.4157220000000  0.4749320000000  0.5036560000000 1.0
C      1  0.5231300000000  0.5267470000000  0.5313400000000 1.0
C      1  0.4635800000000  0.5143750000000  0.4717100000000 1.0
C      1  0.5092170000000  0.5200390000000  0.4729650000000 1.0
C      1  0.4686560000000  0.4734860000000  0.4399080000000 1.0
C      1  0.4843510000000  0.5320200000000  0.4834320000000 1.0
C      1  0.5180740000000  0.5709240000000  0.4675510000000 1.0
C      1  0.4282260000000  0.4815210000000  0.4771570000000 1.0
C      1  0.4787450000000  0.4887890000000  0.4685310000000 1.0
C      1  0.4624950000000  0.5470930000000  0.5505660000000 1.0
C      1  0.5415650000000  0.5025370000000  0.5708750000000 1.0
C      1  0.4862650000000  0.5724020000000  0.5101910000000 1.0
C      1  0.4712580000000  0.5027500000000  0.5942010000000 1.0
C      1  0.5069250000000  0.5324120000000  0.5822670000000 1.0
C      1  0.5114880000000  0.5654800000000  0.5510310000000 1.0
C      1  0.5794310000000  0.5099330000000  0.4834330000000 1.0
C      1  0.4915680000000  0.5341550000000  0.4115240000000 1.0
C      1  0.4310780000000  0.4538780000000  0.5367630000000 1.0
C      1  0.5038160000000  0.4727100000000  0.5556910000000 1.0
C      1  0.5148130000000  0.4814370000000  0.5066670000000 1.0
C      1  0.5636890000000  0.4511950000000  0.4645670000000 1.0
C      1  0.5398950000000  0.4689900000000  0.4345210000000 1.0
C      1  0.5629810000000  0.5566940000000  0.4750400000000 1.0
C      1  0.5178940000000  0.4887030000000  0.4331600000000 1.0
C      1  0.5704500000000  0.5024960000000  0.4572530000000 1.0
C      1  0.4421910000000  0.4523160000000  0.4720010000000 1.0
C      1  0.4207200000000  0.4478840000000  0.5106670000000 1.0
C      1  0.5727290000000  0.5377710000000  0.5209580000000 1.0
C      1  0.5788460000000  0.4926840000000  0.5067200000000 1.0
C      1  0.4834890000000  0.4792400000000  0.5006550000000 1.0
C      1  0.5393370000000  0.4448110000000  0.4496310000000 1.0
C      1  0.5636080000000  0.4761170000000  0.4499230000000 1.0
C      1  0.4764210000000  0.4237710000000  0.4588060000000 1.0
C      1  0.4619490000000  0.5043930000000  0.5690010000000 1.0
C      1  0.4707090000000  0.4965230000000  0.5194880000000 1.0
C      1  0.4939520000000  0.4436170000000  0.5529480000000 1.0
C      1  0.5207400000000  0.4437980000000  0.4725410000000 1.0
C      1  0.5340800000000  0.5307150000000  0.5740480000000 1.0
C      1  0.5601920000000  0.4451860000000  0.4928730000000 1.0
C      1  0.5763160000000  0.5375440000000  0.4923660000000 1.0
C      1  0.4653160000000  0.5538270000000  0.5214670000000 1.0
C      1  0.4832720000000  0.4958230000000  0.5476680000000 1.0
C      1  0.5064140000000  0.4402260000000  0.5262730000000 1.0
C      1  0.4400010000000  0.4360420000000  0.4943420000000 1.0
C      1  0.5521000000000  0.4696720000000  0.5354980000000 1.0
C      1  0.4711180000000  0.4306420000000  0.5602930000000 1.0
C      1  0.4614020000000  0.4467620000000  0.4522180000000 1.0
C      1  0.4814870000000  0.4030340000000  0.4755730000000 1.0
C      1  0.4354240000000  0.5663720000000  0.4842500000000 1.0
C      1  0.4407960000000  0.4813750000000  0.4322790000000 1.0
C      1  0.5324680000000  0.5147360000000  0.4269020000000 1.0
C      1  0.4843190000000  0.4495010000000  0.5035530000000 1.0
C      1  0.4401580000000  0.5511560000000  0.5054380000000 1.0
C      1  0.4537170000000  0.4350940000000  0.5392410000000 1.0
C      1  0.5082130000000  0.4927220000000  0.4627420000000 1.0
C      1  0.4895640000000  0.5660380000000  0.4805240000000 1.0
C      1  0.5417570000000  0.5742810000000  0.4846410000000 1.0
C      1  0.5223780000000  0.4654480000000  0.5314450000000 1.0
C      1  0.5539930000000  0.5480120000000  0.4497780000000 1.0
C      1  0.5099540000000  0.5764940000000  0.5253620000000 1.0
C      1  0.4986580000000  0.5071180000000  0.5910530000000 1.0
C      1  0.5561690000000  0.5213810000000  0.4413360000000 1.0
C      1  0.5139880000000  0.4167120000000  0.5111830000000 1.0
C      1  0.4306430000000  0.5240940000000  0.5069320000000 1.0
END
