TITL C-140199-7050-8 284.110854408688 125000 -721.349664879177 0 0 104 (C1) n - 1
REM
REM in /rds/project/t2_vol4/rds-t2-cs072/BORA/CARBON/from-Arr/AIRSS/Generating-Clusters/GAP-ML-2020/Only-C1/SD-CG/HFTN-CG
REM
REM
REM
REM
REM
REM ./C.cell (11c1c37f851c82e70ff6c80c92926a4b)
REM AIRSS Version 0.9.1 bugfix July 2018 build 013d7b7c2542+ Fri, 06 Jul 2018 19:26:36 +0100
REM compiler GCC version 9.3.0
REM options -cpp -mtune=generic -march=x86-64 -g -O0
REM seed -930933158 2073719504 964374456 -312372536 1756149771 636916277 2100762293 1058689291 -1888243195 -973881887 -61354611 1005943810 -550618592 -1062227851 337033175 240196479 -653997622 1551270949 1881622557 1530591897 -52177621 623754803 -1868348636 -959254141 -1482809484 -1757809755 -1566798531 1805259860 359411813 398301244 212476808 -868838541 -1784153307
REM
CELL 1.54180   50.00000   50.00000   50.00000   90.00000   90.00000   90.00000
LATT -1
SFAC C  
C      1  0.5619540000000  0.4328010000000  0.4811380000000 1.0
C      1  0.4202080000000  0.5465150000000  0.5205860000000 1.0
C      1  0.5431760000000  0.4443560000000  0.5507000000000 1.0
C      1  0.4578860000000  0.4857580000000  0.4396500000000 1.0
C      1  0.4662550000000  0.5476470000000  0.5085460000000 1.0
C      1  0.5077360000000  0.5733270000000  0.5156880000000 1.0
C      1  0.5513320000000  0.5573260000000  0.5216030000000 1.0
C      1  0.4466390000000  0.4172340000000  0.4912450000000 1.0
C      1  0.4769640000000  0.4987520000000  0.5190880000000 1.0
C      1  0.5572780000000  0.5453200000000  0.4687260000000 1.0
C      1  0.4691430000000  0.5590560000000  0.5475170000000 1.0
C      1  0.4831110000000  0.4490320000000  0.4420630000000 1.0
C      1  0.4802760000000  0.4746790000000  0.4561990000000 1.0
C      1  0.5809330000000  0.4907480000000  0.5240500000000 1.0
C      1  0.5029150000000  0.5104100000000  0.5123520000000 1.0
C      1  0.4231950000000  0.4554710000000  0.5066980000000 1.0
C      1  0.5292330000000  0.5228810000000  0.5558710000000 1.0
C      1  0.5744670000000  0.4765680000000  0.4753020000000 1.0
C      1  0.4681670000000  0.5060050000000  0.4231280000000 1.0
C      1  0.4710380000000  0.4713040000000  0.4842310000000 1.0
C      1  0.5388900000000  0.4176340000000  0.4726450000000 1.0
C      1  0.4525380000000  0.4619290000000  0.5436240000000 1.0
C      1  0.4280200000000  0.4394540000000  0.4838340000000 1.0
C      1  0.5039930000000  0.5635760000000  0.4608720000000 1.0
C      1  0.5513110000000  0.4307610000000  0.5277450000000 1.0
C      1  0.5470770000000  0.5185550000000  0.5076920000000 1.0
C      1  0.4795620000000  0.4166360000000  0.5311330000000 1.0
C      1  0.5162460000000  0.5089550000000  0.5803340000000 1.0
C      1  0.5271750000000  0.5657370000000  0.5340920000000 1.0
C      1  0.4783160000000  0.5471950000000  0.4577310000000 1.0
C      1  0.4198210000000  0.4836060000000  0.5058660000000 1.0
C      1  0.4912450000000  0.5891920000000  0.4474330000000 1.0
C      1  0.4362690000000  0.4834010000000  0.5530440000000 1.0
C      1  0.4600510000000  0.5865650000000  0.5041060000000 1.0
C      1  0.4349340000000  0.4788360000000  0.4552720000000 1.0
C      1  0.4610690000000  0.4126720000000  0.4684740000000 1.0
C      1  0.4312730000000  0.4973810000000  0.4808650000000 1.0
C      1  0.4252920000000  0.5244110000000  0.5350220000000 1.0
C      1  0.4929860000000  0.5342870000000  0.4972000000000 1.0
C      1  0.4812040000000  0.6094480000000  0.4636260000000 1.0
C      1  0.5490390000000  0.4525220000000  0.4408650000000 1.0
C      1  0.4605510000000  0.4338420000000  0.4505760000000 1.0
C      1  0.4787530000000  0.5727580000000  0.5228970000000 1.0
C      1  0.4235820000000  0.5258840000000  0.4721920000000 1.0
C      1  0.4626870000000  0.4994990000000  0.4915600000000 1.0
C      1  0.4367890000000  0.5383340000000  0.4498660000000 1.0
C      1  0.5627390000000  0.5010280000000  0.4629820000000 1.0
C      1  0.5256050000000  0.4055960000000  0.4936200000000 1.0
C      1  0.5466330000000  0.5095450000000  0.4385710000000 1.0
C      1  0.5485300000000  0.4732800000000  0.5586250000000 1.0
C      1  0.5433750000000  0.5372450000000  0.4452390000000 1.0
C      1  0.4545990000000  0.5311880000000  0.4265360000000 1.0
C      1  0.5686000000000  0.4924590000000  0.5483840000000 1.0
C      1  0.5265340000000  0.5090770000000  0.5290160000000 1.0
C      1  0.5007830000000  0.4722750000000  0.5495970000000 1.0
C      1  0.4365900000000  0.4507900000000  0.4592380000000 1.0
C      1  0.5311150000000  0.4299220000000  0.4473310000000 1.0
C      1  0.5775120000000  0.4703880000000  0.5041520000000 1.0
C      1  0.4223560000000  0.5467830000000  0.4924310000000 1.0
C      1  0.5795590000000  0.5190730000000  0.5144920000000 1.0
C      1  0.5056060000000  0.4176940000000  0.5382540000000 1.0
C      1  0.4220930000000  0.4964980000000  0.5319960000000 1.0
C      1  0.4476860000000  0.5441350000000  0.5335070000000 1.0
C      1  0.5169430000000  0.4366360000000  0.5582600000000 1.0
C      1  0.5289150000000  0.4127660000000  0.5197640000000 1.0
C      1  0.4390290000000  0.4433780000000  0.5277290000000 1.0
C      1  0.4902490000000  0.5473110000000  0.5632510000000 1.0
C      1  0.4868590000000  0.4599020000000  0.5047230000000 1.0
C      1  0.4816010000000  0.5194840000000  0.4743460000000 1.0
C      1  0.5427360000000  0.5006560000000  0.4861410000000 1.0
C      1  0.5163480000000  0.4905600000000  0.4869290000000 1.0
C      1  0.5278890000000  0.4672380000000  0.4276000000000 1.0
C      1  0.4766420000000  0.5505850000000  0.4250400000000 1.0
C      1  0.4487030000000  0.4954040000000  0.5741500000000 1.0
C      1  0.5469710000000  0.4785650000000  0.5873080000000 1.0
C      1  0.5675320000000  0.4429110000000  0.5072450000000 1.0
C      1  0.5252220000000  0.4952920000000  0.4244300000000 1.0
C      1  0.5432340000000  0.5053650000000  0.5959930000000 1.0
C      1  0.4517720000000  0.5589050000000  0.4624740000000 1.0
C      1  0.4798310000000  0.5788140000000  0.4241730000000 1.0
C      1  0.5200550000000  0.5498120000000  0.4390030000000 1.0
C      1  0.5607140000000  0.5216390000000  0.5568280000000 1.0
C      1  0.5138530000000  0.5580600000000  0.4904160000000 1.0
C      1  0.4736480000000  0.4994580000000  0.5823670000000 1.0
C      1  0.5776660000000  0.5260000000000  0.4700430000000 1.0
C      1  0.5094800000000  0.4441690000000  0.4336850000000 1.0
C      1  0.4981420000000  0.4824840000000  0.5790400000000 1.0
C      1  0.5023690000000  0.5375580000000  0.4200130000000 1.0
C      1  0.5264310000000  0.4815520000000  0.5393760000000 1.0
C      1  0.4899860000000  0.5238740000000  0.5802530000000 1.0
C      1  0.5934310000000  0.5261870000000  0.4916760000000 1.0
C      1  0.4786660000000  0.4719690000000  0.5311310000000 1.0
C      1  0.5693400000000  0.5383550000000  0.5342960000000 1.0
C      1  0.4988130000000  0.4976290000000  0.4643950000000 1.0
C      1  0.4714840000000  0.6040890000000  0.4865540000000 1.0
C      1  0.4549260000000  0.4200380000000  0.5195350000000 1.0
C      1  0.4460010000000  0.5634620000000  0.4899210000000 1.0
C      1  0.5431350000000  0.5490750000000  0.4941510000000 1.0
C      1  0.5125090000000  0.4638530000000  0.4961350000000 1.0
C      1  0.4992730000000  0.5100500000000  0.4182310000000 1.0
C      1  0.5617320000000  0.5239470000000  0.5858720000000 1.0
C      1  0.5175370000000  0.5500220000000  0.5553560000000 1.0
C      1  0.5023710000000  0.4546260000000  0.5730370000000 1.0
C      1  0.5674680000000  0.4530840000000  0.4622140000000 1.0
END
