TITL C-142768-1207-3 22.6108123331397 125000 -609.058491365732 0 0 88 (C1) n - 1
REM
REM in /rds/project/t2_vol4/rds-t2-cs072/BORA/CARBON/from-Arr/AIRSS/Generating-Clusters/GAP-ML-2020/Only-C1/SD-CG/HFTN-CG
REM
REM
REM
REM
REM
REM ./C.cell (11c1c37f851c82e70ff6c80c92926a4b)
REM AIRSS Version 0.9.1 bugfix July 2018 build 013d7b7c2542+ Fri, 06 Jul 2018 19:26:36 +0100
REM compiler GCC version 9.3.0
REM options -cpp -mtune=generic -march=x86-64 -g -O0
REM seed -824996137 362803718 -488620294 -87075812 -350079081 669334388 -2023614762 1059737160 1485371242 1779563383 -71165671 908522185 1533154269 1565237240 1533555191 -1055210603 1305561481 865301567 -997902815 650145792 -562286025 935929069 -37190130 -340743845 683823235 1778532778 1713433478 929547797 562582435 -1791903725 -1549574528 -1956437610 1938677617
REM
CELL 1.54180   50.00000   50.00000   50.00000   90.00000   90.00000   90.00000
LATT -1
SFAC C  
C      1  0.5129150000000  0.5372330000000  0.5653060000000 1.0
C      1  0.4578900000000  0.4290280000000  0.5250490000000 1.0
C      1  0.4840430000000  0.5519080000000  0.4378310000000 1.0
C      1  0.4399040000000  0.4485980000000  0.5162980000000 1.0
C      1  0.4658840000000  0.5257110000000  0.5504280000000 1.0
C      1  0.5698920000000  0.4509850000000  0.4994370000000 1.0
C      1  0.5761340000000  0.4875050000000  0.5190300000000 1.0
C      1  0.4979880000000  0.5974570000000  0.5004810000000 1.0
C      1  0.4195930000000  0.5308740000000  0.4921600000000 1.0
C      1  0.4949560000000  0.5596210000000  0.5259150000000 1.0
C      1  0.4796470000000  0.5006470000000  0.4201810000000 1.0
C      1  0.4547500000000  0.5905550000000  0.5203020000000 1.0
C      1  0.4930660000000  0.4238290000000  0.4599340000000 1.0
C      1  0.5259480000000  0.4447870000000  0.4850200000000 1.0
C      1  0.4383440000000  0.4733140000000  0.5328970000000 1.0
C      1  0.5551320000000  0.5159560000000  0.5594960000000 1.0
C      1  0.5521150000000  0.5313580000000  0.4426760000000 1.0
C      1  0.4839660000000  0.5463190000000  0.4996190000000 1.0
C      1  0.5522110000000  0.4525810000000  0.5687640000000 1.0
C      1  0.5310020000000  0.5454040000000  0.4315620000000 1.0
C      1  0.5485520000000  0.4332540000000  0.5020450000000 1.0
C      1  0.5050750000000  0.5173350000000  0.4635170000000 1.0
C      1  0.4949860000000  0.4337290000000  0.4866440000000 1.0
C      1  0.4589340000000  0.5076230000000  0.4804900000000 1.0
C      1  0.5278250000000  0.4899480000000  0.4267920000000 1.0
C      1  0.4257950000000  0.4875350000000  0.4643150000000 1.0
C      1  0.4448910000000  0.5710140000000  0.5038810000000 1.0
C      1  0.4919520000000  0.4944940000000  0.5756600000000 1.0
C      1  0.5563320000000  0.5317850000000  0.4916760000000 1.0
C      1  0.5281870000000  0.4815790000000  0.5220320000000 1.0
C      1  0.4713180000000  0.5206050000000  0.5044260000000 1.0
C      1  0.5669440000000  0.5346170000000  0.5183650000000 1.0
C      1  0.5309510000000  0.4502490000000  0.4556050000000 1.0
C      1  0.5614000000000  0.4780270000000  0.4906130000000 1.0
C      1  0.4868660000000  0.5854040000000  0.4771650000000 1.0
C      1  0.5012730000000  0.4684750000000  0.5673970000000 1.0
C      1  0.5183590000000  0.5093790000000  0.5202150000000 1.0
C      1  0.5609040000000  0.5186160000000  0.4662560000000 1.0
C      1  0.4857770000000  0.4719260000000  0.5178720000000 1.0
C      1  0.5641530000000  0.4434670000000  0.5455900000000 1.0
C      1  0.4471800000000  0.4509140000000  0.4890210000000 1.0
C      1  0.4719750000000  0.4306320000000  0.5498510000000 1.0
C      1  0.4767800000000  0.4588730000000  0.4914680000000 1.0
C      1  0.4550350000000  0.4879130000000  0.4279890000000 1.0
C      1  0.5721670000000  0.5115830000000  0.5344690000000 1.0
C      1  0.4952430000000  0.4178510000000  0.5364810000000 1.0
C      1  0.4657030000000  0.5655590000000  0.4820220000000 1.0
C      1  0.5426900000000  0.4748540000000  0.4460950000000 1.0
C      1  0.5179360000000  0.4335080000000  0.5384310000000 1.0
C      1  0.5110260000000  0.5692590000000  0.4696060000000 1.0
C      1  0.4288580000000  0.5032390000000  0.4900870000000 1.0
C      1  0.5255770000000  0.5615560000000  0.5163360000000 1.0
C      1  0.4900860000000  0.4580220000000  0.4313020000000 1.0
C      1  0.5289430000000  0.4743170000000  0.4932060000000 1.0
C      1  0.5441780000000  0.4289740000000  0.5297310000000 1.0
C      1  0.5328520000000  0.4698530000000  0.5758390000000 1.0
C      1  0.4671350000000  0.5007790000000  0.5636720000000 1.0
C      1  0.5010710000000  0.4813930000000  0.4203280000000 1.0
C      1  0.5131250000000  0.5125430000000  0.5788530000000 1.0
C      1  0.5402630000000  0.5405000000000  0.5562420000000 1.0
C      1  0.5075650000000  0.4392210000000  0.4427120000000 1.0
C      1  0.4928580000000  0.5005870000000  0.5100350000000 1.0
C      1  0.5091510000000  0.4635350000000  0.5359510000000 1.0
C      1  0.4493780000000  0.5230410000000  0.5257440000000 1.0
C      1  0.4618120000000  0.5530070000000  0.4558950000000 1.0
C      1  0.5603820000000  0.4895480000000  0.4641200000000 1.0
C      1  0.4766020000000  0.4818400000000  0.4721510000000 1.0
C      1  0.4738570000000  0.4546470000000  0.5631510000000 1.0
C      1  0.4373370000000  0.5037250000000  0.4434240000000 1.0
C      1  0.4641310000000  0.4670770000000  0.4460810000000 1.0
C      1  0.4550930000000  0.4756660000000  0.5564010000000 1.0
C      1  0.5215140000000  0.5820160000000  0.4954480000000 1.0
C      1  0.4824090000000  0.5889780000000  0.5227680000000 1.0
C      1  0.5105170000000  0.5628840000000  0.4407810000000 1.0
C      1  0.4562130000000  0.5237950000000  0.4549120000000 1.0
C      1  0.4340220000000  0.4976870000000  0.5194460000000 1.0
C      1  0.5789960000000  0.4596240000000  0.5256190000000 1.0
C      1  0.5028540000000  0.4933880000000  0.4798860000000 1.0
C      1  0.4331580000000  0.5450980000000  0.5103850000000 1.0
C      1  0.5341110000000  0.5176820000000  0.4250140000000 1.0
C      1  0.4818350000000  0.4185200000000  0.5109730000000 1.0
C      1  0.5380740000000  0.4986980000000  0.5762490000000 1.0
C      1  0.5067810000000  0.5405350000000  0.4809600000000 1.0
C      1  0.4834320000000  0.5220390000000  0.4396200000000 1.0
C      1  0.5484020000000  0.5533750000000  0.5328580000000 1.0
C      1  0.5279170000000  0.5338650000000  0.5008330000000 1.0
C      1  0.4381820000000  0.4621370000000  0.4646400000000 1.0
C      1  0.4897440000000  0.5429330000000  0.5499790000000 1.0
END
