TITL C-142776-1195-2 51.5742565332336 125000 -659.965576026495 0 0 96 (C1) n - 1
REM
REM in /rds/project/t2_vol4/rds-t2-cs072/BORA/CARBON/from-Arr/AIRSS/Generating-Clusters/GAP-ML-2020/Only-C1/SD-CG/HFTN-CG
REM
REM
REM
REM
REM
REM ./C.cell (11c1c37f851c82e70ff6c80c92926a4b)
REM AIRSS Version 0.9.1 bugfix July 2018 build 013d7b7c2542+ Fri, 06 Jul 2018 19:26:36 +0100
REM compiler GCC version 9.3.0
REM options -cpp -mtune=generic -march=x86-64 -g -O0
REM seed 755067630 1981326191 430333589 -940535309 -89623556 1007874725 -2030108166 -358046347 637029243 1592495820 -4467111 -1792714506 905103771 1435161060 -187353709 1510867281 210922985 -1375545991 111686129 -142983195 -636347177 -455414578 -28304581 -1471324809 -992093039 -618851555 -1073290291 1410732494 1664631686 -1860632922 1006682157 -1397946487 -867214809
REM
CELL 1.54180   50.00000   50.00000   50.00000   90.00000   90.00000   90.00000
LATT -1
SFAC C  
C      1  0.5539340000000  0.5677950000000  0.5315120000000 1.0
C      1  0.4903640000000  0.5148340000000  0.4523810000000 1.0
C      1  0.5056410000000  0.4755130000000  0.5815340000000 1.0
C      1  0.4473050000000  0.4797910000000  0.4332700000000 1.0
C      1  0.5592570000000  0.5209210000000  0.5634330000000 1.0
C      1  0.5403170000000  0.4533830000000  0.4495100000000 1.0
C      1  0.5000270000000  0.4269360000000  0.4643950000000 1.0
C      1  0.5710260000000  0.5495020000000  0.4949590000000 1.0
C      1  0.4736080000000  0.5499840000000  0.5180460000000 1.0
C      1  0.4767860000000  0.5110250000000  0.4255050000000 1.0
C      1  0.5825600000000  0.5000940000000  0.5240370000000 1.0
C      1  0.4830920000000  0.4396610000000  0.4454900000000 1.0
C      1  0.5392090000000  0.4816380000000  0.4948600000000 1.0
C      1  0.5238530000000  0.4412500000000  0.4690130000000 1.0
C      1  0.5631380000000  0.5442170000000  0.4698250000000 1.0
C      1  0.5134220000000  0.5790430000000  0.4975190000000 1.0
C      1  0.4491990000000  0.5072030000000  0.5108070000000 1.0
C      1  0.5607210000000  0.4718410000000  0.5597300000000 1.0
C      1  0.4252080000000  0.4717210000000  0.4779430000000 1.0
C      1  0.4207170000000  0.5153590000000  0.5155080000000 1.0
C      1  0.5394590000000  0.5567160000000  0.4570610000000 1.0
C      1  0.4555560000000  0.4890320000000  0.5621240000000 1.0
C      1  0.5621220000000  0.5426060000000  0.5208960000000 1.0
C      1  0.5419330000000  0.4501580000000  0.5554920000000 1.0
C      1  0.4377410000000  0.4608340000000  0.4530460000000 1.0
C      1  0.4280600000000  0.5518080000000  0.4832630000000 1.0
C      1  0.5384860000000  0.5408040000000  0.5696080000000 1.0
C      1  0.5144970000000  0.4826630000000  0.5343120000000 1.0
C      1  0.4959260000000  0.5744140000000  0.5423900000000 1.0
C      1  0.4853550000000  0.4199650000000  0.4879810000000 1.0
C      1  0.4956330000000  0.4858610000000  0.4595670000000 1.0
C      1  0.5184330000000  0.5048470000000  0.4550470000000 1.0
C      1  0.5772570000000  0.4746000000000  0.5358530000000 1.0
C      1  0.4473680000000  0.5133230000000  0.4646910000000 1.0
C      1  0.4567360000000  0.4239190000000  0.4816710000000 1.0
C      1  0.4936050000000  0.5009520000000  0.5307980000000 1.0
C      1  0.4672430000000  0.5564750000000  0.4587970000000 1.0
C      1  0.5191920000000  0.4603880000000  0.4917570000000 1.0
C      1  0.4709370000000  0.5301510000000  0.4705710000000 1.0
C      1  0.5189220000000  0.5226140000000  0.4972060000000 1.0
C      1  0.4937030000000  0.5085360000000  0.5019160000000 1.0
C      1  0.5628190000000  0.4684390000000  0.4601040000000 1.0
C      1  0.4125770000000  0.4659930000000  0.5027600000000 1.0
C      1  0.5211760000000  0.5845350000000  0.5462030000000 1.0
C      1  0.4637320000000  0.4622020000000  0.5228210000000 1.0
C      1  0.5075440000000  0.5256910000000  0.5422180000000 1.0
C      1  0.5131610000000  0.5241880000000  0.5727180000000 1.0
C      1  0.5346370000000  0.5068160000000  0.4788600000000 1.0
C      1  0.4651590000000  0.4911920000000  0.5327910000000 1.0
C      1  0.5671790000000  0.4713690000000  0.4900820000000 1.0
C      1  0.5786530000000  0.4986010000000  0.4948010000000 1.0
C      1  0.5356820000000  0.4960770000000  0.4322890000000 1.0
C      1  0.5039130000000  0.5547910000000  0.4270100000000 1.0
C      1  0.4890480000000  0.4467960000000  0.5583730000000 1.0
C      1  0.4703300000000  0.5270850000000  0.5001160000000 1.0
C      1  0.4469520000000  0.5092950000000  0.4339080000000 1.0
C      1  0.4783060000000  0.4702990000000  0.5718020000000 1.0
C      1  0.5160300000000  0.4512190000000  0.5681200000000 1.0
C      1  0.5746730000000  0.5227650000000  0.5393130000000 1.0
C      1  0.5229460000000  0.4976500000000  0.5810240000000 1.0
C      1  0.5247900000000  0.4680190000000  0.4302760000000 1.0
C      1  0.4743110000000  0.4810990000000  0.4224920000000 1.0
C      1  0.5265760000000  0.5204080000000  0.4190980000000 1.0
C      1  0.4947380000000  0.4653080000000  0.4355430000000 1.0
C      1  0.4895890000000  0.5737980000000  0.5136950000000 1.0
C      1  0.4170060000000  0.5389370000000  0.5022060000000 1.0
C      1  0.4675260000000  0.4686860000000  0.4932440000000 1.0
C      1  0.5223330000000  0.4382830000000  0.5114950000000 1.0
C      1  0.5454540000000  0.4420270000000  0.5275500000000 1.0
C      1  0.4362900000000  0.4232840000000  0.4990400000000 1.0
C      1  0.4805630000000  0.4401750000000  0.5325840000000 1.0
C      1  0.5162140000000  0.5710730000000  0.4693470000000 1.0
C      1  0.4222110000000  0.4410940000000  0.5148600000000 1.0
C      1  0.4371990000000  0.4536230000000  0.5356770000000 1.0
C      1  0.5617230000000  0.4939690000000  0.4490390000000 1.0
C      1  0.4860700000000  0.5468520000000  0.5458580000000 1.0
C      1  0.4133760000000  0.4885130000000  0.5242810000000 1.0
C      1  0.4975560000000  0.5283940000000  0.4152860000000 1.0
C      1  0.4630190000000  0.5124940000000  0.5779720000000 1.0
C      1  0.5641160000000  0.5141320000000  0.4719910000000 1.0
C      1  0.5409400000000  0.5661220000000  0.5576000000000 1.0
C      1  0.5504810000000  0.4954030000000  0.5724610000000 1.0
C      1  0.4932900000000  0.5667620000000  0.4510770000000 1.0
C      1  0.4928080000000  0.4798390000000  0.4878210000000 1.0
C      1  0.5368330000000  0.4939260000000  0.5224530000000 1.0
C      1  0.4386530000000  0.5562000000000  0.4576670000000 1.0
C      1  0.5330890000000  0.5838470000000  0.5188390000000 1.0
C      1  0.4823030000000  0.5305620000000  0.5739320000000 1.0
C      1  0.4463400000000  0.4900950000000  0.4854730000000 1.0
C      1  0.4306990000000  0.5297110000000  0.4462580000000 1.0
C      1  0.5313340000000  0.5470550000000  0.4313850000000 1.0
C      1  0.4563180000000  0.4384650000000  0.4553700000000 1.0
C      1  0.4277580000000  0.4777910000000  0.5476960000000 1.0
C      1  0.4967100000000  0.4262310000000  0.5132490000000 1.0
C      1  0.5317000000000  0.5242810000000  0.5224480000000 1.0
C      1  0.5680190000000  0.4561620000000  0.5161000000000 1.0
END
