TITL C-141717-1885-7 0.0424282538768994 125000 -354.051344533324 0 0 53 (C1) n - 1
REM
REM in /rds/project/t2_vol4/rds-t2-cs072/BORA/CARBON/from-Arr/AIRSS/Generating-Clusters/GAP-ML-2020/Only-C1/SD-CG/HFTN-CG
REM
REM
REM
REM
REM
REM ./C.cell (11c1c37f851c82e70ff6c80c92926a4b)
REM AIRSS Version 0.9.1 bugfix July 2018 build 013d7b7c2542+ Fri, 06 Jul 2018 19:26:36 +0100
REM compiler GCC version 9.3.0
REM options -cpp -mtune=generic -march=x86-64 -g -O0
REM seed 1915559617 -702240558 2086400174 2102207438 798219689 1107461950 308224130 -253716019 -772889515 649747432 -1393810865 -539921365 1868187588 -605847647 -1490314349 -2077281503 1102000443 1793835524 2143084175 -1780329665 1416562537 152885700 -1216086283 483779862 1553627160 322542769 -1151442866 1808686011 -1932630454 640036872 -1798859501 1622279807 1130424105
REM
CELL 1.54180   50.00000   50.00000   50.00000   90.00000   90.00000   90.00000
LATT -1
SFAC C  
C      1  0.4777870000000  0.5593200000000  0.5144130000000 1.0
C      1  0.5468850000000  0.4776190000000  0.5660860000000 1.0
C      1  0.5409460000000  0.4478380000000  0.5057700000000 1.0
C      1  0.4512500000000  0.5053060000000  0.5265240000000 1.0
C      1  0.4624700000000  0.4572740000000  0.4639720000000 1.0
C      1  0.4784290000000  0.5372120000000  0.5500800000000 1.0
C      1  0.5084430000000  0.5355160000000  0.4673780000000 1.0
C      1  0.4432050000000  0.5236700000000  0.5063970000000 1.0
C      1  0.4681470000000  0.4651100000000  0.5121520000000 1.0
C      1  0.5187030000000  0.5110590000000  0.5488960000000 1.0
C      1  0.4855830000000  0.5018020000000  0.4429570000000 1.0
C      1  0.5076200000000  0.4837380000000  0.4498020000000 1.0
C      1  0.5522970000000  0.4730130000000  0.4755790000000 1.0
C      1  0.5434100000000  0.5051920000000  0.5653140000000 1.0
C      1  0.5157010000000  0.4956630000000  0.5010040000000 1.0
C      1  0.4291560000000  0.4801740000000  0.4922770000000 1.0
C      1  0.5652490000000  0.4932420000000  0.5506780000000 1.0
C      1  0.4822250000000  0.4389930000000  0.4590130000000 1.0
C      1  0.5261040000000  0.4524650000000  0.4794010000000 1.0
C      1  0.4625990000000  0.5444920000000  0.4926610000000 1.0
C      1  0.4495040000000  0.5289860000000  0.4479260000000 1.0
C      1  0.5107950000000  0.5207190000000  0.4438920000000 1.0
C      1  0.5287370000000  0.4645200000000  0.5476680000000 1.0
C      1  0.5510600000000  0.5379490000000  0.5207660000000 1.0
C      1  0.4937930000000  0.4952220000000  0.5538690000000 1.0
C      1  0.5329790000000  0.5407170000000  0.4804490000000 1.0
C      1  0.5077140000000  0.4346680000000  0.4636800000000 1.0
C      1  0.5293640000000  0.4912560000000  0.5258590000000 1.0
C      1  0.4273370000000  0.5083970000000  0.4879250000000 1.0
C      1  0.4703970000000  0.5101240000000  0.5480150000000 1.0
C      1  0.5072980000000  0.5545540000000  0.5211700000000 1.0
C      1  0.4382270000000  0.4723110000000  0.4657150000000 1.0
C      1  0.5373500000000  0.4435400000000  0.5314750000000 1.0
C      1  0.5543910000000  0.5209100000000  0.4798750000000 1.0
C      1  0.5604410000000  0.4921490000000  0.5210070000000 1.0
C      1  0.4654330000000  0.5585910000000  0.5390610000000 1.0
C      1  0.4993030000000  0.4672370000000  0.5518570000000 1.0
C      1  0.4720680000000  0.5016300000000  0.4708010000000 1.0
C      1  0.4839320000000  0.4570080000000  0.5323880000000 1.0
C      1  0.5510190000000  0.4978300000000  0.4629000000000 1.0
C      1  0.4843260000000  0.5256420000000  0.4832580000000 1.0
C      1  0.4440510000000  0.4792090000000  0.5160790000000 1.0
C      1  0.5299660000000  0.5001400000000  0.4446490000000 1.0
C      1  0.4421700000000  0.5038320000000  0.4629750000000 1.0
C      1  0.4961280000000  0.5138770000000  0.5068180000000 1.0
C      1  0.4647790000000  0.5138000000000  0.4295690000000 1.0
C      1  0.5069580000000  0.4760470000000  0.4800930000000 1.0
C      1  0.5633460000000  0.5177520000000  0.5069740000000 1.0
C      1  0.4546990000000  0.5503270000000  0.4651180000000 1.0
C      1  0.5066930000000  0.5378750000000  0.5449960000000 1.0
C      1  0.5312550000000  0.5512650000000  0.5072660000000 1.0
C      1  0.4777270000000  0.4738720000000  0.4835640000000 1.0
C      1  0.5605470000000  0.4693490000000  0.5019910000000 1.0
END
