TITL C-142161-3943-1 92.5987377895516 125000 -758.532565391931 0 0 105 (C1) n - 1
REM
REM in /rds/project/t2_vol4/rds-t2-cs072/BORA/CARBON/from-Arr/AIRSS/Generating-Clusters/GAP-ML-2020/Only-C1/SD-CG/HFTN-CG
REM
REM
REM
REM
REM
REM ./C.cell (11c1c37f851c82e70ff6c80c92926a4b)
REM AIRSS Version 0.9.1 bugfix July 2018 build 013d7b7c2542+ Fri, 06 Jul 2018 19:26:36 +0100
REM compiler GCC version 9.3.0
REM options -cpp -mtune=generic -march=x86-64 -g -O0
REM seed -1538835312 -1213095636 -874898117 -1523811918 606329809 -81675324 -711255291 -1492864826 927240094 170483822 864752625 -1719085921 -685831505 -1919867034 1711026451 -1602780493 -611085436 558786778 943215498 894988340 1520599095 76159850 -1926670581 566999949 894458135 1441581683 1906605794 -1715763630 805166599 110088902 -1609757702 -1481821854 1228089393
REM
CELL 1.54180   50.00000   50.00000   50.00000   90.00000   90.00000   90.00000
LATT -1
SFAC C  
C      1  0.4350640000000  0.4881470000000  0.5372930000000 1.0
C      1  0.5416940000000  0.5407940000000  0.5662260000000 1.0
C      1  0.5375930000000  0.4958950000000  0.5088900000000 1.0
C      1  0.5758230000000  0.5081510000000  0.5490840000000 1.0
C      1  0.4969450000000  0.4691460000000  0.4322990000000 1.0
C      1  0.5405720000000  0.4459360000000  0.5462090000000 1.0
C      1  0.5337740000000  0.5807890000000  0.5052810000000 1.0
C      1  0.5540120000000  0.4552920000000  0.4372750000000 1.0
C      1  0.4373400000000  0.5112460000000  0.5555560000000 1.0
C      1  0.4920800000000  0.4429040000000  0.5626790000000 1.0
C      1  0.4181270000000  0.4974900000000  0.5140400000000 1.0
C      1  0.5419600000000  0.4934630000000  0.5793700000000 1.0
C      1  0.4789410000000  0.5302920000000  0.5810140000000 1.0
C      1  0.4781400000000  0.5538430000000  0.5652610000000 1.0
C      1  0.4617360000000  0.5827000000000  0.4824720000000 1.0
C      1  0.4625740000000  0.5758770000000  0.5289950000000 1.0
C      1  0.5646910000000  0.4626440000000  0.4933970000000 1.0
C      1  0.4628100000000  0.4937050000000  0.5190190000000 1.0
C      1  0.4909840000000  0.5148530000000  0.4639140000000 1.0
C      1  0.5541310000000  0.5046410000000  0.4302190000000 1.0
C      1  0.5197670000000  0.4412510000000  0.4702650000000 1.0
C      1  0.5628220000000  0.4799930000000  0.4444120000000 1.0
C      1  0.5018710000000  0.5158870000000  0.5297520000000 1.0
C      1  0.5149330000000  0.4842320000000  0.4101630000000 1.0
C      1  0.4690220000000  0.4062060000000  0.5091940000000 1.0
C      1  0.5210920000000  0.4594300000000  0.3986250000000 1.0
C      1  0.4670290000000  0.4597710000000  0.5662050000000 1.0
C      1  0.4507250000000  0.4149670000000  0.4906240000000 1.0
C      1  0.5647760000000  0.5340940000000  0.5511410000000 1.0
C      1  0.4903020000000  0.4222380000000  0.5443860000000 1.0
C      1  0.5747650000000  0.4708700000000  0.5198140000000 1.0
C      1  0.4991720000000  0.5331800000000  0.5070820000000 1.0
C      1  0.5631260000000  0.4869110000000  0.5624560000000 1.0
C      1  0.4242350000000  0.4889230000000  0.4653370000000 1.0
C      1  0.5339290000000  0.4331150000000  0.5208390000000 1.0
C      1  0.4470220000000  0.5761870000000  0.5062780000000 1.0
C      1  0.4716960000000  0.4834240000000  0.5803740000000 1.0
C      1  0.4493320000000  0.4602880000000  0.4331920000000 1.0
C      1  0.5836720000000  0.5079250000000  0.4770870000000 1.0
C      1  0.5029300000000  0.5763520000000  0.4578600000000 1.0
C      1  0.4241370000000  0.4687410000000  0.4453620000000 1.0
C      1  0.5300470000000  0.5081820000000  0.4857960000000 1.0
C      1  0.5283510000000  0.5634780000000  0.5532000000000 1.0
C      1  0.4441020000000  0.4599960000000  0.5483630000000 1.0
C      1  0.5104280000000  0.4174260000000  0.5234190000000 1.0
C      1  0.5437570000000  0.5700580000000  0.5296870000000 1.0
C      1  0.5621000000000  0.4637390000000  0.5449600000000 1.0
C      1  0.5791710000000  0.5438800000000  0.5065110000000 1.0
C      1  0.5471670000000  0.5718690000000  0.4802880000000 1.0
C      1  0.5028270000000  0.4696270000000  0.4631210000000 1.0
C      1  0.4555560000000  0.5556720000000  0.5475510000000 1.0
C      1  0.5735340000000  0.4817890000000  0.4712270000000 1.0
C      1  0.5212670000000  0.4742830000000  0.5823360000000 1.0
C      1  0.5004640000000  0.5699340000000  0.5537620000000 1.0
C      1  0.4978340000000  0.4886590000000  0.5892290000000 1.0
C      1  0.5165740000000  0.4915430000000  0.5256900000000 1.0
C      1  0.4917990000000  0.5431200000000  0.4220410000000 1.0
C      1  0.5879440000000  0.5163370000000  0.5036240000000 1.0
C      1  0.5194640000000  0.4511890000000  0.5665770000000 1.0
C      1  0.4317950000000  0.4327340000000  0.5052170000000 1.0
C      1  0.4851750000000  0.5652830000000  0.4388090000000 1.0
C      1  0.4517520000000  0.4973110000000  0.4704000000000 1.0
C      1  0.4579210000000  0.5549090000000  0.4447790000000 1.0
C      1  0.5598240000000  0.5305860000000  0.4406700000000 1.0
C      1  0.4792470000000  0.4718970000000  0.5066300000000 1.0
C      1  0.4806740000000  0.5260790000000  0.4879980000000 1.0
C      1  0.4961040000000  0.4206930000000  0.4747080000000 1.0
C      1  0.5189240000000  0.5346610000000  0.4201800000000 1.0
C      1  0.5129730000000  0.4456950000000  0.4219680000000 1.0
C      1  0.4653150000000  0.5307490000000  0.4301290000000 1.0
C      1  0.5298440000000  0.5078190000000  0.4157410000000 1.0
C      1  0.4178860000000  0.4512560000000  0.4883430000000 1.0
C      1  0.4695870000000  0.4787610000000  0.4296030000000 1.0
C      1  0.5022530000000  0.4685610000000  0.5203310000000 1.0
C      1  0.4783020000000  0.5066010000000  0.5388220000000 1.0
C      1  0.5696160000000  0.5537720000000  0.4818560000000 1.0
C      1  0.4422130000000  0.4361980000000  0.5323880000000 1.0
C      1  0.4905330000000  0.5831100000000  0.5302610000000 1.0
C      1  0.5304740000000  0.5683450000000  0.4568100000000 1.0
C      1  0.5416590000000  0.4436650000000  0.4937880000000 1.0
C      1  0.5376700000000  0.5487610000000  0.4369140000000 1.0
C      1  0.4449640000000  0.5627670000000  0.4680040000000 1.0
C      1  0.5112670000000  0.4965530000000  0.4687450000000 1.0
C      1  0.4228250000000  0.4446670000000  0.4605710000000 1.0
C      1  0.4902400000000  0.5859140000000  0.4816680000000 1.0
C      1  0.4379490000000  0.5343460000000  0.5392730000000 1.0
C      1  0.5028890000000  0.5164850000000  0.5887560000000 1.0
C      1  0.5308120000000  0.5199780000000  0.5823100000000 1.0
C      1  0.5326710000000  0.4397120000000  0.4425970000000 1.0
C      1  0.4321010000000  0.5540320000000  0.4938720000000 1.0
C      1  0.4663300000000  0.4213060000000  0.4666940000000 1.0
C      1  0.4763460000000  0.4729630000000  0.4792170000000 1.0
C      1  0.5056560000000  0.5877440000000  0.5060420000000 1.0
C      1  0.5753890000000  0.5326410000000  0.4633280000000 1.0
C      1  0.4560310000000  0.5127440000000  0.4961170000000 1.0
C      1  0.4607060000000  0.5089810000000  0.5719900000000 1.0
C      1  0.4485800000000  0.4351390000000  0.4492260000000 1.0
C      1  0.5850370000000  0.4978400000000  0.5240950000000 1.0
C      1  0.5662020000000  0.5522790000000  0.5295200000000 1.0
C      1  0.5229450000000  0.5334290000000  0.4935900000000 1.0
C      1  0.4644090000000  0.4175280000000  0.5342870000000 1.0
C      1  0.4957830000000  0.4089860000000  0.5006880000000 1.0
C      1  0.4323070000000  0.5277920000000  0.5097910000000 1.0
C      1  0.4670930000000  0.5053270000000  0.4453750000000 1.0
C      1  0.4139940000000  0.4808270000000  0.4915760000000 1.0
END
