TITL C-140215-7015-9 -57.1259241771981 125000 -932.612960777 0 0 132 (C1) n - 1
REM
REM in /rds/project/t2_vol4/rds-t2-cs072/BORA/CARBON/from-Arr/AIRSS/Generating-Clusters/GAP-ML-2020/Only-C1/SD-CG/HFTN-CG
REM
REM
REM
REM
REM
REM ./C.cell (11c1c37f851c82e70ff6c80c92926a4b)
REM AIRSS Version 0.9.1 bugfix July 2018 build 013d7b7c2542+ Fri, 06 Jul 2018 19:26:36 +0100
REM compiler GCC version 9.3.0
REM options -cpp -mtune=generic -march=x86-64 -g -O0
REM seed -1126153500 -687208976 -1414733790 865536363 4795626 1971815417 131212840 963383713 664107745 374625463 -693684597 -1711581986 -26275411 -6520115 941069996 1803593989 1770823825 1474843039 1168465042 31179809 1637059520 -1630915803 -1976716194 964328650 2020669046 1305706963 -1174965804 2034788608 620034155 874728490 -217714441 -926400893 -1553064390
REM
CELL 1.54180   50.00000   50.00000   50.00000   90.00000   90.00000   90.00000
LATT -1
SFAC C  
C      1  0.4607070000000  0.4612480000000  0.5805020000000 1.0
C      1  0.5870740000000  0.5080190000000  0.5242070000000 1.0
C      1  0.4839550000000  0.5419070000000  0.5921480000000 1.0
C      1  0.5852460000000  0.5337960000000  0.5354660000000 1.0
C      1  0.4978960000000  0.5451900000000  0.5299520000000 1.0
C      1  0.5086180000000  0.5143090000000  0.4050410000000 1.0
C      1  0.4873290000000  0.5128230000000  0.4444160000000 1.0
C      1  0.4456880000000  0.5814850000000  0.4951560000000 1.0
C      1  0.5184750000000  0.4456650000000  0.4229330000000 1.0
C      1  0.5529210000000  0.5686770000000  0.4836670000000 1.0
C      1  0.5763390000000  0.4868690000000  0.5412500000000 1.0
C      1  0.4742730000000  0.4752340000000  0.4701920000000 1.0
C      1  0.5318890000000  0.4058740000000  0.5179500000000 1.0
C      1  0.4671310000000  0.4583100000000  0.4028660000000 1.0
C      1  0.5839120000000  0.4777380000000  0.4359840000000 1.0
C      1  0.4936940000000  0.5383470000000  0.4118870000000 1.0
C      1  0.5490300000000  0.4651080000000  0.4961480000000 1.0
C      1  0.5177630000000  0.4265310000000  0.4728530000000 1.0
C      1  0.4515460000000  0.4401710000000  0.4441340000000 1.0
C      1  0.4959400000000  0.4282580000000  0.4289760000000 1.0
C      1  0.5138650000000  0.5901880000000  0.5142930000000 1.0
C      1  0.4356530000000  0.5019900000000  0.5569500000000 1.0
C      1  0.4921980000000  0.4194750000000  0.4560250000000 1.0
C      1  0.5087830000000  0.5767980000000  0.5661830000000 1.0
C      1  0.5814660000000  0.4700950000000  0.4622730000000 1.0
C      1  0.5818880000000  0.4606430000000  0.5315570000000 1.0
C      1  0.5552380000000  0.5205350000000  0.5734700000000 1.0
C      1  0.4335880000000  0.4631640000000  0.4483760000000 1.0
C      1  0.5369980000000  0.4110860000000  0.4906140000000 1.0
C      1  0.5464440000000  0.4439930000000  0.4270620000000 1.0
C      1  0.5610080000000  0.4211440000000  0.4807430000000 1.0
C      1  0.4683030000000  0.5905980000000  0.5096380000000 1.0
C      1  0.5773530000000  0.5056870000000  0.4309860000000 1.0
C      1  0.5137610000000  0.5551700000000  0.4237580000000 1.0
C      1  0.4081160000000  0.5446660000000  0.5046790000000 1.0
C      1  0.4739400000000  0.4790600000000  0.5193910000000 1.0
C      1  0.4356080000000  0.4434210000000  0.5464380000000 1.0
C      1  0.5569350000000  0.5479070000000  0.4406180000000 1.0
C      1  0.4332940000000  0.5069230000000  0.5078890000000 1.0
C      1  0.5120720000000  0.4650440000000  0.5922340000000 1.0
C      1  0.4710760000000  0.4842820000000  0.4098810000000 1.0
C      1  0.4783850000000  0.5253030000000  0.5291230000000 1.0
C      1  0.5017900000000  0.5897940000000  0.5409160000000 1.0
C      1  0.4334440000000  0.4905310000000  0.4362230000000 1.0
C      1  0.5756620000000  0.5277080000000  0.4492200000000 1.0
C      1  0.5545180000000  0.4957340000000  0.5590740000000 1.0
C      1  0.5126220000000  0.4723210000000  0.4365210000000 1.0
C      1  0.5155730000000  0.5701460000000  0.4487480000000 1.0
C      1  0.5709330000000  0.5390510000000  0.5597400000000 1.0
C      1  0.5906740000000  0.5056310000000  0.4953550000000 1.0
C      1  0.5296490000000  0.5161100000000  0.5189540000000 1.0
C      1  0.4928010000000  0.5884150000000  0.4951750000000 1.0
C      1  0.4457830000000  0.5879220000000  0.4678080000000 1.0
C      1  0.4225460000000  0.4948030000000  0.4814530000000 1.0
C      1  0.4646530000000  0.4262710000000  0.4653580000000 1.0
C      1  0.4764120000000  0.4589710000000  0.4966650000000 1.0
C      1  0.5336280000000  0.4839580000000  0.4545860000000 1.0
C      1  0.5795510000000  0.5553520000000  0.5181250000000 1.0
C      1  0.4849790000000  0.5665230000000  0.5774860000000 1.0
C      1  0.4170990000000  0.4803770000000  0.5633960000000 1.0
C      1  0.5429620000000  0.5665810000000  0.4576640000000 1.0
C      1  0.4993700000000  0.4908980000000  0.5891160000000 1.0
C      1  0.4577820000000  0.5067160000000  0.5757070000000 1.0
C      1  0.5755820000000  0.5520410000000  0.4905570000000 1.0
C      1  0.5178910000000  0.5429940000000  0.5103990000000 1.0
C      1  0.5617980000000  0.4675520000000  0.4195300000000 1.0
C      1  0.4702470000000  0.4854920000000  0.5907960000000 1.0
C      1  0.5308260000000  0.5341340000000  0.5833410000000 1.0
C      1  0.4285190000000  0.5366560000000  0.4558820000000 1.0
C      1  0.5443360000000  0.4242370000000  0.5379530000000 1.0
C      1  0.5563100000000  0.4967630000000  0.4123650000000 1.0
C      1  0.4993260000000  0.4661050000000  0.4613770000000 1.0
C      1  0.5459430000000  0.4370670000000  0.4572600000000 1.0
C      1  0.4700890000000  0.4391430000000  0.4215530000000 1.0
C      1  0.4103500000000  0.5232650000000  0.5247370000000 1.0
C      1  0.5234750000000  0.4681540000000  0.5055100000000 1.0
C      1  0.5009960000000  0.4949690000000  0.5589740000000 1.0
C      1  0.5094460000000  0.4448110000000  0.5745800000000 1.0
C      1  0.4718950000000  0.5027190000000  0.4671090000000 1.0
C      1  0.5777980000000  0.4320820000000  0.5007430000000 1.0
C      1  0.5280050000000  0.4957720000000  0.5452640000000 1.0
C      1  0.5317500000000  0.5611070000000  0.5724230000000 1.0
C      1  0.5828950000000  0.5275120000000  0.4776140000000 1.0
C      1  0.4361070000000  0.5548520000000  0.5023710000000 1.0
C      1  0.4761060000000  0.5215330000000  0.4885400000000 1.0
C      1  0.3931990000000  0.5000360000000  0.5290530000000 1.0
C      1  0.4248180000000  0.4666250000000  0.4753740000000 1.0
C      1  0.4639650000000  0.4174940000000  0.5195240000000 1.0
C      1  0.5073080000000  0.3937400000000  0.5211470000000 1.0
C      1  0.4271260000000  0.5292790000000  0.5500810000000 1.0
C      1  0.4538390000000  0.5297340000000  0.5071960000000 1.0
C      1  0.4604780000000  0.4315200000000  0.5441940000000 1.0
C      1  0.5394850000000  0.5427390000000  0.4191130000000 1.0
C      1  0.5684640000000  0.4347470000000  0.5284830000000 1.0
C      1  0.4523650000000  0.5482980000000  0.4435280000000 1.0
C      1  0.4965880000000  0.4932060000000  0.4219110000000 1.0
C      1  0.5108520000000  0.5248830000000  0.4603900000000 1.0
C      1  0.4994690000000  0.5413660000000  0.4828010000000 1.0
C      1  0.4802690000000  0.5142450000000  0.5549900000000 1.0
C      1  0.5279500000000  0.4431510000000  0.5522010000000 1.0
C      1  0.5554090000000  0.5627840000000  0.5565990000000 1.0
C      1  0.4300860000000  0.4493250000000  0.4968890000000 1.0
C      1  0.5521860000000  0.4644460000000  0.4675760000000 1.0
C      1  0.4932520000000  0.5703410000000  0.4698520000000 1.0
C      1  0.4029420000000  0.4763700000000  0.5376870000000 1.0
C      1  0.4908840000000  0.4707920000000  0.5432190000000 1.0
C      1  0.4168090000000  0.5462280000000  0.4793430000000 1.0
C      1  0.4647210000000  0.5710530000000  0.4562800000000 1.0
C      1  0.5269880000000  0.5053140000000  0.4715510000000 1.0
C      1  0.4680470000000  0.5298110000000  0.4267160000000 1.0
C      1  0.4445870000000  0.4865580000000  0.5265070000000 1.0
C      1  0.5197390000000  0.4662680000000  0.5350960000000 1.0
C      1  0.4344940000000  0.4591030000000  0.5697600000000 1.0
C      1  0.5587060000000  0.5711380000000  0.5294720000000 1.0
C      1  0.5928250000000  0.4574420000000  0.5048210000000 1.0
C      1  0.4621090000000  0.5710950000000  0.5598810000000 1.0
C      1  0.4733330000000  0.5875490000000  0.5380390000000 1.0
C      1  0.4238780000000  0.5085030000000  0.4561950000000 1.0
C      1  0.5371990000000  0.5726650000000  0.5089610000000 1.0
C      1  0.4521560000000  0.5033250000000  0.4185110000000 1.0
C      1  0.5059770000000  0.4516740000000  0.4875670000000 1.0
C      1  0.4799730000000  0.4484060000000  0.5615960000000 1.0
C      1  0.5063450000000  0.5225150000000  0.5926160000000 1.0
C      1  0.4885900000000  0.5035220000000  0.5096010000000 1.0
C      1  0.5945850000000  0.4783790000000  0.4860480000000 1.0
C      1  0.5369730000000  0.5166830000000  0.4071200000000 1.0
C      1  0.4821390000000  0.3968260000000  0.5201070000000 1.0
C      1  0.5188990000000  0.4976280000000  0.4998960000000 1.0
C      1  0.4430070000000  0.5491460000000  0.5647260000000 1.0
C      1  0.4255660000000  0.4602470000000  0.5238890000000 1.0
C      1  0.4569300000000  0.5336780000000  0.5853480000000 1.0
C      1  0.4569710000000  0.4346180000000  0.4944670000000 1.0
END
