TITL C-147435-6695-3 -74.8817318274496 125000 -594.134447037665 0 0 84 (C1) n - 1
REM
REM in /rds/project/t2_vol4/rds-t2-cs072/BORA/CARBON/from-Arr/AIRSS/Generating-Clusters/GAP-ML-2020/Only-C1/SD-CG/HFTN-CG
REM
REM
REM
REM
REM
REM ./C.cell (11c1c37f851c82e70ff6c80c92926a4b)
REM AIRSS Version 0.9.1 bugfix July 2018 build 013d7b7c2542+ Fri, 06 Jul 2018 19:26:36 +0100
REM compiler GCC version 9.3.0
REM options -cpp -mtune=generic -march=x86-64 -g -O0
REM seed 1463835318 -1368192700 -1669318389 -2063593964 -2018628176 -1840950737 -183823826 159107176 -509652707 2004683063 -519225637 -838797890 -73239967 -94780628 -1495435443 1905801310 -1255178373 780140411 1086563985 60070608 36691232 -679115003 1872232481 2132196257 426668440 -850972531 -1809091280 -808262615 1003825306 -2023015365 1768056827 1372828040 -1212611377
REM
CELL 1.54180   50.00000   50.00000   50.00000   90.00000   90.00000   90.00000
LATT -1
SFAC C  
C      1  0.4701720000000  0.5118090000000  0.4229210000000 1.0
C      1  0.4956500000000  0.5574770000000  0.5494250000000 1.0
C      1  0.5112700000000  0.4713820000000  0.5178170000000 1.0
C      1  0.4707480000000  0.5178370000000  0.5109020000000 1.0
C      1  0.4552220000000  0.4842990000000  0.5690240000000 1.0
C      1  0.5601780000000  0.5458460000000  0.4729240000000 1.0
C      1  0.5183210000000  0.4219490000000  0.5037480000000 1.0
C      1  0.5284560000000  0.5686080000000  0.4901980000000 1.0
C      1  0.5442840000000  0.5464890000000  0.5468470000000 1.0
C      1  0.5140370000000  0.4207840000000  0.5316270000000 1.0
C      1  0.5656940000000  0.4794130000000  0.4564760000000 1.0
C      1  0.5557230000000  0.4556250000000  0.5118370000000 1.0
C      1  0.4369720000000  0.4755100000000  0.5076370000000 1.0
C      1  0.5534430000000  0.5530170000000  0.5004310000000 1.0
C      1  0.4760300000000  0.5000300000000  0.5815110000000 1.0
C      1  0.5052880000000  0.4962090000000  0.5816970000000 1.0
C      1  0.5167340000000  0.5218590000000  0.5770470000000 1.0
C      1  0.5499280000000  0.4531500000000  0.5398340000000 1.0
C      1  0.5624140000000  0.5042240000000  0.4412110000000 1.0
C      1  0.4540370000000  0.5023670000000  0.4464630000000 1.0
C      1  0.4700910000000  0.5270590000000  0.5756750000000 1.0
C      1  0.4283650000000  0.4974510000000  0.5258770000000 1.0
C      1  0.4365930000000  0.5231670000000  0.4604760000000 1.0
C      1  0.5148630000000  0.5609540000000  0.4450870000000 1.0
C      1  0.5441050000000  0.4794230000000  0.5540250000000 1.0
C      1  0.4920670000000  0.4547930000000  0.4367190000000 1.0
C      1  0.5214010000000  0.4743140000000  0.5731300000000 1.0
C      1  0.5615480000000  0.4871490000000  0.5087540000000 1.0
C      1  0.5151910000000  0.5171960000000  0.5231710000000 1.0
C      1  0.5320680000000  0.4914810000000  0.5258210000000 1.0
C      1  0.5330450000000  0.4734390000000  0.4242910000000 1.0
C      1  0.4841180000000  0.5208810000000  0.4875580000000 1.0
C      1  0.4793060000000  0.4725600000000  0.4818180000000 1.0
C      1  0.5692890000000  0.5197980000000  0.4652140000000 1.0
C      1  0.4746390000000  0.5698340000000  0.5053070000000 1.0
C      1  0.4493360000000  0.5590900000000  0.4932120000000 1.0
C      1  0.5043490000000  0.4721530000000  0.4191230000000 1.0
C      1  0.5299550000000  0.4355600000000  0.5493360000000 1.0
C      1  0.4453320000000  0.4752380000000  0.4563680000000 1.0
C      1  0.4946080000000  0.5407510000000  0.5719750000000 1.0
C      1  0.5207240000000  0.4960960000000  0.4785180000000 1.0
C      1  0.4474380000000  0.5293730000000  0.5580610000000 1.0
C      1  0.5431630000000  0.5255890000000  0.5665450000000 1.0
C      1  0.5172250000000  0.5167270000000  0.4148710000000 1.0
C      1  0.4781570000000  0.5388470000000  0.4282020000000 1.0
C      1  0.4473040000000  0.5493430000000  0.4662850000000 1.0
C      1  0.5702700000000  0.4944830000000  0.4815000000000 1.0
C      1  0.4647630000000  0.4638510000000  0.5090070000000 1.0
C      1  0.5051670000000  0.5000440000000  0.4555200000000 1.0
C      1  0.4857400000000  0.4785130000000  0.5274670000000 1.0
C      1  0.5065110000000  0.5416800000000  0.4251900000000 1.0
C      1  0.4921690000000  0.5689500000000  0.4605700000000 1.0
C      1  0.5682690000000  0.5109880000000  0.5284250000000 1.0
C      1  0.5350080000000  0.4405720000000  0.4630400000000 1.0
C      1  0.5082370000000  0.4722330000000  0.4898530000000 1.0
C      1  0.5413040000000  0.5008690000000  0.4217920000000 1.0
C      1  0.4874730000000  0.5068990000000  0.5294100000000 1.0
C      1  0.4842380000000  0.4288020000000  0.4668400000000 1.0
C      1  0.5471650000000  0.4600890000000  0.4460770000000 1.0
C      1  0.4227790000000  0.5201020000000  0.5084500000000 1.0
C      1  0.4340430000000  0.5460320000000  0.5136730000000 1.0
C      1  0.5370850000000  0.5615660000000  0.4631400000000 1.0
C      1  0.4477650000000  0.5498570000000  0.5385050000000 1.0
C      1  0.4691560000000  0.5555980000000  0.4496720000000 1.0
C      1  0.4944510000000  0.4987430000000  0.4134020000000 1.0
C      1  0.4839440000000  0.4419850000000  0.5617370000000 1.0
C      1  0.5128560000000  0.5190400000000  0.4937410000000 1.0
C      1  0.5079480000000  0.4354120000000  0.4518970000000 1.0
C      1  0.5186920000000  0.5480760000000  0.5356550000000 1.0
C      1  0.4726530000000  0.5640210000000  0.5335300000000 1.0
C      1  0.4900840000000  0.4228830000000  0.4930570000000 1.0
C      1  0.4235180000000  0.5098470000000  0.4813600000000 1.0
C      1  0.5591410000000  0.5042200000000  0.5558490000000 1.0
C      1  0.5608010000000  0.5391050000000  0.5242680000000 1.0
C      1  0.4701110000000  0.4554920000000  0.4572790000000 1.0
C      1  0.4861830000000  0.4267570000000  0.5374560000000 1.0
C      1  0.5119670000000  0.4485710000000  0.5678670000000 1.0
C      1  0.4625830000000  0.4585470000000  0.5647290000000 1.0
C      1  0.5404550000000  0.4372530000000  0.4924420000000 1.0
C      1  0.4305930000000  0.4820050000000  0.4803680000000 1.0
C      1  0.4785620000000  0.5002830000000  0.4678820000000 1.0
C      1  0.4732040000000  0.4342040000000  0.5136100000000 1.0
C      1  0.4981220000000  0.5739530000000  0.4884570000000 1.0
C      1  0.4381060000000  0.5023220000000  0.5522890000000 1.0
END
