TITL C-147438-6671-1 -0.0604925051607073 125000 -518.52975497587 0 0 76 (C1) n - 1
REM
REM in /rds/project/t2_vol4/rds-t2-cs072/BORA/CARBON/from-Arr/AIRSS/Generating-Clusters/GAP-ML-2020/Only-C1/SD-CG/HFTN-CG
REM
REM
REM
REM
REM
REM ./C.cell (11c1c37f851c82e70ff6c80c92926a4b)
REM AIRSS Version 0.9.1 bugfix July 2018 build 013d7b7c2542+ Fri, 06 Jul 2018 19:26:36 +0100
REM compiler GCC version 9.3.0
REM options -cpp -mtune=generic -march=x86-64 -g -O0
REM seed 1922403043 536315734 1164060152 -1791194166 18855782 -173181800 1883089396 1549907032 -2097181101 695631820 670412639 -986144786 -9686894 -305518586 663449732 2124091096 -218286903 -47304823 1128205085 1602219397 -826635461 -1369938222 810499946 438904080 -972036518 1893349332 -1466429868 1125080060 405513058 -1250247501 -374826422 1667873934 1454928173
REM
CELL 1.54180   50.00000   50.00000   50.00000   90.00000   90.00000   90.00000
LATT -1
SFAC C  
C      1  0.5148570000000  0.4421570000000  0.4802800000000 1.0
C      1  0.5699970000000  0.4734510000000  0.5211680000000 1.0
C      1  0.5553410000000  0.5038680000000  0.4389750000000 1.0
C      1  0.5569360000000  0.4612970000000  0.4954390000000 1.0
C      1  0.4948920000000  0.4886790000000  0.5288510000000 1.0
C      1  0.4682430000000  0.4276910000000  0.4894730000000 1.0
C      1  0.4894270000000  0.5713850000000  0.5134860000000 1.0
C      1  0.5792440000000  0.5215790000000  0.5039500000000 1.0
C      1  0.5176470000000  0.4741630000000  0.5171780000000 1.0
C      1  0.4252250000000  0.5191430000000  0.4389330000000 1.0
C      1  0.4908490000000  0.5599960000000  0.5394630000000 1.0
C      1  0.4592640000000  0.4347190000000  0.5153180000000 1.0
C      1  0.5612360000000  0.5645350000000  0.5205200000000 1.0
C      1  0.5241510000000  0.5040840000000  0.5711770000000 1.0
C      1  0.5206720000000  0.4684400000000  0.4411670000000 1.0
C      1  0.5030050000000  0.5134360000000  0.5484700000000 1.0
C      1  0.5318910000000  0.4534660000000  0.5479720000000 1.0
C      1  0.4750220000000  0.4791870000000  0.5746020000000 1.0
C      1  0.4629200000000  0.4865730000000  0.4274020000000 1.0
C      1  0.4568500000000  0.5255040000000  0.5675340000000 1.0
C      1  0.5544820000000  0.4735400000000  0.5454880000000 1.0
C      1  0.5235530000000  0.5303590000000  0.5346430000000 1.0
C      1  0.4419800000000  0.5317390000000  0.4585330000000 1.0
C      1  0.4369300000000  0.4726470000000  0.5348610000000 1.0
C      1  0.5718270000000  0.4682590000000  0.4711780000000 1.0
C      1  0.4970540000000  0.5197530000000  0.4909660000000 1.0
C      1  0.4822590000000  0.5056240000000  0.4199830000000 1.0
C      1  0.4426700000000  0.4384020000000  0.4922590000000 1.0
C      1  0.4777290000000  0.5336540000000  0.5475200000000 1.0
C      1  0.4328490000000  0.4825160000000  0.5079760000000 1.0
C      1  0.5125090000000  0.5604150000000  0.4720870000000 1.0
C      1  0.4342300000000  0.4917570000000  0.5554130000000 1.0
C      1  0.5514730000000  0.5238790000000  0.5421750000000 1.0
C      1  0.4815750000000  0.5329200000000  0.4300010000000 1.0
C      1  0.5319530000000  0.4917750000000  0.4278520000000 1.0
C      1  0.4701900000000  0.5612050000000  0.4965660000000 1.0
C      1  0.4801100000000  0.4986280000000  0.5041260000000 1.0
C      1  0.4517150000000  0.5284350000000  0.5274480000000 1.0
C      1  0.4680860000000  0.5414370000000  0.4523520000000 1.0
C      1  0.5415780000000  0.5088080000000  0.4947890000000 1.0
C      1  0.5520310000000  0.5285630000000  0.4545260000000 1.0
C      1  0.5622440000000  0.5217150000000  0.4802620000000 1.0
C      1  0.4583180000000  0.4532900000000  0.5364030000000 1.0
C      1  0.4546580000000  0.4972270000000  0.5762260000000 1.0
C      1  0.5717620000000  0.4849050000000  0.4524150000000 1.0
C      1  0.4346180000000  0.5200930000000  0.5489480000000 1.0
C      1  0.5195490000000  0.4925560000000  0.5960960000000 1.0
C      1  0.4389310000000  0.5287940000000  0.4867750000000 1.0
C      1  0.4392670000000  0.4960490000000  0.4422910000000 1.0
C      1  0.5107280000000  0.5355350000000  0.4311620000000 1.0
C      1  0.4903660000000  0.4314780000000  0.4713620000000 1.0
C      1  0.4472940000000  0.5480250000000  0.5056690000000 1.0
C      1  0.5188220000000  0.5584390000000  0.5401010000000 1.0
C      1  0.5021570000000  0.4745370000000  0.5845610000000 1.0
C      1  0.5823610000000  0.4962360000000  0.5143260000000 1.0
C      1  0.5339410000000  0.4814300000000  0.4942120000000 1.0
C      1  0.5079550000000  0.4567540000000  0.5620390000000 1.0
C      1  0.5694020000000  0.5388690000000  0.5253620000000 1.0
C      1  0.5117560000000  0.5089880000000  0.4197570000000 1.0
C      1  0.5236760000000  0.4453000000000  0.5223830000000 1.0
C      1  0.4824640000000  0.4426870000000  0.4454330000000 1.0
C      1  0.4387420000000  0.4705110000000  0.4579820000000 1.0
C      1  0.4496570000000  0.5065760000000  0.5045140000000 1.0
C      1  0.5028700000000  0.4523190000000  0.4289320000000 1.0
C      1  0.4332170000000  0.4646030000000  0.4855600000000 1.0
C      1  0.4851830000000  0.5474590000000  0.4751860000000 1.0
C      1  0.5151830000000  0.5738640000000  0.4981390000000 1.0
C      1  0.5150920000000  0.4726180000000  0.4730750000000 1.0
C      1  0.4607700000000  0.4606240000000  0.4413820000000 1.0
C      1  0.5214600000000  0.5251330000000  0.5047250000000 1.0
C      1  0.5486140000000  0.4997430000000  0.5560870000000 1.0
C      1  0.4931940000000  0.4931610000000  0.4785990000000 1.0
C      1  0.5361480000000  0.4379590000000  0.4987730000000 1.0
C      1  0.4820130000000  0.4668160000000  0.5478930000000 1.0
C      1  0.5352030000000  0.5720910000000  0.5197030000000 1.0
C      1  0.5279320000000  0.5459470000000  0.4515650000000 1.0
END
