TITL C-144809-3180-3 -0.155475239504384 125000 -251.714313935052 0 0 39 (C1) n - 1
REM
REM in /rds/project/t2_vol4/rds-t2-cs072/BORA/CARBON/from-Arr/AIRSS/Generating-Clusters/GAP-ML-2020/Only-C1/SD-CG/HFTN-CG
REM
REM
REM
REM
REM
REM ./C.cell (11c1c37f851c82e70ff6c80c92926a4b)
REM AIRSS Version 0.9.1 bugfix July 2018 build 013d7b7c2542+ Fri, 06 Jul 2018 19:26:36 +0100
REM compiler GCC version 9.3.0
REM options -cpp -mtune=generic -march=x86-64 -g -O0
REM seed -94601887 2137132691 -623710807 -1908646398 -1505881380 -1217448246 2134774204 1005265058 843522185 1583035006 -1396641208 391188719 -1633452784 -375518940 -1081293838 -1419993402 -995826141 -163969677 1852562451 1245210968 -1068655261 -726476846 -1467816085 2120398591 1526939809 357824703 -1357833693 -492782471 1582957152 -1155256998 1301354137 -1682972206 -2037403169
REM
CELL 1.54180   50.00000   50.00000   50.00000   90.00000   90.00000   90.00000
LATT -1
SFAC C  
C      1  0.5526390000000  0.4947610000000  0.5015920000000 1.0
C      1  0.5169260000000  0.5088890000000  0.4677520000000 1.0
C      1  0.5086790000000  0.5381210000000  0.4679040000000 1.0
C      1  0.5264420000000  0.5353110000000  0.5275500000000 1.0
C      1  0.4772750000000  0.5447520000000  0.4991500000000 1.0
C      1  0.5056960000000  0.4955670000000  0.4442170000000 1.0
C      1  0.5468180000000  0.5139210000000  0.4668650000000 1.0
C      1  0.5298220000000  0.5094910000000  0.5157270000000 1.0
C      1  0.4976350000000  0.4204130000000  0.4738570000000 1.0
C      1  0.5215270000000  0.4896360000000  0.5364120000000 1.0
C      1  0.4939120000000  0.5573400000000  0.5174760000000 1.0
C      1  0.4785470000000  0.5143950000000  0.5043410000000 1.0
C      1  0.5544560000000  0.5383930000000  0.4767920000000 1.0
C      1  0.4301430000000  0.5173300000000  0.4987850000000 1.0
C      1  0.5486510000000  0.4677110000000  0.4964090000000 1.0
C      1  0.5059140000000  0.4742240000000  0.5109760000000 1.0
C      1  0.4954770000000  0.5052690000000  0.5716860000000 1.0
C      1  0.5292520000000  0.5510230000000  0.4827530000000 1.0
C      1  0.4671660000000  0.4998780000000  0.4470370000000 1.0
C      1  0.5091690000000  0.4300460000000  0.4973980000000 1.0
C      1  0.4736880000000  0.4947170000000  0.5528130000000 1.0
C      1  0.5677300000000  0.5119100000000  0.4846370000000 1.0
C      1  0.4907730000000  0.4296570000000  0.5195570000000 1.0
C      1  0.4966740000000  0.5372470000000  0.5408490000000 1.0
C      1  0.4532550000000  0.5055110000000  0.4873110000000 1.0
C      1  0.4805450000000  0.5429100000000  0.4707760000000 1.0
C      1  0.4629550000000  0.5234710000000  0.4617820000000 1.0
C      1  0.5184570000000  0.4921010000000  0.5626860000000 1.0
C      1  0.4842520000000  0.4562920000000  0.5256340000000 1.0
C      1  0.4617480000000  0.4553330000000  0.4717560000000 1.0
C      1  0.4774450000000  0.5154850000000  0.5329190000000 1.0
C      1  0.5062790000000  0.5018550000000  0.4965140000000 1.0
C      1  0.4570450000000  0.4814840000000  0.4682880000000 1.0
C      1  0.4696790000000  0.4688900000000  0.5459230000000 1.0
C      1  0.5246190000000  0.4553610000000  0.4996060000000 1.0
C      1  0.5214820000000  0.5573970000000  0.5093670000000 1.0
C      1  0.4868400000000  0.4960710000000  0.4261440000000 1.0
C      1  0.4950120000000  0.5338010000000  0.5681910000000 1.0
C      1  0.4753730000000  0.4340390000000  0.4705670000000 1.0
END
