TITL C-140217-7053-2 -0.049172308589042 125000 -635.745139142805 0 0 89 (C1) n - 1
REM
REM in /rds/project/t2_vol4/rds-t2-cs072/BORA/CARBON/from-Arr/AIRSS/Generating-Clusters/GAP-ML-2020/Only-C1/SD-CG/HFTN-CG
REM
REM
REM
REM
REM
REM ./C.cell (11c1c37f851c82e70ff6c80c92926a4b)
REM AIRSS Version 0.9.1 bugfix July 2018 build 013d7b7c2542+ Fri, 06 Jul 2018 19:26:36 +0100
REM compiler GCC version 9.3.0
REM options -cpp -mtune=generic -march=x86-64 -g -O0
REM seed -244085236 893703462 -472049668 264162042 -45708367 463663294 -1184517040 -2056823677 426959531 1375429718 -1312336602 1000566210 -1164389765 -1179124999 -395830469 853552553 -480525529 225651605 320827323 651514152 1963751394 -843750703 -229445835 -1902881510 1769619616 1219723626 1151772554 1818713670 762242897 -339825039 -268728957 2011989003 112387652
REM
CELL 1.54180   50.00000   50.00000   50.00000   90.00000   90.00000   90.00000
LATT -1
SFAC C  
C      1  0.4756230000000  0.5562970000000  0.4510220000000 1.0
C      1  0.5520470000000  0.4376760000000  0.5252410000000 1.0
C      1  0.4182050000000  0.5167440000000  0.4762140000000 1.0
C      1  0.5070870000000  0.4339060000000  0.5384490000000 1.0
C      1  0.4548370000000  0.5308260000000  0.5707100000000 1.0
C      1  0.4545250000000  0.4317350000000  0.5231110000000 1.0
C      1  0.4640400000000  0.5708180000000  0.4989240000000 1.0
C      1  0.4883920000000  0.5779000000000  0.5150530000000 1.0
C      1  0.5595290000000  0.5291870000000  0.4437830000000 1.0
C      1  0.5329560000000  0.5149970000000  0.4969580000000 1.0
C      1  0.4602910000000  0.4450870000000  0.5483790000000 1.0
C      1  0.4528930000000  0.5034470000000  0.5655780000000 1.0
C      1  0.4344810000000  0.5405860000000  0.4733560000000 1.0
C      1  0.5125650000000  0.4831890000000  0.5255810000000 1.0
C      1  0.5140890000000  0.4698420000000  0.4316800000000 1.0
C      1  0.4800550000000  0.5725450000000  0.4742870000000 1.0
C      1  0.5165560000000  0.5103810000000  0.5198390000000 1.0
C      1  0.4336450000000  0.5388770000000  0.5214160000000 1.0
C      1  0.4421020000000  0.4939400000000  0.4409670000000 1.0
C      1  0.5498180000000  0.5030080000000  0.4344900000000 1.0
C      1  0.5424210000000  0.5485430000000  0.4539990000000 1.0
C      1  0.4527460000000  0.5390570000000  0.5419460000000 1.0
C      1  0.5161200000000  0.5376400000000  0.4607580000000 1.0
C      1  0.4613110000000  0.4884150000000  0.5219070000000 1.0
C      1  0.5707570000000  0.4587150000000  0.5270820000000 1.0
C      1  0.5633480000000  0.4500860000000  0.4824280000000 1.0
C      1  0.5305620000000  0.5681850000000  0.4966110000000 1.0
C      1  0.5017210000000  0.4233670000000  0.5112370000000 1.0
C      1  0.5207050000000  0.4256160000000  0.4895640000000 1.0
C      1  0.4856830000000  0.4409720000000  0.4569360000000 1.0
C      1  0.4984080000000  0.5435100000000  0.4389900000000 1.0
C      1  0.4658920000000  0.4337090000000  0.4769280000000 1.0
C      1  0.4763150000000  0.4869670000000  0.4980250000000 1.0
C      1  0.4246590000000  0.4914310000000  0.4628700000000 1.0
C      1  0.5818870000000  0.4998210000000  0.4696260000000 1.0
C      1  0.5652130000000  0.4759730000000  0.5487030000000 1.0
C      1  0.5300550000000  0.4518690000000  0.4471850000000 1.0
C      1  0.5128740000000  0.4350600000000  0.4633360000000 1.0
C      1  0.4863880000000  0.4624520000000  0.4366780000000 1.0
C      1  0.5063330000000  0.5686640000000  0.5364110000000 1.0
C      1  0.5299800000000  0.5133380000000  0.5705230000000 1.0
C      1  0.4755030000000  0.5084470000000  0.4208110000000 1.0
C      1  0.5036930000000  0.5797940000000  0.4905510000000 1.0
C      1  0.4817240000000  0.5120620000000  0.4857700000000 1.0
C      1  0.5230290000000  0.4973590000000  0.4257480000000 1.0
C      1  0.4235020000000  0.4687310000000  0.4795500000000 1.0
C      1  0.4305500000000  0.4885140000000  0.5257920000000 1.0
C      1  0.5731420000000  0.5462760000000  0.4868470000000 1.0
C      1  0.4821310000000  0.5385090000000  0.5785300000000 1.0
C      1  0.4755950000000  0.4997590000000  0.5458460000000 1.0
C      1  0.5522190000000  0.5621790000000  0.4775140000000 1.0
C      1  0.5466200000000  0.4328200000000  0.4976780000000 1.0
C      1  0.5159520000000  0.5417920000000  0.4908020000000 1.0
C      1  0.3992980000000  0.5156780000000  0.4966820000000 1.0
C      1  0.5700860000000  0.5035500000000  0.5438430000000 1.0
C      1  0.5009800000000  0.5186300000000  0.4224390000000 1.0
C      1  0.4938380000000  0.5267990000000  0.5079650000000 1.0
C      1  0.5086280000000  0.5318680000000  0.5754050000000 1.0
C      1  0.5780890000000  0.4663060000000  0.5011070000000 1.0
C      1  0.4387690000000  0.4434590000000  0.4808620000000 1.0
C      1  0.5524070000000  0.5236690000000  0.5539640000000 1.0
C      1  0.5730630000000  0.5381940000000  0.5142130000000 1.0
C      1  0.4964690000000  0.5469080000000  0.5529790000000 1.0
C      1  0.5412590000000  0.4656710000000  0.5608990000000 1.0
C      1  0.4185580000000  0.5143870000000  0.5164560000000 1.0
C      1  0.4515610000000  0.5201630000000  0.4328570000000 1.0
C      1  0.4881590000000  0.4509270000000  0.5511690000000 1.0
C      1  0.4976860000000  0.4791350000000  0.5523950000000 1.0
C      1  0.4332820000000  0.4841580000000  0.5572530000000 1.0
C      1  0.5041550000000  0.4762840000000  0.4997690000000 1.0
C      1  0.5656850000000  0.4847930000000  0.4499000000000 1.0
C      1  0.4667810000000  0.4818590000000  0.4293570000000 1.0
C      1  0.4747630000000  0.4255550000000  0.5036010000000 1.0
C      1  0.5538060000000  0.5464790000000  0.5345110000000 1.0
C      1  0.5559770000000  0.4590000000000  0.4565960000000 1.0
C      1  0.4402420000000  0.4582110000000  0.5617010000000 1.0
C      1  0.5337920000000  0.5657910000000  0.5262820000000 1.0
C      1  0.5860300000000  0.4927920000000  0.4968940000000 1.0
C      1  0.5037490000000  0.5078970000000  0.4666190000000 1.0
C      1  0.4197470000000  0.4670470000000  0.5087630000000 1.0
C      1  0.5818630000000  0.5114430000000  0.5188200000000 1.0
C      1  0.5226480000000  0.4850630000000  0.5685750000000 1.0
C      1  0.4414350000000  0.5535390000000  0.4983130000000 1.0
C      1  0.5781660000000  0.5270130000000  0.4655910000000 1.0
C      1  0.5331080000000  0.4415710000000  0.5455770000000 1.0
C      1  0.4504810000000  0.5426280000000  0.4498220000000 1.0
C      1  0.4803790000000  0.5288590000000  0.5348630000000 1.0
C      1  0.5218770000000  0.4928480000000  0.4826010000000 1.0
C      1  0.4324090000000  0.4412080000000  0.5091340000000 1.0
END
