TITL C-142768-1207-8 13.2874289342303 125000 -431.072970628323 0 0 63 (C1) n - 1
REM
REM in /rds/project/t2_vol4/rds-t2-cs072/BORA/CARBON/from-Arr/AIRSS/Generating-Clusters/GAP-ML-2020/Only-C1/SD-CG/HFTN-CG
REM
REM
REM
REM
REM
REM ./C.cell (11c1c37f851c82e70ff6c80c92926a4b)
REM AIRSS Version 0.9.1 bugfix July 2018 build 013d7b7c2542+ Fri, 06 Jul 2018 19:26:36 +0100
REM compiler GCC version 9.3.0
REM options -cpp -mtune=generic -march=x86-64 -g -O0
REM seed 179869553 -208832274 1797447259 -1932682183 236611816 899758011 -1180931609 -1337819105 2051602454 1041831818 465613011 -1827249198 1584306599 -1841510485 -344054301 1996345932 1200497747 -1129715914 -550445415 734225829 -955085889 476264905 1135248551 1249398823 -873044451 673019149 -740163726 217678647 1461342616 -164984587 1200435843 48528358 -1654021871
REM
CELL 1.54180   50.00000   50.00000   50.00000   90.00000   90.00000   90.00000
LATT -1
SFAC C  
C      1  0.4959650000000  0.4707670000000  0.4488610000000 1.0
C      1  0.5734110000000  0.5124800000000  0.5193040000000 1.0
C      1  0.4970910000000  0.4192520000000  0.4541690000000 1.0
C      1  0.4615120000000  0.5177420000000  0.5552900000000 1.0
C      1  0.4625570000000  0.5544590000000  0.4999530000000 1.0
C      1  0.5609020000000  0.5225800000000  0.5442140000000 1.0
C      1  0.5175690000000  0.5134790000000  0.5622930000000 1.0
C      1  0.4830250000000  0.4606740000000  0.5076480000000 1.0
C      1  0.5337140000000  0.5579050000000  0.4809910000000 1.0
C      1  0.5162170000000  0.5028940000000  0.5120940000000 1.0
C      1  0.5457210000000  0.4803180000000  0.5464390000000 1.0
C      1  0.4876340000000  0.5079090000000  0.5082730000000 1.0
C      1  0.5198580000000  0.5565040000000  0.4564740000000 1.0
C      1  0.4276310000000  0.5189640000000  0.4924040000000 1.0
C      1  0.5663430000000  0.5385500000000  0.5081810000000 1.0
C      1  0.4962120000000  0.4589850000000  0.5623780000000 1.0
C      1  0.5233920000000  0.5533520000000  0.5300300000000 1.0
C      1  0.4921430000000  0.4318280000000  0.4779290000000 1.0
C      1  0.4984140000000  0.4419330000000  0.4411760000000 1.0
C      1  0.4507750000000  0.4941740000000  0.4612860000000 1.0
C      1  0.4679810000000  0.4510640000000  0.4836350000000 1.0
C      1  0.4727080000000  0.4908780000000  0.5489650000000 1.0
C      1  0.4799140000000  0.5396750000000  0.5491520000000 1.0
C      1  0.5186780000000  0.4707710000000  0.4727510000000 1.0
C      1  0.4926110000000  0.5113410000000  0.4811940000000 1.0
C      1  0.5678070000000  0.4873630000000  0.5060060000000 1.0
C      1  0.4271830000000  0.5145260000000  0.5203220000000 1.0
C      1  0.4919610000000  0.5570630000000  0.4614210000000 1.0
C      1  0.5179340000000  0.4998210000000  0.4834210000000 1.0
C      1  0.5475710000000  0.5181660000000  0.4419080000000 1.0
C      1  0.5083020000000  0.4414990000000  0.5417080000000 1.0
C      1  0.4375810000000  0.4881190000000  0.5198240000000 1.0
C      1  0.5091980000000  0.4931960000000  0.4332110000000 1.0
C      1  0.4297960000000  0.4921010000000  0.4799770000000 1.0
C      1  0.5624040000000  0.5186990000000  0.4661180000000 1.0
C      1  0.5018980000000  0.4883610000000  0.5563340000000 1.0
C      1  0.5452540000000  0.4765010000000  0.4605700000000 1.0
C      1  0.5258060000000  0.5359470000000  0.4382190000000 1.0
C      1  0.4576090000000  0.5232680000000  0.4589020000000 1.0
C      1  0.5146420000000  0.5616670000000  0.5029610000000 1.0
C      1  0.5577240000000  0.5418470000000  0.4827340000000 1.0
C      1  0.4798220000000  0.5354040000000  0.4460060000000 1.0
C      1  0.4672890000000  0.4613040000000  0.5556910000000 1.0
C      1  0.4602180000000  0.5498130000000  0.5283950000000 1.0
C      1  0.4414450000000  0.5302710000000  0.5378440000000 1.0
C      1  0.5262930000000  0.4524410000000  0.5198870000000 1.0
C      1  0.5188530000000  0.4811940000000  0.5316160000000 1.0
C      1  0.4704260000000  0.4876890000000  0.5188190000000 1.0
C      1  0.5106260000000  0.4510600000000  0.4931910000000 1.0
C      1  0.4836770000000  0.4375910000000  0.5280170000000 1.0
C      1  0.5549580000000  0.4669390000000  0.5231700000000 1.0
C      1  0.4289300000000  0.4705700000000  0.4995910000000 1.0
C      1  0.5639960000000  0.4916160000000  0.4771960000000 1.0
C      1  0.5076700000000  0.5388550000000  0.5509610000000 1.0
C      1  0.4456000000000  0.4478000000000  0.5033290000000 1.0
C      1  0.4879520000000  0.5620220000000  0.4895060000000 1.0
C      1  0.5508920000000  0.5465730000000  0.5313150000000 1.0
C      1  0.5451850000000  0.5060120000000  0.5585480000000 1.0
C      1  0.4690400000000  0.4721340000000  0.4618300000000 1.0
C      1  0.5015650000000  0.5208100000000  0.4328290000000 1.0
C      1  0.4461790000000  0.5375710000000  0.4814960000000 1.0
C      1  0.4571130000000  0.4435130000000  0.5341300000000 1.0
C      1  0.5376230000000  0.4921920000000  0.4379100000000 1.0
END
