TITL C-142175-2738-5 0.265513237353988 125000 -372.798426848636 0 0 56 (C1) n - 1
REM
REM in /rds/project/t2_vol4/rds-t2-cs072/BORA/CARBON/from-Arr/AIRSS/Generating-Clusters/GAP-ML-2020/Only-C1/SD-CG/HFTN-CG
REM
REM
REM
REM
REM
REM ./C.cell (11c1c37f851c82e70ff6c80c92926a4b)
REM AIRSS Version 0.9.1 bugfix July 2018 build 013d7b7c2542+ Fri, 06 Jul 2018 19:26:36 +0100
REM compiler GCC version 9.3.0
REM options -cpp -mtune=generic -march=x86-64 -g -O0
REM seed 1919743294 -346917239 -2088623264 993728586 -1867229223 -2000514548 -1326409432 -686043737 741778008 223522052 -2032747748 1817298096 1082111 1532199797 -1011997920 1413445620 157875084 -1556144292 152467501 406436081 1946580570 -2065496115 -2022370190 -1293558578 1717730721 1175573728 341081303 341872659 893209459 -1158678027 2087764794 -588389236 -802755787
REM
CELL 1.54180   50.00000   50.00000   50.00000   90.00000   90.00000   90.00000
LATT -1
SFAC C  
C      1  0.4811010000000  0.4732980000000  0.5374020000000 1.0
C      1  0.5023600000000  0.4502190000000  0.5478020000000 1.0
C      1  0.4332020000000  0.4630890000000  0.4921930000000 1.0
C      1  0.4425370000000  0.5002050000000  0.5101390000000 1.0
C      1  0.5278990000000  0.5552680000000  0.4687960000000 1.0
C      1  0.5281020000000  0.5413070000000  0.4441280000000 1.0
C      1  0.5502690000000  0.5235740000000  0.5188890000000 1.0
C      1  0.5520450000000  0.4864330000000  0.4896100000000 1.0
C      1  0.5419550000000  0.5120590000000  0.4758640000000 1.0
C      1  0.5393610000000  0.4657470000000  0.4767990000000 1.0
C      1  0.4497670000000  0.4822270000000  0.4577190000000 1.0
C      1  0.4901140000000  0.4783350000000  0.5099450000000 1.0
C      1  0.5298790000000  0.5606600000000  0.5461340000000 1.0
C      1  0.5039680000000  0.5208550000000  0.5277720000000 1.0
C      1  0.4892800000000  0.4412140000000  0.4468080000000 1.0
C      1  0.5328040000000  0.4968460000000  0.4304680000000 1.0
C      1  0.5421490000000  0.5166670000000  0.4466820000000 1.0
C      1  0.4556350000000  0.5226390000000  0.5209240000000 1.0
C      1  0.5373760000000  0.5357440000000  0.4937850000000 1.0
C      1  0.5220570000000  0.4708080000000  0.5604810000000 1.0
C      1  0.5231670000000  0.4465270000000  0.5264490000000 1.0
C      1  0.5105350000000  0.4983330000000  0.5099690000000 1.0
C      1  0.4942730000000  0.4592490000000  0.4885660000000 1.0
C      1  0.4752950000000  0.4401180000000  0.5497510000000 1.0
C      1  0.5107310000000  0.4963640000000  0.5655390000000 1.0
C      1  0.5163640000000  0.5686790000000  0.5224920000000 1.0
C      1  0.5380080000000  0.4704580000000  0.5359450000000 1.0
C      1  0.4893090000000  0.4681320000000  0.4332570000000 1.0
C      1  0.4716810000000  0.4905550000000  0.4414940000000 1.0
C      1  0.4826560000000  0.5165560000000  0.4474150000000 1.0
C      1  0.4838910000000  0.4953420000000  0.5561890000000 1.0
C      1  0.4876850000000  0.5447250000000  0.4899070000000 1.0
C      1  0.5449630000000  0.5359140000000  0.5428390000000 1.0
C      1  0.5090920000000  0.5469380000000  0.5621560000000 1.0
C      1  0.4812810000000  0.5464800000000  0.5539570000000 1.0
C      1  0.5162160000000  0.4775640000000  0.4384760000000 1.0
C      1  0.4990150000000  0.5579810000000  0.4666900000000 1.0
C      1  0.4562730000000  0.4565430000000  0.5379130000000 1.0
C      1  0.5213020000000  0.5215300000000  0.5548450000000 1.0
C      1  0.4484870000000  0.4545510000000  0.4691930000000 1.0
C      1  0.4653780000000  0.5477550000000  0.5095560000000 1.0
C      1  0.5127690000000  0.5044940000000  0.4810010000000 1.0
C      1  0.4758580000000  0.5199380000000  0.5424290000000 1.0
C      1  0.4977510000000  0.5402740000000  0.4423750000000 1.0
C      1  0.4744360000000  0.4443120000000  0.4712070000000 1.0
C      1  0.5159250000000  0.4412980000000  0.5000860000000 1.0
C      1  0.5131090000000  0.4772120000000  0.4691660000000 1.0
C      1  0.4385250000000  0.4703820000000  0.5193210000000 1.0
C      1  0.5143610000000  0.4323200000000  0.4545850000000 1.0
C      1  0.5311990000000  0.4374210000000  0.4753070000000 1.0
C      1  0.4376760000000  0.4918840000000  0.4825870000000 1.0
C      1  0.4886580000000  0.5197960000000  0.4747510000000 1.0
C      1  0.5112010000000  0.5432390000000  0.5088350000000 1.0
C      1  0.5427520000000  0.4935060000000  0.5164250000000 1.0
C      1  0.4754810000000  0.5634440000000  0.5314800000000 1.0
C      1  0.4928370000000  0.5829890000000  0.5255070000000 1.0
END
