TITL C-142789-1241-5 -0.0531762491111506 125000 -298.575213302961 0 0 44 (C1) n - 1
REM
REM in /rds/project/t2_vol4/rds-t2-cs072/BORA/CARBON/from-Arr/AIRSS/Generating-Clusters/GAP-ML-2020/Only-C1/SD-CG/HFTN-CG
REM
REM
REM
REM
REM
REM ./C.cell (11c1c37f851c82e70ff6c80c92926a4b)
REM AIRSS Version 0.9.1 bugfix July 2018 build 013d7b7c2542+ Fri, 06 Jul 2018 19:26:36 +0100
REM compiler GCC version 9.3.0
REM options -cpp -mtune=generic -march=x86-64 -g -O0
REM seed -2087351560 -337425181 231826982 1967572162 1346146851 2073054312 1280965556 -1767414913 1219933463 1665614232 1323474150 -1679515439 1665025983 -84280554 1135794280 1045238833 1114423204 -1724304819 169843886 1463842376 -768887877 -453069991 1439231075 -1006536514 363692028 -1103800327 1868066662 -154084434 2117811723 -1400105598 -877520381 30248089 508673148
REM
CELL 1.54180   50.00000   50.00000   50.00000   90.00000   90.00000   90.00000
LATT -1
SFAC C  
C      1  0.4880510000000  0.4974680000000  0.4357070000000 1.0
C      1  0.5189060000000  0.4955670000000  0.4901140000000 1.0
C      1  0.4852820000000  0.5522440000000  0.5105810000000 1.0
C      1  0.5461510000000  0.5535930000000  0.5201480000000 1.0
C      1  0.4828860000000  0.5276340000000  0.5488040000000 1.0
C      1  0.5000810000000  0.5441960000000  0.5337080000000 1.0
C      1  0.5060680000000  0.4369290000000  0.5167290000000 1.0
C      1  0.4953310000000  0.5543750000000  0.4842970000000 1.0
C      1  0.5199700000000  0.5316170000000  0.4540380000000 1.0
C      1  0.5497490000000  0.4957470000000  0.5202830000000 1.0
C      1  0.5125300000000  0.4902820000000  0.4253070000000 1.0
C      1  0.5446150000000  0.4698760000000  0.4590840000000 1.0
C      1  0.4768470000000  0.5442440000000  0.4631200000000 1.0
C      1  0.4463620000000  0.5391690000000  0.4868520000000 1.0
C      1  0.4985680000000  0.4381380000000  0.4905590000000 1.0
C      1  0.5369390000000  0.5092820000000  0.5418280000000 1.0
C      1  0.4728930000000  0.4837660000000  0.5554780000000 1.0
C      1  0.4920910000000  0.5214980000000  0.4530320000000 1.0
C      1  0.4539330000000  0.4796820000000  0.5117500000000 1.0
C      1  0.4875400000000  0.4602610000000  0.5511190000000 1.0
C      1  0.5413630000000  0.5402280000000  0.4966830000000 1.0
C      1  0.4940060000000  0.5097740000000  0.4827970000000 1.0
C      1  0.4991360000000  0.4817090000000  0.5080920000000 1.0
C      1  0.4584560000000  0.5222720000000  0.5342650000000 1.0
C      1  0.5446620000000  0.5111260000000  0.4965060000000 1.0
C      1  0.4695860000000  0.4776960000000  0.4427480000000 1.0
C      1  0.5282310000000  0.5375230000000  0.5345540000000 1.0
C      1  0.4922410000000  0.5040390000000  0.5607890000000 1.0
C      1  0.5157520000000  0.4659200000000  0.5509770000000 1.0
C      1  0.5363790000000  0.4701560000000  0.4843260000000 1.0
C      1  0.4728010000000  0.4466780000000  0.4849010000000 1.0
C      1  0.4743800000000  0.4896410000000  0.4908040000000 1.0
C      1  0.5388190000000  0.5170100000000  0.4422370000000 1.0
C      1  0.4617340000000  0.4523910000000  0.5113620000000 1.0
C      1  0.5214980000000  0.5471370000000  0.4773190000000 1.0
C      1  0.4675300000000  0.4701050000000  0.4682500000000 1.0
C      1  0.4807440000000  0.4436700000000  0.5300950000000 1.0
C      1  0.5348060000000  0.4890740000000  0.4414770000000 1.0
C      1  0.5445720000000  0.4684350000000  0.5127740000000 1.0
C      1  0.4497900000000  0.5494450000000  0.4633190000000 1.0
C      1  0.5185360000000  0.4938880000000  0.5561510000000 1.0
C      1  0.5277340000000  0.4528580000000  0.5288230000000 1.0
C      1  0.4540930000000  0.4939010000000  0.5362950000000 1.0
C      1  0.4583600000000  0.5397580000000  0.5119180000000 1.0
END
