TITL C-147412-6617-5 0.158160258802182 125000 -959.077905685386 0 0 137 (C1) n - 1
REM
REM in /rds/project/t2_vol4/rds-t2-cs072/BORA/CARBON/from-Arr/AIRSS/Generating-Clusters/GAP-ML-2020/Only-C1/SD-CG/HFTN-CG
REM
REM
REM
REM
REM
REM ./C.cell (11c1c37f851c82e70ff6c80c92926a4b)
REM AIRSS Version 0.9.1 bugfix July 2018 build 013d7b7c2542+ Fri, 06 Jul 2018 19:26:36 +0100
REM compiler GCC version 9.3.0
REM options -cpp -mtune=generic -march=x86-64 -g -O0
REM seed -619701338 -170194376 -406690190 1418012546 -143699563 1371164809 1556181071 750885307 -511037988 -1003875040 2093702257 -495320818 -541737025 950704562 484924149 -2117302302 -1054850290 1643148430 872630520 1981186080 1372968446 -1989331774 961032241 -461531584 2063102461 1866133126 1143612696 -22613054 -1175468686 -163656663 1028618946 341311142 -272431124
REM
CELL 1.54180   50.00000   50.00000   50.00000   90.00000   90.00000   90.00000
LATT -1
SFAC C  
C      1  0.4627700000000  0.4097120000000  0.4667870000000 1.0
C      1  0.4721490000000  0.4287270000000  0.5569270000000 1.0
C      1  0.4387050000000  0.4645070000000  0.4371710000000 1.0
C      1  0.5693350000000  0.5249450000000  0.4506620000000 1.0
C      1  0.5403530000000  0.5275730000000  0.5243270000000 1.0
C      1  0.4901970000000  0.5339520000000  0.5955200000000 1.0
C      1  0.4089210000000  0.4601010000000  0.5279360000000 1.0
C      1  0.5030500000000  0.4233180000000  0.4419060000000 1.0
C      1  0.5826360000000  0.4861400000000  0.4728750000000 1.0
C      1  0.5202490000000  0.5260240000000  0.4568420000000 1.0
C      1  0.4232490000000  0.4386920000000  0.4815070000000 1.0
C      1  0.4974680000000  0.4185970000000  0.5484260000000 1.0
C      1  0.4887320000000  0.4629190000000  0.4179800000000 1.0
C      1  0.5858100000000  0.5011780000000  0.4470390000000 1.0
C      1  0.4969600000000  0.5099750000000  0.4607820000000 1.0
C      1  0.5791110000000  0.4571380000000  0.4696220000000 1.0
C      1  0.5196880000000  0.4379400000000  0.5569800000000 1.0
C      1  0.5697330000000  0.5673370000000  0.5072320000000 1.0
C      1  0.4773060000000  0.4526520000000  0.5735140000000 1.0
C      1  0.4435390000000  0.4926270000000  0.4333990000000 1.0
C      1  0.5500770000000  0.4261770000000  0.5213020000000 1.0
C      1  0.4720100000000  0.5658750000000  0.4388070000000 1.0
C      1  0.4734120000000  0.5341270000000  0.4267380000000 1.0
C      1  0.5581890000000  0.4980880000000  0.5622860000000 1.0
C      1  0.4994710000000  0.5591930000000  0.5221610000000 1.0
C      1  0.4776270000000  0.5033280000000  0.5669020000000 1.0
C      1  0.4617610000000  0.5444250000000  0.5018080000000 1.0
C      1  0.4295790000000  0.5812950000000  0.5225120000000 1.0
C      1  0.4503250000000  0.5410930000000  0.5634260000000 1.0
C      1  0.4944040000000  0.5442610000000  0.5477140000000 1.0
C      1  0.4978430000000  0.4099430000000  0.5216800000000 1.0
C      1  0.4765240000000  0.4735620000000  0.4817040000000 1.0
C      1  0.4963300000000  0.5102540000000  0.5103680000000 1.0
C      1  0.4661500000000  0.5459060000000  0.4746210000000 1.0
C      1  0.5499970000000  0.5194520000000  0.4938370000000 1.0
C      1  0.4703180000000  0.5235570000000  0.4563890000000 1.0
C      1  0.5430820000000  0.5059100000000  0.4519090000000 1.0
C      1  0.4809070000000  0.4620520000000  0.4562540000000 1.0
C      1  0.5672280000000  0.4397540000000  0.5394390000000 1.0
C      1  0.4602540000000  0.5704580000000  0.5609730000000 1.0
C      1  0.5061670000000  0.5944750000000  0.5628210000000 1.0
C      1  0.4125830000000  0.4847030000000  0.5442200000000 1.0
C      1  0.4763340000000  0.3968520000000  0.5095440000000 1.0
C      1  0.5258550000000  0.4443830000000  0.5260220000000 1.0
C      1  0.4717380000000  0.5262670000000  0.5461850000000 1.0
C      1  0.5494920000000  0.4467930000000  0.5616430000000 1.0
C      1  0.5178110000000  0.5505510000000  0.4351710000000 1.0
C      1  0.5869520000000  0.5489170000000  0.4932050000000 1.0
C      1  0.4535060000000  0.5673510000000  0.4600890000000 1.0
C      1  0.4620920000000  0.4767960000000  0.5714810000000 1.0
C      1  0.5245730000000  0.5897170000000  0.4927300000000 1.0
C      1  0.4867810000000  0.4902810000000  0.4084570000000 1.0
C      1  0.5946740000000  0.4977450000000  0.4988880000000 1.0
C      1  0.4517490000000  0.4106330000000  0.5137090000000 1.0
C      1  0.5473630000000  0.4729860000000  0.5718880000000 1.0
C      1  0.5085880000000  0.4974350000000  0.5573970000000 1.0
C      1  0.4074210000000  0.4555390000000  0.4996680000000 1.0
C      1  0.4085440000000  0.5123290000000  0.5387810000000 1.0
C      1  0.5419970000000  0.4566650000000  0.4315370000000 1.0
C      1  0.4727060000000  0.5674610000000  0.5146400000000 1.0
C      1  0.5632270000000  0.5924610000000  0.4634940000000 1.0
C      1  0.4995220000000  0.4931500000000  0.4838890000000 1.0
C      1  0.4518010000000  0.4892210000000  0.4837770000000 1.0
C      1  0.5332730000000  0.5476830000000  0.5723700000000 1.0
C      1  0.5272620000000  0.4743550000000  0.5184620000000 1.0
C      1  0.4485020000000  0.4252020000000  0.5395360000000 1.0
C      1  0.5836830000000  0.4554360000000  0.5213580000000 1.0
C      1  0.5257850000000  0.5057960000000  0.5968820000000 1.0
C      1  0.4557750000000  0.5799920000000  0.5345040000000 1.0
C      1  0.4214210000000  0.4592430000000  0.4599490000000 1.0
C      1  0.4295620000000  0.4456360000000  0.5440720000000 1.0
C      1  0.4677340000000  0.5201180000000  0.5164540000000 1.0
C      1  0.4290870000000  0.5726440000000  0.4743410000000 1.0
C      1  0.5060380000000  0.4362970000000  0.5046040000000 1.0
C      1  0.4438630000000  0.5079030000000  0.4591200000000 1.0
C      1  0.5086040000000  0.5095570000000  0.4049630000000 1.0
C      1  0.4541810000000  0.4774520000000  0.5290900000000 1.0
C      1  0.5449830000000  0.5647340000000  0.5535100000000 1.0
C      1  0.5599750000000  0.4238790000000  0.4949800000000 1.0
C      1  0.5899090000000  0.4834430000000  0.5232580000000 1.0
C      1  0.5034580000000  0.5503010000000  0.5755950000000 1.0
C      1  0.5469370000000  0.4849200000000  0.4274590000000 1.0
C      1  0.4154350000000  0.5571080000000  0.5292480000000 1.0
C      1  0.5802590000000  0.4435560000000  0.4945030000000 1.0
C      1  0.4385440000000  0.4724500000000  0.5546830000000 1.0
C      1  0.4228010000000  0.5368730000000  0.5483960000000 1.0
C      1  0.5678190000000  0.5366240000000  0.4770580000000 1.0
C      1  0.4655770000000  0.4505140000000  0.4341640000000 1.0
C      1  0.5581920000000  0.4450960000000  0.4527230000000 1.0
C      1  0.5635670000000  0.5376800000000  0.4246270000000 1.0
C      1  0.4638160000000  0.5046500000000  0.4174240000000 1.0
C      1  0.5427060000000  0.5211360000000  0.5786650000000 1.0
C      1  0.5341040000000  0.5132760000000  0.5515370000000 1.0
C      1  0.5203910000000  0.4796570000000  0.5800340000000 1.0
C      1  0.4807520000000  0.4686440000000  0.5271700000000 1.0
C      1  0.5752100000000  0.4932670000000  0.4220600000000 1.0
C      1  0.5278370000000  0.5353880000000  0.4833920000000 1.0
C      1  0.4425720000000  0.4181690000000  0.4864590000000 1.0
C      1  0.5361160000000  0.5020980000000  0.4048180000000 1.0
C      1  0.5066220000000  0.3877620000000  0.4706960000000 1.0
C      1  0.4659930000000  0.5245640000000  0.5847450000000 1.0
C      1  0.4181610000000  0.5217620000000  0.4694790000000 1.0
C      1  0.5002710000000  0.5344110000000  0.4163960000000 1.0
C      1  0.4815210000000  0.3926470000000  0.4810740000000 1.0
C      1  0.5158980000000  0.5835960000000  0.5196040000000 1.0
C      1  0.5432680000000  0.4264380000000  0.4705420000000 1.0
C      1  0.4737080000000  0.4230790000000  0.4435130000000 1.0
C      1  0.5212730000000  0.4063010000000  0.4582460000000 1.0
C      1  0.5563620000000  0.5820350000000  0.4415770000000 1.0
C      1  0.5075590000000  0.5852970000000  0.4710110000000 1.0
C      1  0.4140880000000  0.5480440000000  0.4802010000000 1.0
C      1  0.5052940000000  0.4486050000000  0.4567650000000 1.0
C      1  0.3989490000000  0.5171230000000  0.5113640000000 1.0
C      1  0.5214760000000  0.4466830000000  0.4801640000000 1.0
C      1  0.4496610000000  0.4981210000000  0.5103410000000 1.0
C      1  0.4829740000000  0.4545530000000  0.5032830000000 1.0
C      1  0.5053570000000  0.4546590000000  0.5767760000000 1.0
C      1  0.5460130000000  0.5600670000000  0.4278400000000 1.0
C      1  0.4881730000000  0.5752880000000  0.5697730000000 1.0
C      1  0.4997580000000  0.5716770000000  0.4483300000000 1.0
C      1  0.5802670000000  0.5024000000000  0.5434950000000 1.0
C      1  0.5269410000000  0.4763220000000  0.4894490000000 1.0
C      1  0.5079440000000  0.5192100000000  0.6120570000000 1.0
C      1  0.5829470000000  0.5287780000000  0.5327130000000 1.0
C      1  0.5134130000000  0.4486460000000  0.4284260000000 1.0
C      1  0.5602430000000  0.5512170000000  0.5310190000000 1.0
C      1  0.5271200000000  0.5863720000000  0.5460640000000 1.0
C      1  0.4037890000000  0.5442990000000  0.5064510000000 1.0
C      1  0.5612450000000  0.5158450000000  0.4069430000000 1.0
C      1  0.5035940000000  0.4878530000000  0.5299380000000 1.0
C      1  0.5544630000000  0.5866850000000  0.4901920000000 1.0
C      1  0.4049090000000  0.4759960000000  0.4788260000000 1.0
C      1  0.5952250000000  0.5259220000000  0.5077020000000 1.0
C      1  0.4025400000000  0.5035900000000  0.4854010000000 1.0
C      1  0.5489400000000  0.4939940000000  0.4787750000000 1.0
C      1  0.4276790000000  0.5891290000000  0.4960870000000 1.0
C      1  0.5137000000000  0.5347810000000  0.5097770000000 1.0
END
