TITL C-140208-8180-5 -0.289690202415253 125000 -532.466594159319 0 0 77 (C1) n - 1
REM
REM in /rds/project/t2_vol4/rds-t2-cs072/BORA/CARBON/from-Arr/AIRSS/Generating-Clusters/GAP-ML-2020/Only-C1/SD-CG/HFTN-CG
REM
REM
REM
REM
REM
REM ./C.cell (11c1c37f851c82e70ff6c80c92926a4b)
REM AIRSS Version 0.9.1 bugfix July 2018 build 013d7b7c2542+ Fri, 06 Jul 2018 19:26:36 +0100
REM compiler GCC version 9.3.0
REM options -cpp -mtune=generic -march=x86-64 -g -O0
REM seed -904555502 -1986492729 -635375942 73051042 1031971070 -1239041442 1057148505 64128580 -727967592 -1337379023 -1854143801 -189692354 487417631 1743310643 -1235509549 -883173231 -604739138 -798222582 967747670 833164001 -970300090 -1811118566 996585728 -1106991953 -774391732 830174748 -1745745857 -730003871 1105554298 -912619159 -2128937277 147362941 -639969567
REM
CELL 1.54180   50.00000   50.00000   50.00000   90.00000   90.00000   90.00000
LATT -1
SFAC C  
C      1  0.5463660000000  0.5451270000000  0.5166860000000 1.0
C      1  0.5612800000000  0.4586740000000  0.5108310000000 1.0
C      1  0.5324380000000  0.5226410000000  0.4284020000000 1.0
C      1  0.5165530000000  0.4649710000000  0.5221220000000 1.0
C      1  0.5190800000000  0.4428390000000  0.4709450000000 1.0
C      1  0.5649560000000  0.5292400000000  0.4954930000000 1.0
C      1  0.4577330000000  0.5144520000000  0.5549370000000 1.0
C      1  0.5301740000000  0.5205570000000  0.5220970000000 1.0
C      1  0.4845280000000  0.4836640000000  0.4808620000000 1.0
C      1  0.5223800000000  0.5057890000000  0.4974530000000 1.0
C      1  0.5040540000000  0.5195460000000  0.4218760000000 1.0
C      1  0.5677640000000  0.4787980000000  0.4923660000000 1.0
C      1  0.4596420000000  0.4660870000000  0.4780520000000 1.0
C      1  0.4883050000000  0.5047560000000  0.5189600000000 1.0
C      1  0.4937370000000  0.4384490000000  0.5649150000000 1.0
C      1  0.5055530000000  0.5143640000000  0.5660980000000 1.0
C      1  0.5555510000000  0.5420330000000  0.5457330000000 1.0
C      1  0.5229580000000  0.5637790000000  0.4568340000000 1.0
C      1  0.4433560000000  0.4823760000000  0.5189550000000 1.0
C      1  0.5133290000000  0.5172430000000  0.4713580000000 1.0
C      1  0.5236870000000  0.5652270000000  0.5092650000000 1.0
C      1  0.4161130000000  0.4940720000000  0.4579830000000 1.0
C      1  0.5602660000000  0.5277620000000  0.4677210000000 1.0
C      1  0.4891670000000  0.5467160000000  0.5417030000000 1.0
C      1  0.5638960000000  0.5031820000000  0.4521320000000 1.0
C      1  0.5532930000000  0.5008000000000  0.5319260000000 1.0
C      1  0.4976220000000  0.5651480000000  0.5228860000000 1.0
C      1  0.4694490000000  0.5434260000000  0.4519100000000 1.0
C      1  0.5015410000000  0.4617530000000  0.5800360000000 1.0
C      1  0.5046910000000  0.5227060000000  0.5383790000000 1.0
C      1  0.5498410000000  0.4319520000000  0.5097670000000 1.0
C      1  0.4517990000000  0.5504620000000  0.5154640000000 1.0
C      1  0.4782450000000  0.5717750000000  0.4560790000000 1.0
C      1  0.5547830000000  0.4166600000000  0.5314330000000 1.0
C      1  0.4422500000000  0.5331620000000  0.4516000000000 1.0
C      1  0.4793290000000  0.5072160000000  0.5738190000000 1.0
C      1  0.5529370000000  0.5162970000000  0.5570820000000 1.0
C      1  0.4721170000000  0.4422000000000  0.5230700000000 1.0
C      1  0.4863440000000  0.5785550000000  0.4825270000000 1.0
C      1  0.5011200000000  0.5671590000000  0.4389250000000 1.0
C      1  0.5029660000000  0.4373890000000  0.5198840000000 1.0
C      1  0.5468050000000  0.4714040000000  0.5325520000000 1.0
C      1  0.4686360000000  0.4444440000000  0.5512710000000 1.0
C      1  0.4921530000000  0.4944600000000  0.4322710000000 1.0
C      1  0.4894100000000  0.5425860000000  0.4285420000000 1.0
C      1  0.5390010000000  0.4303030000000  0.5485020000000 1.0
C      1  0.5443630000000  0.4568100000000  0.5576860000000 1.0
C      1  0.4435570000000  0.5040720000000  0.4986400000000 1.0
C      1  0.4947750000000  0.4377080000000  0.4592730000000 1.0
C      1  0.5151850000000  0.5736340000000  0.4831890000000 1.0
C      1  0.4738360000000  0.4705900000000  0.4317930000000 1.0
C      1  0.4741590000000  0.5693140000000  0.5071060000000 1.0
C      1  0.5061240000000  0.4895050000000  0.4588860000000 1.0
C      1  0.4400110000000  0.5060730000000  0.4431490000000 1.0
C      1  0.4556430000000  0.4590780000000  0.5069420000000 1.0
C      1  0.4872820000000  0.5296700000000  0.4762730000000 1.0
C      1  0.5283040000000  0.4727630000000  0.5757210000000 1.0
C      1  0.4337350000000  0.5335090000000  0.4994680000000 1.0
C      1  0.4458860000000  0.4887840000000  0.5468030000000 1.0
C      1  0.5303220000000  0.5017920000000  0.5724810000000 1.0
C      1  0.4369910000000  0.4860810000000  0.4756220000000 1.0
C      1  0.4733280000000  0.5096340000000  0.4928420000000 1.0
C      1  0.4031260000000  0.5170900000000  0.4679000000000 1.0
C      1  0.4613810000000  0.4939430000000  0.4294180000000 1.0
C      1  0.5697240000000  0.5040230000000  0.5071970000000 1.0
C      1  0.5341600000000  0.5365370000000  0.4561550000000 1.0
C      1  0.4725630000000  0.4518750000000  0.4538060000000 1.0
C      1  0.4788640000000  0.4794770000000  0.5786280000000 1.0
C      1  0.4610680000000  0.5390790000000  0.5403790000000 1.0
C      1  0.5561760000000  0.4798030000000  0.4662050000000 1.0
C      1  0.4581550000000  0.4682490000000  0.5622620000000 1.0
C      1  0.5233520000000  0.4335140000000  0.4980670000000 1.0
C      1  0.5109670000000  0.4263470000000  0.5462850000000 1.0
C      1  0.5291020000000  0.4691370000000  0.4614610000000 1.0
C      1  0.5545390000000  0.5076530000000  0.4255900000000 1.0
C      1  0.5042230000000  0.4850420000000  0.5055820000000 1.0
C      1  0.4218980000000  0.5370080000000  0.4734840000000 1.0
END
