TITL C-141704-1603-8 -0.107760754442997 125000 -529.817196496348 0 0 79 (C1) n - 1
REM
REM in /rds/project/t2_vol4/rds-t2-cs072/BORA/CARBON/from-Arr/AIRSS/Generating-Clusters/GAP-ML-2020/Only-C1/SD-CG/HFTN-CG
REM
REM
REM
REM
REM
REM ./C.cell (11c1c37f851c82e70ff6c80c92926a4b)
REM AIRSS Version 0.9.1 bugfix July 2018 build 013d7b7c2542+ Fri, 06 Jul 2018 19:26:36 +0100
REM compiler GCC version 9.3.0
REM options -cpp -mtune=generic -march=x86-64 -g -O0
REM seed 145126214 527292502 2103286588 -1519402019 -1823585933 -984136040 -1229701283 2113964120 219999695 1546315660 -139671302 1122630336 1753098628 -1983353782 -472229638 803359426 -1520922361 -1023559160 895354783 597355843 -2117171315 -1404406311 1414449620 1056457933 1407676005 460079999 -745453896 -1472476628 1541614907 -750589701 1216302083 -945879929 -1503350322
REM
CELL 1.54180   50.00000   50.00000   50.00000   90.00000   90.00000   90.00000
LATT -1
SFAC C  
C      1  0.4614570000000  0.5707920000000  0.4936990000000 1.0
C      1  0.5663780000000  0.5198690000000  0.5304800000000 1.0
C      1  0.4976990000000  0.4633080000000  0.4262050000000 1.0
C      1  0.5487440000000  0.5563770000000  0.5519730000000 1.0
C      1  0.5018690000000  0.5429060000000  0.5266440000000 1.0
C      1  0.5198250000000  0.4708930000000  0.5663530000000 1.0
C      1  0.4818390000000  0.4967600000000  0.4951060000000 1.0
C      1  0.4673680000000  0.5289790000000  0.4604840000000 1.0
C      1  0.5751610000000  0.5293810000000  0.4860860000000 1.0
C      1  0.4604480000000  0.4417810000000  0.4499860000000 1.0
C      1  0.5155270000000  0.4198790000000  0.4962680000000 1.0
C      1  0.4668250000000  0.5037190000000  0.5339920000000 1.0
C      1  0.5066440000000  0.5012560000000  0.4779770000000 1.0
C      1  0.4851460000000  0.5037430000000  0.4284630000000 1.0
C      1  0.4812900000000  0.4705770000000  0.4821790000000 1.0
C      1  0.4913980000000  0.4933170000000  0.5230570000000 1.0
C      1  0.5337800000000  0.5418650000000  0.4925590000000 1.0
C      1  0.4707840000000  0.4674350000000  0.5675000000000 1.0
C      1  0.5380610000000  0.4389770000000  0.5011460000000 1.0
C      1  0.5774640000000  0.5092600000000  0.5047870000000 1.0
C      1  0.5610500000000  0.5255350000000  0.4615720000000 1.0
C      1  0.4390580000000  0.5229170000000  0.5013980000000 1.0
C      1  0.5599630000000  0.4747090000000  0.4681930000000 1.0
C      1  0.5292420000000  0.4346340000000  0.4559910000000 1.0
C      1  0.5262930000000  0.5114080000000  0.4988980000000 1.0
C      1  0.5606540000000  0.5493910000000  0.5015310000000 1.0
C      1  0.5085550000000  0.4894930000000  0.4216440000000 1.0
C      1  0.5303560000000  0.5057680000000  0.4320840000000 1.0
C      1  0.5439640000000  0.4446900000000  0.5306750000000 1.0
C      1  0.4818260000000  0.4406520000000  0.5230600000000 1.0
C      1  0.4884880000000  0.5107070000000  0.5765470000000 1.0
C      1  0.5522610000000  0.4709280000000  0.5340910000000 1.0
C      1  0.4601420000000  0.5764270000000  0.4660300000000 1.0
C      1  0.4367070000000  0.5032720000000  0.5710740000000 1.0
C      1  0.4429460000000  0.5531810000000  0.5377410000000 1.0
C      1  0.4382670000000  0.4992090000000  0.5217800000000 1.0
C      1  0.5013160000000  0.5583150000000  0.4426000000000 1.0
C      1  0.4593680000000  0.4908320000000  0.4337530000000 1.0
C      1  0.5203250000000  0.4521940000000  0.5445910000000 1.0
C      1  0.4411920000000  0.4530970000000  0.4999300000000 1.0
C      1  0.5338580000000  0.5363390000000  0.5634720000000 1.0
C      1  0.4680820000000  0.4631260000000  0.4322030000000 1.0
C      1  0.4316340000000  0.5029390000000  0.4787700000000 1.0
C      1  0.4728010000000  0.5572790000000  0.4506260000000 1.0
C      1  0.5419070000000  0.4846340000000  0.5070290000000 1.0
C      1  0.5371790000000  0.5443350000000  0.4620470000000 1.0
C      1  0.5133970000000  0.5595860000000  0.5065930000000 1.0
C      1  0.4943380000000  0.5174410000000  0.4533730000000 1.0
C      1  0.4493450000000  0.4637180000000  0.5496960000000 1.0
C      1  0.4461620000000  0.5076700000000  0.4532960000000 1.0
C      1  0.4540540000000  0.4487970000000  0.5254790000000 1.0
C      1  0.4309810000000  0.4872030000000  0.5492140000000 1.0
C      1  0.5412940000000  0.5128290000000  0.5470810000000 1.0
C      1  0.4773780000000  0.4264330000000  0.4660860000000 1.0
C      1  0.5529920000000  0.4995250000000  0.4505690000000 1.0
C      1  0.4892820000000  0.5483290000000  0.5520420000000 1.0
C      1  0.5649040000000  0.5486840000000  0.5301990000000 1.0
C      1  0.5215490000000  0.4637340000000  0.4996680000000 1.0
C      1  0.5131100000000  0.5149640000000  0.5249560000000 1.0
C      1  0.4610130000000  0.5164730000000  0.5660350000000 1.0
C      1  0.4936980000000  0.4815630000000  0.5738620000000 1.0
C      1  0.4647540000000  0.5205860000000  0.4889130000000 1.0
C      1  0.4940020000000  0.4188330000000  0.5126770000000 1.0
C      1  0.5497160000000  0.4462300000000  0.4733070000000 1.0
C      1  0.4315550000000  0.4811660000000  0.4987100000000 1.0
C      1  0.5425480000000  0.4855620000000  0.5567480000000 1.0
C      1  0.5049360000000  0.5333140000000  0.5704110000000 1.0
C      1  0.5202780000000  0.5700920000000  0.4601490000000 1.0
C      1  0.4892280000000  0.5757040000000  0.4994360000000 1.0
C      1  0.5146940000000  0.4564490000000  0.4470380000000 1.0
C      1  0.5178620000000  0.5320190000000  0.4423060000000 1.0
C      1  0.5016930000000  0.4630880000000  0.5233530000000 1.0
C      1  0.5674840000000  0.4846220000000  0.4935940000000 1.0
C      1  0.5109340000000  0.5803110000000  0.4847430000000 1.0
C      1  0.4432650000000  0.5520900000000  0.5104400000000 1.0
C      1  0.4525100000000  0.4378430000000  0.4769860000000 1.0
C      1  0.5082310000000  0.4710580000000  0.4744900000000 1.0
C      1  0.4609760000000  0.5444240000000  0.5563000000000 1.0
C      1  0.5067000000000  0.4225740000000  0.4699750000000 1.0
END
