TITL C-141428-3346-7 -0.198373222414672 125000 -637.379947146616 0 0 91 (C1) n - 1
REM
REM in /rds/project/t2_vol4/rds-t2-cs072/BORA/CARBON/from-Arr/AIRSS/Generating-Clusters/GAP-ML-2020/Only-C1/SD-CG/HFTN-CG
REM
REM
REM
REM
REM
REM ./C.cell (11c1c37f851c82e70ff6c80c92926a4b)
REM AIRSS Version 0.9.1 bugfix July 2018 build 013d7b7c2542+ Fri, 06 Jul 2018 19:26:36 +0100
REM compiler GCC version 9.3.0
REM options -cpp -mtune=generic -march=x86-64 -g -O0
REM seed -1145357625 -1767322504 733156391 -1240303878 304189029 586848304 -1160040947 -1670430813 497308344 34922780 560286497 1508248976 1288097221 -445091552 803562780 1368353968 920073609 729914033 -318098519 -1358799599 -1662429368 1518749843 37112444 -1593603487 -993671165 -1403951244 -292867305 -1159862973 -759401398 -1542328962 1900260807 -214431118 246099387
REM
CELL 1.54180   50.00000   50.00000   50.00000   90.00000   90.00000   90.00000
LATT -1
SFAC C  
C      1  0.5503790000000  0.5305520000000  0.5541840000000 1.0
C      1  0.4997640000000  0.5264080000000  0.5178790000000 1.0
C      1  0.5172400000000  0.5917660000000  0.4748400000000 1.0
C      1  0.5584760000000  0.4784640000000  0.4668900000000 1.0
C      1  0.4618260000000  0.5121710000000  0.5758380000000 1.0
C      1  0.5265640000000  0.4647930000000  0.5554940000000 1.0
C      1  0.5608050000000  0.5450570000000  0.5305750000000 1.0
C      1  0.5135610000000  0.5159780000000  0.4809730000000 1.0
C      1  0.4887900000000  0.5014610000000  0.5824980000000 1.0
C      1  0.4901580000000  0.5560500000000  0.4448360000000 1.0
C      1  0.5537910000000  0.5880070000000  0.4452770000000 1.0
C      1  0.4801770000000  0.5062870000000  0.5215130000000 1.0
C      1  0.5064160000000  0.5745720000000  0.5435870000000 1.0
C      1  0.4229950000000  0.4955840000000  0.5032080000000 1.0
C      1  0.5155860000000  0.5086770000000  0.5781630000000 1.0
C      1  0.5366770000000  0.5417490000000  0.4423310000000 1.0
C      1  0.5659420000000  0.5261610000000  0.4803520000000 1.0
C      1  0.4774290000000  0.5731740000000  0.5398110000000 1.0
C      1  0.5506460000000  0.5687930000000  0.5173360000000 1.0
C      1  0.5452880000000  0.5921440000000  0.4715320000000 1.0
C      1  0.5558370000000  0.5023070000000  0.5558680000000 1.0
C      1  0.5734160000000  0.5281200000000  0.5119090000000 1.0
C      1  0.5109980000000  0.5409920000000  0.4310140000000 1.0
C      1  0.5506650000000  0.4446800000000  0.5061210000000 1.0
C      1  0.4680640000000  0.5398750000000  0.4523040000000 1.0
C      1  0.5049650000000  0.5547180000000  0.5648130000000 1.0
C      1  0.5231840000000  0.5126330000000  0.5087290000000 1.0
C      1  0.4936920000000  0.4817100000000  0.5284620000000 1.0
C      1  0.5564560000000  0.5609090000000  0.4466640000000 1.0
C      1  0.5249750000000  0.5344010000000  0.5690700000000 1.0
C      1  0.5661110000000  0.4858870000000  0.5348170000000 1.0
C      1  0.4540460000000  0.5350390000000  0.5611580000000 1.0
C      1  0.5403210000000  0.4181460000000  0.5051170000000 1.0
C      1  0.4952690000000  0.4909020000000  0.4816090000000 1.0
C      1  0.5700250000000  0.5535230000000  0.4732000000000 1.0
C      1  0.4567520000000  0.5192590000000  0.4379580000000 1.0
C      1  0.4892590000000  0.3973780000000  0.5151820000000 1.0
C      1  0.4854190000000  0.5717040000000  0.4937910000000 1.0
C      1  0.5012790000000  0.4682690000000  0.4278390000000 1.0
C      1  0.5450220000000  0.4657290000000  0.5293440000000 1.0
C      1  0.4766910000000  0.5067720000000  0.4217040000000 1.0
C      1  0.5479580000000  0.4540860000000  0.4783920000000 1.0
C      1  0.5045090000000  0.5142160000000  0.4229400000000 1.0
C      1  0.5025430000000  0.4714890000000  0.5026580000000 1.0
C      1  0.5044410000000  0.4429760000000  0.4963520000000 1.0
C      1  0.4426890000000  0.5488060000000  0.5141390000000 1.0
C      1  0.4536830000000  0.4289070000000  0.5034450000000 1.0
C      1  0.4360430000000  0.4605120000000  0.5311710000000 1.0
C      1  0.4795910000000  0.4753970000000  0.5742230000000 1.0
C      1  0.4993460000000  0.4489220000000  0.4503480000000 1.0
C      1  0.4403660000000  0.5360190000000  0.4888670000000 1.0
C      1  0.5086110000000  0.5888890000000  0.5016380000000 1.0
C      1  0.4495610000000  0.4482900000000  0.4599740000000 1.0
C      1  0.5337160000000  0.4885300000000  0.5687550000000 1.0
C      1  0.4740790000000  0.4791040000000  0.4244430000000 1.0
C      1  0.4702550000000  0.4039660000000  0.4956180000000 1.0
C      1  0.5770610000000  0.5000050000000  0.5127430000000 1.0
C      1  0.4935470000000  0.5404150000000  0.4924300000000 1.0
C      1  0.5286600000000  0.4129720000000  0.4768100000000 1.0
C      1  0.4751670000000  0.5540300000000  0.5612070000000 1.0
C      1  0.4346930000000  0.4836440000000  0.5474540000000 1.0
C      1  0.4273020000000  0.5060990000000  0.5302870000000 1.0
C      1  0.4276860000000  0.4669060000000  0.5046030000000 1.0
C      1  0.4721810000000  0.5027810000000  0.4931960000000 1.0
C      1  0.5736300000000  0.4972890000000  0.4837660000000 1.0
C      1  0.4287600000000  0.5111850000000  0.4793490000000 1.0
C      1  0.5079400000000  0.3983520000000  0.4689890000000 1.0
C      1  0.5599480000000  0.5738880000000  0.4907160000000 1.0
C      1  0.5225650000000  0.4856160000000  0.5181040000000 1.0
C      1  0.5248430000000  0.5816330000000  0.5235790000000 1.0
C      1  0.4946890000000  0.5761460000000  0.4646780000000 1.0
C      1  0.4807900000000  0.4038900000000  0.4676080000000 1.0
C      1  0.4799300000000  0.4366450000000  0.5446980000000 1.0
C      1  0.4411580000000  0.5005910000000  0.4540750000000 1.0
C      1  0.5158060000000  0.4248840000000  0.5169840000000 1.0
C      1  0.4946290000000  0.4618270000000  0.5530290000000 1.0
C      1  0.4369800000000  0.5323930000000  0.5371000000000 1.0
C      1  0.4953760000000  0.4149650000000  0.5346720000000 1.0
C      1  0.4681920000000  0.5312670000000  0.4803030000000 1.0
C      1  0.4784440000000  0.4337900000000  0.4882800000000 1.0
C      1  0.4551180000000  0.4743730000000  0.4484390000000 1.0
C      1  0.5389750000000  0.5202770000000  0.4624510000000 1.0
C      1  0.4750190000000  0.4325880000000  0.4584140000000 1.0
C      1  0.5209010000000  0.4902420000000  0.4289040000000 1.0
C      1  0.4548430000000  0.4390140000000  0.5309250000000 1.0
C      1  0.4640790000000  0.5690830000000  0.5151860000000 1.0
C      1  0.4523710000000  0.4861400000000  0.5689090000000 1.0
C      1  0.4378840000000  0.4467210000000  0.4865970000000 1.0
C      1  0.4845380000000  0.4742700000000  0.4599760000000 1.0
C      1  0.5219720000000  0.4413100000000  0.4704980000000 1.0
C      1  0.5419760000000  0.4938600000000  0.4482870000000 1.0
END
