TITL C-149894-8980-7 0.0788988111707207 125000 -348.021598885505 0 0 52 (C1) n - 1
REM
REM in /rds/project/t2_vol4/rds-t2-cs072/BORA/CARBON/from-Arr/AIRSS/Generating-Clusters/GAP-ML-2020/Only-C1/SD-CG/HFTN-CG
REM
REM
REM
REM
REM
REM ./C.cell (11c1c37f851c82e70ff6c80c92926a4b)
REM AIRSS Version 0.9.1 bugfix July 2018 build 013d7b7c2542+ Fri, 06 Jul 2018 19:26:36 +0100
REM compiler GCC version 9.3.0
REM options -cpp -mtune=generic -march=x86-64 -g -O0
REM seed 769080441 489462529 1676326538 1009200564 -323374014 -1441415848 -1898743135 914516096 -479063038 -1262612046 896181244 675741706 487532288 -1612026480 2083165710 -395786936 1104223275 -2066309138 1064108735 -7809800 -1584097583 1252536255 -1895906932 112504963 1889864266 419980110 50224309 554066429 1458098032 1413791121 1943665193 674525167 -927233008
REM
CELL 1.54180   50.00000   50.00000   50.00000   90.00000   90.00000   90.00000
LATT -1
SFAC C  
C      1  0.4845840000000  0.5003590000000  0.4789650000000 1.0
C      1  0.5059120000000  0.4655060000000  0.4495660000000 1.0
C      1  0.5466860000000  0.5200650000000  0.5166490000000 1.0
C      1  0.4932800000000  0.4752380000000  0.4909120000000 1.0
C      1  0.5293610000000  0.4720140000000  0.5562600000000 1.0
C      1  0.5318750000000  0.5594080000000  0.4902160000000 1.0
C      1  0.5148700000000  0.4486920000000  0.5460030000000 1.0
C      1  0.5302990000000  0.5046160000000  0.4454380000000 1.0
C      1  0.5183750000000  0.4974340000000  0.5604300000000 1.0
C      1  0.4646570000000  0.5039400000000  0.5502800000000 1.0
C      1  0.4897740000000  0.4804160000000  0.5195180000000 1.0
C      1  0.5326670000000  0.4485750000000  0.5222480000000 1.0
C      1  0.5203560000000  0.4681270000000  0.4759520000000 1.0
C      1  0.4480150000000  0.4647770000000  0.5173230000000 1.0
C      1  0.4900360000000  0.5031580000000  0.5657900000000 1.0
C      1  0.5247080000000  0.5158180000000  0.5385210000000 1.0
C      1  0.4867640000000  0.5263480000000  0.5079440000000 1.0
C      1  0.4440140000000  0.5306600000000  0.4590880000000 1.0
C      1  0.5058310000000  0.4927400000000  0.4401320000000 1.0
C      1  0.4899600000000  0.5760070000000  0.5035910000000 1.0
C      1  0.4920990000000  0.5491890000000  0.5463150000000 1.0
C      1  0.4625240000000  0.5098230000000  0.4989890000000 1.0
C      1  0.5347360000000  0.5330390000000  0.4471750000000 1.0
C      1  0.4840000000000  0.5557260000000  0.5204990000000 1.0
C      1  0.5370220000000  0.4923210000000  0.4700110000000 1.0
C      1  0.4401490000000  0.5111040000000  0.4787620000000 1.0
C      1  0.5713780000000  0.5068770000000  0.5237830000000 1.0
C      1  0.5504930000000  0.4674540000000  0.5364920000000 1.0
C      1  0.4699690000000  0.5314370000000  0.4516650000000 1.0
C      1  0.5197930000000  0.5448420000000  0.5393870000000 1.0
C      1  0.4612510000000  0.4800030000000  0.4488090000000 1.0
C      1  0.4793710000000  0.5030730000000  0.4487660000000 1.0
C      1  0.4785500000000  0.5265340000000  0.5565720000000 1.0
C      1  0.4942070000000  0.4342160000000  0.4962270000000 1.0
C      1  0.4951690000000  0.5453990000000  0.4615100000000 1.0
C      1  0.5732850000000  0.4824610000000  0.5320560000000 1.0
C      1  0.4489190000000  0.4623090000000  0.4889670000000 1.0
C      1  0.4788800000000  0.4577680000000  0.4523060000000 1.0
C      1  0.5435220000000  0.5395800000000  0.4730090000000 1.0
C      1  0.5136550000000  0.5479800000000  0.4397020000000 1.0
C      1  0.5370100000000  0.5495210000000  0.5171390000000 1.0
C      1  0.5213660000000  0.4464860000000  0.4962310000000 1.0
C      1  0.4826460000000  0.4317820000000  0.5212090000000 1.0
C      1  0.4424630000000  0.4826840000000  0.4701550000000 1.0
C      1  0.4889110000000  0.4561460000000  0.5383560000000 1.0
C      1  0.5373180000000  0.5156420000000  0.4878270000000 1.0
C      1  0.4619430000000  0.4443380000000  0.5315660000000 1.0
C      1  0.5052610000000  0.5674300000000  0.4824780000000 1.0
C      1  0.4755640000000  0.4515730000000  0.4804730000000 1.0
C      1  0.5019510000000  0.5064130000000  0.5224640000000 1.0
C      1  0.5040240000000  0.5222020000000  0.4841030000000 1.0
C      1  0.4605480000000  0.4907510000000  0.5221690000000 1.0
END
