TITL C-149872-341-3 -0.0277459309330532 125000 -393.519296342532 0 0 58 (C1) n - 1
REM
REM in /rds/project/t2_vol4/rds-t2-cs072/BORA/CARBON/from-Arr/AIRSS/Generating-Clusters/GAP-ML-2020/Only-C1/SD-CG/HFTN-CG
REM
REM
REM
REM
REM
REM ./C.cell (11c1c37f851c82e70ff6c80c92926a4b)
REM AIRSS Version 0.9.1 bugfix July 2018 build 013d7b7c2542+ Fri, 06 Jul 2018 19:26:36 +0100
REM compiler GCC version 9.3.0
REM options -cpp -mtune=generic -march=x86-64 -g -O0
REM seed -768811825 -509792752 -1473943268 1363423352 -1054748769 1289497674 -1264640972 303350635 1562624406 -377588942 -559680325 927317990 1635341469 1195285306 -1577405582 -926448639 -1587099843 1704267134 -718790028 -794853922 -1264708614 -581002323 118161182 455263431 1754912165 673175830 2104960662 84322636 1794220858 -1360205073 -977885222 1750344060 1953426353
REM
CELL 1.54180   50.00000   50.00000   50.00000   90.00000   90.00000   90.00000
LATT -1
SFAC C  
C      1  0.4569250000000  0.5516030000000  0.5306570000000 1.0
C      1  0.5116170000000  0.4551690000000  0.5435370000000 1.0
C      1  0.5245310000000  0.5148940000000  0.5008700000000 1.0
C      1  0.4790090000000  0.4750100000000  0.4434660000000 1.0
C      1  0.5277680000000  0.4870640000000  0.4480460000000 1.0
C      1  0.4702430000000  0.4522800000000  0.4592310000000 1.0
C      1  0.4986120000000  0.5647890000000  0.5170420000000 1.0
C      1  0.5187510000000  0.5116310000000  0.4349830000000 1.0
C      1  0.4690470000000  0.4744630000000  0.5555110000000 1.0
C      1  0.4855230000000  0.4970190000000  0.5188080000000 1.0
C      1  0.5546550000000  0.4811770000000  0.4614420000000 1.0
C      1  0.5368380000000  0.5595190000000  0.4881340000000 1.0
C      1  0.5121490000000  0.5035800000000  0.5602500000000 1.0
C      1  0.5600320000000  0.4998010000000  0.5248230000000 1.0
C      1  0.4524290000000  0.4474430000000  0.5074630000000 1.0
C      1  0.4419870000000  0.5296630000000  0.5195830000000 1.0
C      1  0.4836930000000  0.4980630000000  0.5655640000000 1.0
C      1  0.5337890000000  0.4469770000000  0.4957660000000 1.0
C      1  0.5456510000000  0.5456760000000  0.4641140000000 1.0
C      1  0.4473410000000  0.5056880000000  0.4734240000000 1.0
C      1  0.5070940000000  0.4665050000000  0.4441930000000 1.0
C      1  0.5100180000000  0.5654170000000  0.4909610000000 1.0
C      1  0.5685810000000  0.4871460000000  0.5009690000000 1.0
C      1  0.4900970000000  0.5572650000000  0.4709900000000 1.0
C      1  0.4732250000000  0.5015230000000  0.4544160000000 1.0
C      1  0.4442420000000  0.5110600000000  0.5418410000000 1.0
C      1  0.5686870000000  0.5025700000000  0.4762030000000 1.0
C      1  0.5037390000000  0.5491840000000  0.5420240000000 1.0
C      1  0.4404550000000  0.4816380000000  0.4865750000000 1.0
C      1  0.5206690000000  0.4954130000000  0.4771580000000 1.0
C      1  0.5208530000000  0.4385120000000  0.5222260000000 1.0
C      1  0.4909840000000  0.4756320000000  0.5000500000000 1.0
C      1  0.4468600000000  0.5296110000000  0.4895120000000 1.0
C      1  0.4394960000000  0.4719640000000  0.5150830000000 1.0
C      1  0.4916610000000  0.4987870000000  0.4783970000000 1.0
C      1  0.4833240000000  0.4525160000000  0.5455680000000 1.0
C      1  0.4707900000000  0.5641440000000  0.5106870000000 1.0
C      1  0.5241310000000  0.5290070000000  0.5486230000000 1.0
C      1  0.4949730000000  0.5178210000000  0.5023640000000 1.0
C      1  0.5487080000000  0.5378490000000  0.5053890000000 1.0
C      1  0.5574390000000  0.4632180000000  0.4855160000000 1.0
C      1  0.5328600000000  0.4906180000000  0.5203960000000 1.0
C      1  0.4991540000000  0.5454790000000  0.4473550000000 1.0
C      1  0.5505390000000  0.5274210000000  0.5330320000000 1.0
C      1  0.4522000000000  0.4554420000000  0.4794230000000 1.0
C      1  0.4741950000000  0.4372600000000  0.5221580000000 1.0
C      1  0.5225740000000  0.4813530000000  0.5466780000000 1.0
C      1  0.4650700000000  0.5525770000000  0.4850520000000 1.0
C      1  0.4663770000000  0.5192870000000  0.5592250000000 1.0
C      1  0.4449940000000  0.4829060000000  0.5404640000000 1.0
C      1  0.4977740000000  0.4282850000000  0.5083520000000 1.0
C      1  0.4762470000000  0.5442080000000  0.5511950000000 1.0
C      1  0.5212620000000  0.4735880000000  0.4981680000000 1.0
C      1  0.5275950000000  0.5377690000000  0.4448030000000 1.0
C      1  0.4908370000000  0.5191810000000  0.4383560000000 1.0
C      1  0.5098990000000  0.4326610000000  0.4825850000000 1.0
C      1  0.4982330000000  0.4444880000000  0.4608950000000 1.0
C      1  0.5635740000000  0.5291840000000  0.4804030000000 1.0
END
