TITL C-141716-1623-9 47.4209480752118 125000 -161.863077129436 0 0 25 (C1) n - 1
REM
REM in /rds/project/t2_vol4/rds-t2-cs072/BORA/CARBON/from-Arr/AIRSS/Generating-Clusters/GAP-ML-2020/Only-C1/SD-CG/HFTN-CG
REM
REM
REM
REM
REM
REM ./C.cell (11c1c37f851c82e70ff6c80c92926a4b)
REM AIRSS Version 0.9.1 bugfix July 2018 build 013d7b7c2542+ Fri, 06 Jul 2018 19:26:36 +0100
REM compiler GCC version 9.3.0
REM options -cpp -mtune=generic -march=x86-64 -g -O0
REM seed 1779446754 -1307609440 -1505476940 -774215078 1262902441 -1796993931 199705593 -1329834900 1373958149 1340208636 -240990880 947216304 246133121 774768293 -2053716427 -435814463 1519958921 1480311451 811211499 -659718662 1986688488 -402993705 2027480883 -738700478 -545720037 1338058186 -77234470 1053540804 188400426 -555044793 1465224259 124933534 -759951807
REM
CELL 1.54180   50.00000   50.00000   50.00000   90.00000   90.00000   90.00000
LATT -1
SFAC C  
C      1  0.4416100000000  0.5007080000000  0.4833120000000 1.0
C      1  0.5208140000000  0.5412970000000  0.5383610000000 1.0
C      1  0.5263870000000  0.4988870000000  0.5205220000000 1.0
C      1  0.4596250000000  0.4827130000000  0.4848340000000 1.0
C      1  0.5584410000000  0.5040020000000  0.4672350000000 1.0
C      1  0.5002210000000  0.5000190000000  0.5322560000000 1.0
C      1  0.4500140000000  0.5381810000000  0.5166830000000 1.0
C      1  0.4311870000000  0.4972970000000  0.5329220000000 1.0
C      1  0.4549880000000  0.4874100000000  0.5366070000000 1.0
C      1  0.5030250000000  0.4614250000000  0.4865850000000 1.0
C      1  0.4793400000000  0.4693910000000  0.4983120000000 1.0
C      1  0.5006460000000  0.4841110000000  0.4153620000000 1.0
C      1  0.5604270000000  0.5287220000000  0.4771460000000 1.0
C      1  0.5219330000000  0.5111730000000  0.4930240000000 1.0
C      1  0.4801460000000  0.4820300000000  0.5258650000000 1.0
C      1  0.5084600000000  0.4803380000000  0.4390750000000 1.0
C      1  0.5402360000000  0.5259490000000  0.5248330000000 1.0
C      1  0.4399740000000  0.5131040000000  0.5088890000000 1.0
C      1  0.5372040000000  0.4889280000000  0.4785920000000 1.0
C      1  0.5160960000000  0.4752180000000  0.4642950000000 1.0
C      1  0.5412420000000  0.5323420000000  0.4974790000000 1.0
C      1  0.4957590000000  0.5285680000000  0.5379300000000 1.0
C      1  0.4720140000000  0.5392260000000  0.5292470000000 1.0
C      1  0.5226400000000  0.4530160000000  0.5046940000000 1.0
C      1  0.5375730000000  0.4759450000000  0.5059410000000 1.0
END
