TITL C-141436-3359-4 156.662116031064 125000 -965.291924870109 0 0 138 (C1) n - 1
REM
REM in /rds/project/t2_vol4/rds-t2-cs072/BORA/CARBON/from-Arr/AIRSS/Generating-Clusters/GAP-ML-2020/Only-C1/SD-CG/HFTN-CG
REM
REM
REM
REM
REM
REM ./C.cell (11c1c37f851c82e70ff6c80c92926a4b)
REM AIRSS Version 0.9.1 bugfix July 2018 build 013d7b7c2542+ Fri, 06 Jul 2018 19:26:36 +0100
REM compiler GCC version 9.3.0
REM options -cpp -mtune=generic -march=x86-64 -g -O0
REM seed 1061908653 1362477342 -2132605635 213279087 1983173134 754799556 -1770630189 1320089604 1725784164 1628474415 -788671172 1716192580 1408780753 -716112117 -1386611433 -1401110927 178035793 576972742 1305495167 -392012401 401697165 -146107633 -672499583 400653635 1067707937 1736966913 2130615097 -624930735 -1350011255 -58248177 109266993 1530998079 2147008212
REM
CELL 1.54180   50.00000   50.00000   50.00000   90.00000   90.00000   90.00000
LATT -1
SFAC C  
C      1  0.4053460000000  0.4650430000000  0.4767240000000 1.0
C      1  0.4463640000000  0.5031170000000  0.4708530000000 1.0
C      1  0.5946940000000  0.5025550000000  0.5439030000000 1.0
C      1  0.5281480000000  0.5873610000000  0.5074420000000 1.0
C      1  0.5205280000000  0.4606050000000  0.5461050000000 1.0
C      1  0.5299840000000  0.4001100000000  0.4987130000000 1.0
C      1  0.4153530000000  0.5344090000000  0.5067650000000 1.0
C      1  0.4307460000000  0.4584900000000  0.5401530000000 1.0
C      1  0.5145070000000  0.5552430000000  0.4262050000000 1.0
C      1  0.5276050000000  0.5271550000000  0.4266740000000 1.0
C      1  0.5031140000000  0.4490520000000  0.5250270000000 1.0
C      1  0.4730290000000  0.5127080000000  0.4725560000000 1.0
C      1  0.4599100000000  0.5648490000000  0.4373970000000 1.0
C      1  0.4765830000000  0.4886170000000  0.5939060000000 1.0
C      1  0.4837920000000  0.5499810000000  0.4456060000000 1.0
C      1  0.5114710000000  0.5369500000000  0.5523690000000 1.0
C      1  0.5350280000000  0.4719550000000  0.4928350000000 1.0
C      1  0.4325340000000  0.4246070000000  0.4887920000000 1.0
C      1  0.4392860000000  0.5469890000000  0.4306640000000 1.0
C      1  0.4268230000000  0.4970290000000  0.4473660000000 1.0
C      1  0.5712750000000  0.5449740000000  0.5298780000000 1.0
C      1  0.4848170000000  0.4326770000000  0.4362160000000 1.0
C      1  0.4816270000000  0.5060910000000  0.5588870000000 1.0
C      1  0.5152450000000  0.5027910000000  0.4086490000000 1.0
C      1  0.4837890000000  0.5325630000000  0.5439100000000 1.0
C      1  0.4756900000000  0.5408220000000  0.5858410000000 1.0
C      1  0.4487900000000  0.5262680000000  0.4143560000000 1.0
C      1  0.5197290000000  0.4674820000000  0.5943790000000 1.0
C      1  0.4871960000000  0.5032060000000  0.4055050000000 1.0
C      1  0.4658830000000  0.4866620000000  0.5407580000000 1.0
C      1  0.5415290000000  0.5616860000000  0.4662450000000 1.0
C      1  0.4884780000000  0.5521540000000  0.4157230000000 1.0
C      1  0.4501800000000  0.4677310000000  0.4847430000000 1.0
C      1  0.5033280000000  0.5926300000000  0.4631150000000 1.0
C      1  0.5135470000000  0.4307270000000  0.4336320000000 1.0
C      1  0.5149090000000  0.4011520000000  0.4749660000000 1.0
C      1  0.4535240000000  0.5047510000000  0.5192380000000 1.0
C      1  0.5248150000000  0.4788810000000  0.4197880000000 1.0
C      1  0.5151950000000  0.5578180000000  0.5748150000000 1.0
C      1  0.5571870000000  0.4473250000000  0.4364940000000 1.0
C      1  0.4798020000000  0.5993720000000  0.4982400000000 1.0
C      1  0.5686990000000  0.4285110000000  0.4819610000000 1.0
C      1  0.5971190000000  0.4942740000000  0.5162670000000 1.0
C      1  0.4197630000000  0.4693700000000  0.4532510000000 1.0
C      1  0.4295860000000  0.5224060000000  0.5287720000000 1.0
C      1  0.4753530000000  0.4661800000000  0.4951810000000 1.0
C      1  0.4733390000000  0.4272310000000  0.5506190000000 1.0
C      1  0.4090100000000  0.4864470000000  0.4971990000000 1.0
C      1  0.5176630000000  0.5152410000000  0.5924700000000 1.0
C      1  0.5562320000000  0.4698890000000  0.5173700000000 1.0
C      1  0.5737880000000  0.4694580000000  0.4426390000000 1.0
C      1  0.4949310000000  0.4495870000000  0.4792390000000 1.0
C      1  0.4461550000000  0.4552370000000  0.4553020000000 1.0
C      1  0.5281100000000  0.4156220000000  0.4535290000000 1.0
C      1  0.5553130000000  0.4146090000000  0.5024170000000 1.0
C      1  0.5265200000000  0.5479010000000  0.5309070000000 1.0
C      1  0.5732920000000  0.5605940000000  0.5047040000000 1.0
C      1  0.4954230000000  0.5513650000000  0.4778430000000 1.0
C      1  0.5081660000000  0.4528760000000  0.5726280000000 1.0
C      1  0.5580180000000  0.5191480000000  0.5144830000000 1.0
C      1  0.4126440000000  0.4619590000000  0.5186160000000 1.0
C      1  0.4387230000000  0.4915310000000  0.4955080000000 1.0
C      1  0.4941400000000  0.4189030000000  0.5286320000000 1.0
C      1  0.4517840000000  0.5813530000000  0.4594100000000 1.0
C      1  0.4891420000000  0.4887630000000  0.4811500000000 1.0
C      1  0.5483190000000  0.5168710000000  0.5872000000000 1.0
C      1  0.4756610000000  0.5292800000000  0.4050330000000 1.0
C      1  0.4127550000000  0.4442320000000  0.4954280000000 1.0
C      1  0.4639740000000  0.4666370000000  0.5800870000000 1.0
C      1  0.5847550000000  0.5133730000000  0.4964670000000 1.0
C      1  0.4303220000000  0.5294170000000  0.5555400000000 1.0
C      1  0.5905040000000  0.4696310000000  0.4661320000000 1.0
C      1  0.5158460000000  0.5771290000000  0.5338940000000 1.0
C      1  0.5143240000000  0.4916390000000  0.4948850000000 1.0
C      1  0.5083540000000  0.5984890000000  0.4912740000000 1.0
C      1  0.5024840000000  0.5420490000000  0.5941950000000 1.0
C      1  0.5848620000000  0.4682120000000  0.5102670000000 1.0
C      1  0.4700170000000  0.5557520000000  0.5569900000000 1.0
C      1  0.5218060000000  0.5376830000000  0.4771650000000 1.0
C      1  0.4426110000000  0.5547300000000  0.5468980000000 1.0
C      1  0.4945120000000  0.4711870000000  0.4572750000000 1.0
C      1  0.5311820000000  0.5754040000000  0.5606800000000 1.0
C      1  0.5883550000000  0.5425610000000  0.4878790000000 1.0
C      1  0.4433790000000  0.5001890000000  0.4225690000000 1.0
C      1  0.4254270000000  0.5604610000000  0.5001760000000 1.0
C      1  0.4773550000000  0.5348180000000  0.4915970000000 1.0
C      1  0.5221020000000  0.5754350000000  0.4477660000000 1.0
C      1  0.4443080000000  0.4780730000000  0.5602940000000 1.0
C      1  0.5869120000000  0.4512500000000  0.4867380000000 1.0
C      1  0.5190070000000  0.4851560000000  0.4481640000000 1.0
C      1  0.5166630000000  0.4498130000000  0.4973800000000 1.0
C      1  0.4667370000000  0.5866910000000  0.5208070000000 1.0
C      1  0.5893570000000  0.5495900000000  0.4615140000000 1.0
C      1  0.5642530000000  0.4984780000000  0.4506980000000 1.0
C      1  0.5461750000000  0.4490560000000  0.5366450000000 1.0
C      1  0.4464130000000  0.4272340000000  0.4631940000000 1.0
C      1  0.5457000000000  0.4222720000000  0.5288880000000 1.0
C      1  0.4866650000000  0.4043760000000  0.4786090000000 1.0
C      1  0.5515690000000  0.5548400000000  0.5505870000000 1.0
C      1  0.4811200000000  0.5214790000000  0.5167480000000 1.0
C      1  0.4670050000000  0.4843590000000  0.4175290000000 1.0
C      1  0.5617870000000  0.5344000000000  0.5693270000000 1.0
C      1  0.5112720000000  0.5093770000000  0.5625590000000 1.0
C      1  0.5604900000000  0.4914060000000  0.5823560000000 1.0
C      1  0.4047160000000  0.5150470000000  0.4888420000000 1.0
C      1  0.5501900000000  0.5742230000000  0.4933270000000 1.0
C      1  0.4300150000000  0.5659480000000  0.4718410000000 1.0
C      1  0.5467710000000  0.4707580000000  0.5928830000000 1.0
C      1  0.4759520000000  0.4627870000000  0.5244270000000 1.0
C      1  0.4218600000000  0.5454960000000  0.4532720000000 1.0
C      1  0.5099450000000  0.5068770000000  0.5169580000000 1.0
C      1  0.4714620000000  0.4164220000000  0.4565430000000 1.0
C      1  0.4418190000000  0.5703670000000  0.5226040000000 1.0
C      1  0.5522270000000  0.4948460000000  0.5335280000000 1.0
C      1  0.4737610000000  0.5956840000000  0.4701460000000 1.0
C      1  0.4510380000000  0.4202230000000  0.5098310000000 1.0
C      1  0.4646950000000  0.5130920000000  0.5836020000000 1.0
C      1  0.4850420000000  0.5772780000000  0.5399420000000 1.0
C      1  0.5545940000000  0.4265020000000  0.4562540000000 1.0
C      1  0.4121890000000  0.5199300000000  0.4611450000000 1.0
C      1  0.5854600000000  0.4980190000000  0.4712290000000 1.0
C      1  0.5294030000000  0.5279760000000  0.5066820000000 1.0
C      1  0.5040520000000  0.4901700000000  0.6021660000000 1.0
C      1  0.4528440000000  0.4390670000000  0.5326250000000 1.0
C      1  0.5725890000000  0.4903560000000  0.5557810000000 1.0
C      1  0.4806700000000  0.4449180000000  0.5716660000000 1.0
C      1  0.4719190000000  0.4613470000000  0.4377300000000 1.0
C      1  0.5642780000000  0.5476380000000  0.4505920000000 1.0
C      1  0.5556880000000  0.5240220000000  0.4363870000000 1.0
C      1  0.4857950000000  0.5209370000000  0.4489210000000 1.0
C      1  0.5146630000000  0.5163590000000  0.4517590000000 1.0
C      1  0.5209250000000  0.4071660000000  0.5254280000000 1.0
C      1  0.4390530000000  0.5075080000000  0.5710640000000 1.0
C      1  0.4766050000000  0.4099360000000  0.5056060000000 1.0
C      1  0.5844090000000  0.5283650000000  0.5507340000000 1.0
C      1  0.5417980000000  0.4808600000000  0.4648930000000 1.0
C      1  0.5231810000000  0.4926680000000  0.5413830000000 1.0
C      1  0.5317570000000  0.4511310000000  0.4232480000000 1.0
END
