TITL C-149879-8998-3 8.85521240078066 125000 -518.134839156396 0 0 76 (C1) n - 1
REM
REM in /rds/project/t2_vol4/rds-t2-cs072/BORA/CARBON/from-Arr/AIRSS/Generating-Clusters/GAP-ML-2020/Only-C1/SD-CG/HFTN-CG
REM
REM
REM
REM
REM
REM ./C.cell (11c1c37f851c82e70ff6c80c92926a4b)
REM AIRSS Version 0.9.1 bugfix July 2018 build 013d7b7c2542+ Fri, 06 Jul 2018 19:26:36 +0100
REM compiler GCC version 9.3.0
REM options -cpp -mtune=generic -march=x86-64 -g -O0
REM seed 266765345 -1141926275 -1040049303 -1181502009 11604405 -404803684 1420439443 -1492157269 1127616185 1867097484 -1035888622 901767751 -1128251370 -1079573126 1403462394 -998971192 1830141213 -1130826484 -521063373 1934476980 -832909426 1867750869 241199665 -204786475 815362287 1155363102 394211379 105214941 1622034295 495736551 -1812823134 440569863 1114078308
REM
CELL 1.54180   50.00000   50.00000   50.00000   90.00000   90.00000   90.00000
LATT -1
SFAC C  
C      1  0.5053680000000  0.5412150000000  0.5705250000000 1.0
C      1  0.5531320000000  0.4870400000000  0.5237080000000 1.0
C      1  0.5274370000000  0.5139780000000  0.4931170000000 1.0
C      1  0.5028680000000  0.4751470000000  0.5047070000000 1.0
C      1  0.5679420000000  0.5227680000000  0.4786910000000 1.0
C      1  0.5215600000000  0.4973520000000  0.5156790000000 1.0
C      1  0.4469440000000  0.4813290000000  0.4412770000000 1.0
C      1  0.5197280000000  0.5658430000000  0.5279360000000 1.0
C      1  0.5603040000000  0.4772400000000  0.4976280000000 1.0
C      1  0.4652590000000  0.5508540000000  0.5384670000000 1.0
C      1  0.5257070000000  0.4993970000000  0.5650880000000 1.0
C      1  0.4760880000000  0.5582200000000  0.5128210000000 1.0
C      1  0.4829490000000  0.4174720000000  0.4922870000000 1.0
C      1  0.4169930000000  0.4936880000000  0.4821860000000 1.0
C      1  0.5361900000000  0.4449060000000  0.5196900000000 1.0
C      1  0.5479140000000  0.4420150000000  0.4687520000000 1.0
C      1  0.5302730000000  0.5012370000000  0.4335640000000 1.0
C      1  0.5447520000000  0.4637370000000  0.5401390000000 1.0
C      1  0.5138840000000  0.5439300000000  0.4528830000000 1.0
C      1  0.5435200000000  0.5695970000000  0.5135480000000 1.0
C      1  0.5352460000000  0.5789560000000  0.4862790000000 1.0
C      1  0.5364890000000  0.5610250000000  0.4649830000000 1.0
C      1  0.4716760000000  0.5085120000000  0.4908500000000 1.0
C      1  0.4588400000000  0.5185520000000  0.5641320000000 1.0
C      1  0.4742520000000  0.4401880000000  0.4535280000000 1.0
C      1  0.4685720000000  0.4175670000000  0.4677950000000 1.0
C      1  0.5621260000000  0.5512220000000  0.5222680000000 1.0
C      1  0.5119320000000  0.4528080000000  0.5779410000000 1.0
C      1  0.4300540000000  0.4692870000000  0.4914590000000 1.0
C      1  0.4867770000000  0.5414690000000  0.4409090000000 1.0
C      1  0.5200520000000  0.5407750000000  0.5437850000000 1.0
C      1  0.4621320000000  0.4489230000000  0.5303550000000 1.0
C      1  0.5550740000000  0.5398030000000  0.4592070000000 1.0
C      1  0.5063070000000  0.5261910000000  0.4782830000000 1.0
C      1  0.4665750000000  0.5444750000000  0.4611220000000 1.0
C      1  0.4277620000000  0.5147080000000  0.5265380000000 1.0
C      1  0.4939640000000  0.4696240000000  0.4312020000000 1.0
C      1  0.5102710000000  0.4132690000000  0.4824240000000 1.0
C      1  0.5721520000000  0.5293960000000  0.5065530000000 1.0
C      1  0.5538250000000  0.4967050000000  0.4770600000000 1.0
C      1  0.5210980000000  0.4317910000000  0.4658190000000 1.0
C      1  0.5077520000000  0.4480740000000  0.5163550000000 1.0
C      1  0.4542890000000  0.5086330000000  0.4360610000000 1.0
C      1  0.5100240000000  0.5092420000000  0.5402010000000 1.0
C      1  0.4237260000000  0.5225970000000  0.4735410000000 1.0
C      1  0.5303610000000  0.4701080000000  0.5643060000000 1.0
C      1  0.5030670000000  0.4954620000000  0.4253510000000 1.0
C      1  0.5035310000000  0.4760810000000  0.4760130000000 1.0
C      1  0.4434740000000  0.5323000000000  0.5421980000000 1.0
C      1  0.5503570000000  0.5336970000000  0.5450870000000 1.0
C      1  0.4470470000000  0.4700970000000  0.5156940000000 1.0
C      1  0.4906040000000  0.5009360000000  0.4706610000000 1.0
C      1  0.4818310000000  0.5005070000000  0.5382430000000 1.0
C      1  0.4365490000000  0.4890010000000  0.5354050000000 1.0
C      1  0.4775540000000  0.5388360000000  0.4893200000000 1.0
C      1  0.4439390000000  0.5286840000000  0.4545050000000 1.0
C      1  0.4679730000000  0.4611370000000  0.5559450000000 1.0
C      1  0.5526850000000  0.4506030000000  0.4957210000000 1.0
C      1  0.4816400000000  0.5162710000000  0.4274040000000 1.0
C      1  0.4782170000000  0.5404570000000  0.5643110000000 1.0
C      1  0.4311860000000  0.4755650000000  0.4648180000000 1.0
C      1  0.5654310000000  0.5121530000000  0.5286330000000 1.0
C      1  0.5555700000000  0.4583270000000  0.4473950000000 1.0
C      1  0.4582540000000  0.4903780000000  0.5555500000000 1.0
C      1  0.5013440000000  0.4533470000000  0.4568410000000 1.0
C      1  0.5091310000000  0.5901550000000  0.4903760000000 1.0
C      1  0.4981390000000  0.5763270000000  0.5119120000000 1.0
C      1  0.5466050000000  0.5199660000000  0.5710250000000 1.0
C      1  0.4865130000000  0.4513850000000  0.5748290000000 1.0
C      1  0.5215570000000  0.5222660000000  0.5835900000000 1.0
C      1  0.4669360000000  0.4624210000000  0.4355450000000 1.0
C      1  0.5483830000000  0.4847160000000  0.4496300000000 1.0
C      1  0.5359100000000  0.5277070000000  0.4403210000000 1.0
C      1  0.4172710000000  0.5174220000000  0.4997160000000 1.0
C      1  0.4829100000000  0.4332620000000  0.5160590000000 1.0
C      1  0.4762500000000  0.4896680000000  0.5122530000000 1.0
END
