TITL C-141425-3340-6 -0.00732375968588404 125000 -330.07915524028 0 0 50 (C1) n - 1
REM
REM in /rds/project/t2_vol4/rds-t2-cs072/BORA/CARBON/from-Arr/AIRSS/Generating-Clusters/GAP-ML-2020/Only-C1/SD-CG/HFTN-CG
REM
REM
REM
REM
REM
REM ./C.cell (11c1c37f851c82e70ff6c80c92926a4b)
REM AIRSS Version 0.9.1 bugfix July 2018 build 013d7b7c2542+ Fri, 06 Jul 2018 19:26:36 +0100
REM compiler GCC version 9.3.0
REM options -cpp -mtune=generic -march=x86-64 -g -O0
REM seed 1790670528 1916918784 -364235218 -1954874190 -1788490446 1267809883 -1412224158 269364871 -338213309 -396844236 -1270227194 1974481834 125056559 50623003 -1517154965 -256485996 30186085 1110692550 2145554248 511433583 -409921365 268208017 -1720878867 -1221041945 -2087841176 -895273620 -1987570711 -1301064675 -2019086436 -1197872840 -1013192802 -1641159170 -1006161295
REM
CELL 1.54180   50.00000   50.00000   50.00000   90.00000   90.00000   90.00000
LATT -1
SFAC C  
C      1  0.5582990000000  0.5160250000000  0.4984270000000 1.0
C      1  0.4966290000000  0.5014530000000  0.5650310000000 1.0
C      1  0.5176190000000  0.5204410000000  0.5676160000000 1.0
C      1  0.5003760000000  0.4924620000000  0.4532420000000 1.0
C      1  0.5020810000000  0.5147380000000  0.4345040000000 1.0
C      1  0.5147890000000  0.4781450000000  0.5605960000000 1.0
C      1  0.5072590000000  0.5521690000000  0.4522380000000 1.0
C      1  0.4735960000000  0.4869190000000  0.4914870000000 1.0
C      1  0.5468900000000  0.5491870000000  0.5389170000000 1.0
C      1  0.5451360000000  0.5065620000000  0.4733770000000 1.0
C      1  0.4508030000000  0.5012110000000  0.5084350000000 1.0
C      1  0.5595930000000  0.4922510000000  0.5156590000000 1.0
C      1  0.5472930000000  0.4699580000000  0.5024090000000 1.0
C      1  0.5018150000000  0.5069120000000  0.5191740000000 1.0
C      1  0.4452070000000  0.4534880000000  0.5054540000000 1.0
C      1  0.4487080000000  0.5143390000000  0.4552600000000 1.0
C      1  0.5173030000000  0.5509180000000  0.5022420000000 1.0
C      1  0.4830600000000  0.4553880000000  0.5334260000000 1.0
C      1  0.5173270000000  0.4368830000000  0.4968290000000 1.0
C      1  0.5111730000000  0.4600140000000  0.5392400000000 1.0
C      1  0.4725020000000  0.4871030000000  0.4637680000000 1.0
C      1  0.4906810000000  0.4339770000000  0.4909050000000 1.0
C      1  0.5195690000000  0.5415960000000  0.5479390000000 1.0
C      1  0.4786920000000  0.5031300000000  0.5421950000000 1.0
C      1  0.4451580000000  0.4874200000000  0.4539450000000 1.0
C      1  0.5278610000000  0.5159780000000  0.5293740000000 1.0
C      1  0.5192990000000  0.4681400000000  0.4589230000000 1.0
C      1  0.5092320000000  0.4457890000000  0.4715250000000 1.0
C      1  0.4312320000000  0.4543200000000  0.4824100000000 1.0
C      1  0.4605170000000  0.5218560000000  0.5269250000000 1.0
C      1  0.5019280000000  0.4861130000000  0.4992630000000 1.0
C      1  0.5258330000000  0.5336370000000  0.4397330000000 1.0
C      1  0.5030930000000  0.5613680000000  0.4784690000000 1.0
C      1  0.4657870000000  0.4767770000000  0.5396210000000 1.0
C      1  0.4266880000000  0.4667180000000  0.4600790000000 1.0
C      1  0.4638220000000  0.5362370000000  0.4620060000000 1.0
C      1  0.4766070000000  0.5466130000000  0.4872460000000 1.0
C      1  0.4720430000000  0.4420830000000  0.5104950000000 1.0
C      1  0.4439150000000  0.4772070000000  0.5223520000000 1.0
C      1  0.4847500000000  0.5371720000000  0.4423930000000 1.0
C      1  0.5000640000000  0.5264670000000  0.4952070000000 1.0
C      1  0.5440730000000  0.5391010000000  0.5125410000000 1.0
C      1  0.5001080000000  0.5522360000000  0.5271710000000 1.0
C      1  0.5429140000000  0.4760510000000  0.4746610000000 1.0
C      1  0.5127390000000  0.5053010000000  0.4777450000000 1.0
C      1  0.5369510000000  0.4971170000000  0.5645430000000 1.0
C      1  0.5290710000000  0.4530480000000  0.5166460000000 1.0
C      1  0.5469930000000  0.5215210000000  0.4495970000000 1.0
C      1  0.5505430000000  0.4999290000000  0.5411700000000 1.0
C      1  0.4723790000000  0.5465330000000  0.5175880000000 1.0
END
