TITL C-147418-6738-1 -284.579679983558 125000 -485.529891940944 0 0 70 (C1) n - 1
REM
REM in /rds/project/t2_vol4/rds-t2-cs072/BORA/CARBON/from-Arr/AIRSS/Generating-Clusters/GAP-ML-2020/Only-C1/SD-CG/HFTN-CG
REM
REM
REM
REM
REM
REM ./C.cell (11c1c37f851c82e70ff6c80c92926a4b)
REM AIRSS Version 0.9.1 bugfix July 2018 build 013d7b7c2542+ Fri, 06 Jul 2018 19:26:36 +0100
REM compiler GCC version 9.3.0
REM options -cpp -mtune=generic -march=x86-64 -g -O0
REM seed 863717231 -1209157888 -1860015977 -893533019 1195658826 1373062235 155407956 -63359993 -1333020039 1473470607 809953865 -235395265 1686046884 4171581 -390110787 1915890371 -1040638721 -1476007222 -154537672 -35096059 -1653776961 -720112469 1869913488 -1219679229 1655605609 489558743 -414174938 -1461539856 1225512376 -74999454 1659756690 -77333069 -566042983
REM
CELL 1.54180   50.00000   50.00000   50.00000   90.00000   90.00000   90.00000
LATT -1
SFAC C  
C      1  0.5206710000000  0.4974420000000  0.5708230000000 1.0
C      1  0.4449410000000  0.5358900000000  0.5266610000000 1.0
C      1  0.4622710000000  0.5037420000000  0.5727200000000 1.0
C      1  0.5412140000000  0.4408410000000  0.4982040000000 1.0
C      1  0.4752660000000  0.5734490000000  0.5288160000000 1.0
C      1  0.5201210000000  0.5759050000000  0.5141080000000 1.0
C      1  0.4835660000000  0.4550360000000  0.5668880000000 1.0
C      1  0.4633840000000  0.5432890000000  0.4853230000000 1.0
C      1  0.4498520000000  0.5637050000000  0.5285860000000 1.0
C      1  0.5112550000000  0.4336060000000  0.5438130000000 1.0
C      1  0.5101130000000  0.4693770000000  0.5128330000000 1.0
C      1  0.5560780000000  0.4771630000000  0.4589130000000 1.0
C      1  0.4956760000000  0.5018870000000  0.4726730000000 1.0
C      1  0.4819890000000  0.4363180000000  0.5437210000000 1.0
C      1  0.5323220000000  0.5358880000000  0.5392220000000 1.0
C      1  0.5353010000000  0.5671610000000  0.4907580000000 1.0
C      1  0.4402900000000  0.4720160000000  0.4498280000000 1.0
C      1  0.5369400000000  0.5172850000000  0.4376070000000 1.0
C      1  0.5632790000000  0.4590130000000  0.4972380000000 1.0
C      1  0.4774850000000  0.4371270000000  0.4965080000000 1.0
C      1  0.5756280000000  0.4641900000000  0.4739390000000 1.0
C      1  0.4917600000000  0.5800280000000  0.4786180000000 1.0
C      1  0.4665430000000  0.4431470000000  0.5219230000000 1.0
C      1  0.4434170000000  0.4568950000000  0.4730620000000 1.0
C      1  0.5130600000000  0.4745380000000  0.4371300000000 1.0
C      1  0.5600870000000  0.5185010000000  0.4824750000000 1.0
C      1  0.4410840000000  0.4755140000000  0.4956430000000 1.0
C      1  0.4744670000000  0.5607230000000  0.4656380000000 1.0
C      1  0.5624560000000  0.4791530000000  0.5189120000000 1.0
C      1  0.5126980000000  0.5145490000000  0.5470260000000 1.0
C      1  0.4368530000000  0.5025610000000  0.4853610000000 1.0
C      1  0.4882700000000  0.5168830000000  0.4440370000000 1.0
C      1  0.4893060000000  0.5465110000000  0.4451600000000 1.0
C      1  0.5129630000000  0.5022740000000  0.4323530000000 1.0
C      1  0.4624110000000  0.4356920000000  0.4728800000000 1.0
C      1  0.5460700000000  0.4667550000000  0.5389780000000 1.0
C      1  0.4875050000000  0.5318800000000  0.5553480000000 1.0
C      1  0.5225690000000  0.4429130000000  0.4740450000000 1.0
C      1  0.4995260000000  0.5120370000000  0.4980270000000 1.0
C      1  0.5060580000000  0.4241740000000  0.4598180000000 1.0
C      1  0.4875900000000  0.4761530000000  0.4705240000000 1.0
C      1  0.5329780000000  0.4619820000000  0.4521700000000 1.0
C      1  0.5193990000000  0.5607630000000  0.5374200000000 1.0
C      1  0.5631560000000  0.5061600000000  0.5093620000000 1.0
C      1  0.4888630000000  0.5373970000000  0.5008890000000 1.0
C      1  0.4990690000000  0.4580560000000  0.4893070000000 1.0
C      1  0.4830390000000  0.5198350000000  0.5842250000000 1.0
C      1  0.4426970000000  0.5274290000000  0.4980970000000 1.0
C      1  0.4626210000000  0.4762110000000  0.4318800000000 1.0
C      1  0.4862590000000  0.4636140000000  0.4424080000000 1.0
C      1  0.5156680000000  0.5579680000000  0.4438490000000 1.0
C      1  0.5550690000000  0.5059340000000  0.4573150000000 1.0
C      1  0.4826900000000  0.4350290000000  0.4515120000000 1.0
C      1  0.5518360000000  0.5441610000000  0.4946330000000 1.0
C      1  0.5288090000000  0.4471190000000  0.5243040000000 1.0
C      1  0.4718680000000  0.4795170000000  0.5618340000000 1.0
C      1  0.5529380000000  0.5310590000000  0.5206040000000 1.0
C      1  0.4548240000000  0.4697990000000  0.5195190000000 1.0
C      1  0.4624410000000  0.5046480000000  0.4382340000000 1.0
C      1  0.4610280000000  0.5180270000000  0.5448530000000 1.0
C      1  0.5008720000000  0.4949350000000  0.5223870000000 1.0
C      1  0.4401440000000  0.4999590000000  0.4567720000000 1.0
C      1  0.5061140000000  0.5060820000000  0.5932090000000 1.0
C      1  0.4709940000000  0.4900820000000  0.5339790000000 1.0
C      1  0.4926580000000  0.5589190000000  0.5466700000000 1.0
C      1  0.5358690000000  0.5441460000000  0.4317220000000 1.0
C      1  0.5181410000000  0.5739010000000  0.4684390000000 1.0
C      1  0.5317830000000  0.4720080000000  0.5634620000000 1.0
C      1  0.4930160000000  0.5833080000000  0.5071790000000 1.0
C      1  0.5128230000000  0.4507410000000  0.5676260000000 1.0
END
