TITL C-149900-8936-3 -85.8439179150089 125000 -544.272652158421 0 0 79 (C1) n - 1
REM
REM in /rds/project/t2_vol4/rds-t2-cs072/BORA/CARBON/from-Arr/AIRSS/Generating-Clusters/GAP-ML-2020/Only-C1/SD-CG/HFTN-CG
REM
REM
REM
REM
REM
REM ./C.cell (11c1c37f851c82e70ff6c80c92926a4b)
REM AIRSS Version 0.9.1 bugfix July 2018 build 013d7b7c2542+ Fri, 06 Jul 2018 19:26:36 +0100
REM compiler GCC version 9.3.0
REM options -cpp -mtune=generic -march=x86-64 -g -O0
REM seed -59680517 1830928137 437311045 -191981179 1015735472 -1278931061 1246548910 196133929 368915877 1664255363 -2118763480 484566123 1428371862 263292893 2042765251 -430627244 492949282 -1134708689 2072824080 -44503344 2039562340 1373618684 965173141 244274625 -489894430 535591628 1299001782 1948841209 282922396 -359272267 -2003835615 -1291416086 -456571317
REM
CELL 1.54180   50.00000   50.00000   50.00000   90.00000   90.00000   90.00000
LATT -1
SFAC C  
C      1  0.5134030000000  0.5074570000000  0.4677170000000 1.0
C      1  0.4752200000000  0.5146400000000  0.4132790000000 1.0
C      1  0.4583340000000  0.5456680000000  0.5508050000000 1.0
C      1  0.4909570000000  0.4546700000000  0.5608470000000 1.0
C      1  0.5201790000000  0.5693230000000  0.4547230000000 1.0
C      1  0.4489540000000  0.5089590000000  0.4548190000000 1.0
C      1  0.4880300000000  0.4884300000000  0.5168550000000 1.0
C      1  0.4781500000000  0.5478970000000  0.4459670000000 1.0
C      1  0.5378710000000  0.4430560000000  0.5244020000000 1.0
C      1  0.4524300000000  0.4407380000000  0.4578480000000 1.0
C      1  0.4673780000000  0.4993530000000  0.5633020000000 1.0
C      1  0.5565650000000  0.4903620000000  0.4560860000000 1.0
C      1  0.4642900000000  0.4962860000000  0.4297840000000 1.0
C      1  0.5748350000000  0.5336860000000  0.4640140000000 1.0
C      1  0.4651560000000  0.4809370000000  0.5022230000000 1.0
C      1  0.5419930000000  0.5692500000000  0.4737370000000 1.0
C      1  0.5316610000000  0.4921270000000  0.5130930000000 1.0
C      1  0.4944130000000  0.5184990000000  0.5096910000000 1.0
C      1  0.4632480000000  0.4340260000000  0.5276010000000 1.0
C      1  0.4539890000000  0.5377860000000  0.4572420000000 1.0
C      1  0.4988390000000  0.4416400000000  0.4677710000000 1.0
C      1  0.4916850000000  0.4890160000000  0.4654530000000 1.0
C      1  0.4874580000000  0.5710510000000  0.4896090000000 1.0
C      1  0.5074480000000  0.4683900000000  0.4782320000000 1.0
C      1  0.5530930000000  0.4616260000000  0.4604860000000 1.0
C      1  0.4563000000000  0.5620010000000  0.5284050000000 1.0
C      1  0.4286390000000  0.5020750000000  0.4763990000000 1.0
C      1  0.5373180000000  0.5642630000000  0.5010330000000 1.0
C      1  0.4928570000000  0.5311580000000  0.4271640000000 1.0
C      1  0.5663810000000  0.4456300000000  0.4793130000000 1.0
C      1  0.4676900000000  0.4980180000000  0.4782030000000 1.0
C      1  0.5406530000000  0.4592700000000  0.5479100000000 1.0
C      1  0.4674000000000  0.4248680000000  0.5009430000000 1.0
C      1  0.5034020000000  0.5433770000000  0.5245340000000 1.0
C      1  0.4729810000000  0.5227800000000  0.4912860000000 1.0
C      1  0.5603250000000  0.5085020000000  0.5486530000000 1.0
C      1  0.5089740000000  0.4392050000000  0.5172930000000 1.0
C      1  0.5637040000000  0.4793580000000  0.5145360000000 1.0
C      1  0.4379200000000  0.4784280000000  0.5152840000000 1.0
C      1  0.5729460000000  0.5080400000000  0.4743040000000 1.0
C      1  0.5312310000000  0.5064620000000  0.5404420000000 1.0
C      1  0.4245110000000  0.4756290000000  0.4880510000000 1.0
C      1  0.5686260000000  0.5236970000000  0.5229790000000 1.0
C      1  0.4316000000000  0.4512540000000  0.4754830000000 1.0
C      1  0.5492530000000  0.5451410000000  0.5199790000000 1.0
C      1  0.4500340000000  0.5420620000000  0.4864510000000 1.0
C      1  0.4409510000000  0.4585010000000  0.5615250000000 1.0
C      1  0.5222910000000  0.5267660000000  0.4303830000000 1.0
C      1  0.5090860000000  0.5654800000000  0.5068730000000 1.0
C      1  0.5002570000000  0.5358970000000  0.5771810000000 1.0
C      1  0.4430150000000  0.4548850000000  0.5344900000000 1.0
C      1  0.5525670000000  0.5256570000000  0.5728420000000 1.0
C      1  0.5164180000000  0.4666340000000  0.5615130000000 1.0
C      1  0.5344740000000  0.5507940000000  0.4375810000000 1.0
C      1  0.4365910000000  0.5073270000000  0.5235910000000 1.0
C      1  0.5589320000000  0.4519300000000  0.5049480000000 1.0
C      1  0.5612020000000  0.4794180000000  0.5436650000000 1.0
C      1  0.4503450000000  0.5167710000000  0.5471940000000 1.0
C      1  0.4944130000000  0.4280540000000  0.4934850000000 1.0
C      1  0.4931580000000  0.5664110000000  0.4619010000000 1.0
C      1  0.5199690000000  0.5127580000000  0.4944820000000 1.0
C      1  0.5152080000000  0.4941310000000  0.5623740000000 1.0
C      1  0.4462400000000  0.4285510000000  0.4822460000000 1.0
C      1  0.5275200000000  0.5370110000000  0.5386330000000 1.0
C      1  0.4658590000000  0.4705790000000  0.5649060000000 1.0
C      1  0.4325500000000  0.5209960000000  0.4976570000000 1.0
C      1  0.4890150000000  0.4366240000000  0.5392200000000 1.0
C      1  0.4611470000000  0.5645220000000  0.5019280000000 1.0
C      1  0.5106280000000  0.4715510000000  0.5076560000000 1.0
C      1  0.5311110000000  0.5004980000000  0.4428620000000 1.0
C      1  0.5756500000000  0.5040310000000  0.5033270000000 1.0
C      1  0.4780350000000  0.5501600000000  0.5713690000000 1.0
C      1  0.5581530000000  0.5519740000000  0.4554190000000 1.0
C      1  0.4931180000000  0.5088100000000  0.5707700000000 1.0
C      1  0.4779350000000  0.4484140000000  0.4491340000000 1.0
C      1  0.5300330000000  0.5404620000000  0.5691210000000 1.0
C      1  0.5156010000000  0.4755620000000  0.4344720000000 1.0
C      1  0.4854940000000  0.4751410000000  0.4385710000000 1.0
C      1  0.5247090000000  0.4576100000000  0.4544470000000 1.0
END
