TITL C-141698-1619-11 86.3451238404472 125000 -155.605539059383 0 0 24 (C1) n - 1
REM
REM in /rds/project/t2_vol4/rds-t2-cs072/BORA/CARBON/from-Arr/AIRSS/Generating-Clusters/GAP-ML-2020/Only-C1/SD-CG/HFTN-CG
REM
REM
REM
REM
REM
REM ./C.cell (11c1c37f851c82e70ff6c80c92926a4b)
REM AIRSS Version 0.9.1 bugfix July 2018 build 013d7b7c2542+ Fri, 06 Jul 2018 19:26:36 +0100
REM compiler GCC version 9.3.0
REM options -cpp -mtune=generic -march=x86-64 -g -O0
REM seed -478870243 -1345194382 -319343774 2132091704 -1750011050 -270676439 2027060964 802888833 -59158908 397479031 -414682493 670488843 -1614887184 489292773 -358614124 1013953278 1278577883 1205929146 898527152 -1132022745 -654563100 965583497 -1683141338 -93308493 1282991376 -1620311131 1658846764 510083490 -1956056797 1881315444 693798660 757781768 447205058
REM
CELL 1.54180   50.00000   50.00000   50.00000   90.00000   90.00000   90.00000
LATT -1
SFAC C  
C      1  0.5395920000000  0.5335950000000  0.5202430000000 1.0
C      1  0.4981350000000  0.5323470000000  0.4626450000000 1.0
C      1  0.4618640000000  0.4793020000000  0.4512200000000 1.0
C      1  0.5411930000000  0.5094470000000  0.4872430000000 1.0
C      1  0.4598890000000  0.5033430000000  0.4593730000000 1.0
C      1  0.4814510000000  0.4622260000000  0.4578040000000 1.0
C      1  0.5029750000000  0.4321980000000  0.5333860000000 1.0
C      1  0.4700290000000  0.5260520000000  0.4704400000000 1.0
C      1  0.5127900000000  0.4540190000000  0.5173810000000 1.0
C      1  0.4524660000000  0.5237880000000  0.5200820000000 1.0
C      1  0.5126620000000  0.5301180000000  0.5264530000000 1.0
C      1  0.4955920000000  0.5430570000000  0.5076940000000 1.0
C      1  0.4812050000000  0.5005830000000  0.5490360000000 1.0
C      1  0.5095120000000  0.5483280000000  0.4820810000000 1.0
C      1  0.4837680000000  0.4399640000000  0.5165870000000 1.0
C      1  0.5027710000000  0.4567640000000  0.4701230000000 1.0
C      1  0.5063340000000  0.5023330000000  0.5379080000000 1.0
C      1  0.5332990000000  0.4845810000000  0.4982350000000 1.0
C      1  0.5249740000000  0.5273780000000  0.4706290000000 1.0
C      1  0.5210610000000  0.4811360000000  0.5244280000000 1.0
C      1  0.5222280000000  0.4585910000000  0.4891070000000 1.0
C      1  0.4688270000000  0.5334530000000  0.5002060000000 1.0
C      1  0.5589060000000  0.5256430000000  0.5049350000000 1.0
C      1  0.4584760000000  0.5117530000000  0.5427620000000 1.0
END
