TITL C-147436-6693-10 -0.129259908874753 125000 -502.529303368315 0 0 72 (C1) n - 1
REM
REM in /rds/project/t2_vol4/rds-t2-cs072/BORA/CARBON/from-Arr/AIRSS/Generating-Clusters/GAP-ML-2020/Only-C1/SD-CG/HFTN-CG
REM
REM
REM
REM
REM
REM ./C.cell (11c1c37f851c82e70ff6c80c92926a4b)
REM AIRSS Version 0.9.1 bugfix July 2018 build 013d7b7c2542+ Fri, 06 Jul 2018 19:26:36 +0100
REM compiler GCC version 9.3.0
REM options -cpp -mtune=generic -march=x86-64 -g -O0
REM seed 396719065 1390150189 953238414 1055628059 437391464 1116274861 -834478121 1522063624 -564739389 -556273145 507235584 -855156514 -415839298 783073916 933908339 1183988799 -2033032350 491294285 16354323 2111877162 -677533546 -912164877 -628815302 -296424228 292236496 1033641762 -439927041 -685441960 -2061884627 17600654 -287128663 -961351646 761838893
REM
CELL 1.54180   50.00000   50.00000   50.00000   90.00000   90.00000   90.00000
LATT -1
SFAC C  
C      1  0.5587420000000  0.5191900000000  0.5124540000000 1.0
C      1  0.4691840000000  0.4505030000000  0.5582160000000 1.0
C      1  0.5492130000000  0.4748370000000  0.4535450000000 1.0
C      1  0.5557150000000  0.4562220000000  0.4959980000000 1.0
C      1  0.4640960000000  0.5461000000000  0.5406350000000 1.0
C      1  0.4277380000000  0.4963040000000  0.4914820000000 1.0
C      1  0.5428250000000  0.4367070000000  0.4814010000000 1.0
C      1  0.5094400000000  0.5429990000000  0.5584140000000 1.0
C      1  0.5187380000000  0.5216170000000  0.4755490000000 1.0
C      1  0.5443120000000  0.4976370000000  0.4359360000000 1.0
C      1  0.5025070000000  0.4459240000000  0.4576280000000 1.0
C      1  0.5272670000000  0.5415430000000  0.4346780000000 1.0
C      1  0.4607310000000  0.4445130000000  0.5123970000000 1.0
C      1  0.5007890000000  0.5292850000000  0.4297410000000 1.0
C      1  0.4879330000000  0.4677710000000  0.4732810000000 1.0
C      1  0.4569440000000  0.4599410000000  0.4386890000000 1.0
C      1  0.5430150000000  0.5442580000000  0.5197960000000 1.0
C      1  0.5282070000000  0.4340240000000  0.5289130000000 1.0
C      1  0.4848280000000  0.4713570000000  0.5702840000000 1.0
C      1  0.4811880000000  0.5472850000000  0.4393800000000 1.0
C      1  0.4767600000000  0.4889600000000  0.4506480000000 1.0
C      1  0.4370160000000  0.4797220000000  0.5399220000000 1.0
C      1  0.4390610000000  0.5327530000000  0.4699790000000 1.0
C      1  0.5013660000000  0.4729820000000  0.5213220000000 1.0
C      1  0.5263580000000  0.5622210000000  0.5045870000000 1.0
C      1  0.4359460000000  0.5072920000000  0.5382180000000 1.0
C      1  0.5167370000000  0.4298540000000  0.4798450000000 1.0
C      1  0.4637390000000  0.4618620000000  0.4898460000000 1.0
C      1  0.4546580000000  0.4875180000000  0.4951030000000 1.0
C      1  0.4914140000000  0.5565290000000  0.5422760000000 1.0
C      1  0.5121330000000  0.4600690000000  0.5690520000000 1.0
C      1  0.4578040000000  0.5203250000000  0.5516540000000 1.0
C      1  0.4828410000000  0.4273170000000  0.5192720000000 1.0
C      1  0.5599960000000  0.4801520000000  0.4794900000000 1.0
C      1  0.5516970000000  0.4745700000000  0.5430290000000 1.0
C      1  0.4354060000000  0.5395180000000  0.4994050000000 1.0
C      1  0.5357180000000  0.5414610000000  0.5473580000000 1.0
C      1  0.4817320000000  0.5015680000000  0.5617390000000 1.0
C      1  0.5040690000000  0.5175950000000  0.5720620000000 1.0
C      1  0.5617330000000  0.5534510000000  0.4743710000000 1.0
C      1  0.5376940000000  0.5658150000000  0.4776200000000 1.0
C      1  0.4765390000000  0.4421170000000  0.4415890000000 1.0
C      1  0.5580810000000  0.5025630000000  0.5364720000000 1.0
C      1  0.5245730000000  0.4617930000000  0.4447490000000 1.0
C      1  0.5191880000000  0.4857370000000  0.4292040000000 1.0
C      1  0.4724340000000  0.5103610000000  0.4938400000000 1.0
C      1  0.4583480000000  0.5493120000000  0.4577930000000 1.0
C      1  0.5644760000000  0.5283610000000  0.4650390000000 1.0
C      1  0.5343200000000  0.4763090000000  0.5667580000000 1.0
C      1  0.5648780000000  0.5082110000000  0.4862920000000 1.0
C      1  0.5068020000000  0.4783050000000  0.4937660000000 1.0
C      1  0.4328820000000  0.5043730000000  0.4649180000000 1.0
C      1  0.4265690000000  0.5165060000000  0.5121250000000 1.0
C      1  0.4961330000000  0.5007280000000  0.4318040000000 1.0
C      1  0.5294790000000  0.5037300000000  0.5733610000000 1.0
C      1  0.5475960000000  0.5181870000000  0.5575520000000 1.0
C      1  0.4752140000000  0.5682540000000  0.5015130000000 1.0
C      1  0.5019720000000  0.5074580000000  0.4907790000000 1.0
C      1  0.4892030000000  0.5162420000000  0.5153440000000 1.0
C      1  0.5229680000000  0.5640770000000  0.4526830000000 1.0
C      1  0.5129080000000  0.4364090000000  0.5531010000000 1.0
C      1  0.4933300000000  0.4960300000000  0.5337270000000 1.0
C      1  0.4477810000000  0.4860380000000  0.4466210000000 1.0
C      1  0.5500110000000  0.5242740000000  0.4397870000000 1.0
C      1  0.4955220000000  0.5679330000000  0.4543960000000 1.0
C      1  0.4741020000000  0.5684860000000  0.4735970000000 1.0
C      1  0.4999510000000  0.5673540000000  0.5162470000000 1.0
C      1  0.5091750000000  0.4262570000000  0.5071250000000 1.0
C      1  0.5496140000000  0.4530340000000  0.5241640000000 1.0
C      1  0.4490850000000  0.4560990000000  0.5380140000000 1.0
C      1  0.4861160000000  0.4304440000000  0.5472610000000 1.0
C      1  0.4534620000000  0.5554680000000  0.5151640000000 1.0
END
