TITL C-141694-1565-3 -0.185676715464736 125000 -902.474137766958 0 0 131 (C1) n - 1
REM
REM in /rds/project/t2_vol4/rds-t2-cs072/BORA/CARBON/from-Arr/AIRSS/Generating-Clusters/GAP-ML-2020/Only-C1/SD-CG/HFTN-CG
REM
REM
REM
REM
REM
REM ./C.cell (11c1c37f851c82e70ff6c80c92926a4b)
REM AIRSS Version 0.9.1 bugfix July 2018 build 013d7b7c2542+ Fri, 06 Jul 2018 19:26:36 +0100
REM compiler GCC version 9.3.0
REM options -cpp -mtune=generic -march=x86-64 -g -O0
REM seed 1809705793 357422075 -1381122089 403003270 182501905 -1911310550 -1677429032 2145621089 1403614613 -298895328 1571897715 832475686 361493420 156279474 1608734510 -1658521652 -1952584013 821443075 601217846 -136960907 -1231785276 1765010791 1479182910 1373581743 -1720991812 -1575200712 -333199717 -1621404163 1523819493 -1071767612 1030350507 -787145833 454710314
REM
CELL 1.54180   50.00000   50.00000   50.00000   90.00000   90.00000   90.00000
LATT -1
SFAC C  
C      1  0.4838910000000  0.4415600000000  0.5766230000000 1.0
C      1  0.5134730000000  0.4430390000000  0.4744880000000 1.0
C      1  0.4816190000000  0.4675600000000  0.5871670000000 1.0
C      1  0.4534800000000  0.5555300000000  0.5489290000000 1.0
C      1  0.4428420000000  0.4604190000000  0.4993420000000 1.0
C      1  0.4868010000000  0.4478600000000  0.4322340000000 1.0
C      1  0.4444210000000  0.4724530000000  0.4325160000000 1.0
C      1  0.4063900000000  0.4999210000000  0.4626690000000 1.0
C      1  0.4864220000000  0.5578010000000  0.5051370000000 1.0
C      1  0.4001270000000  0.4615610000000  0.4929010000000 1.0
C      1  0.5651850000000  0.5082310000000  0.5824680000000 1.0
C      1  0.5237380000000  0.5360530000000  0.5236160000000 1.0
C      1  0.5616250000000  0.4765550000000  0.4776480000000 1.0
C      1  0.4241270000000  0.4682670000000  0.5382220000000 1.0
C      1  0.5829630000000  0.5418410000000  0.5348360000000 1.0
C      1  0.4615450000000  0.4695500000000  0.5216230000000 1.0
C      1  0.4185770000000  0.4489920000000  0.5139150000000 1.0
C      1  0.5430250000000  0.5349070000000  0.4190270000000 1.0
C      1  0.5014380000000  0.5177450000000  0.5129180000000 1.0
C      1  0.5146120000000  0.5289150000000  0.4692640000000 1.0
C      1  0.4705230000000  0.5429670000000  0.4219520000000 1.0
C      1  0.4281640000000  0.4985810000000  0.5351880000000 1.0
C      1  0.4094540000000  0.5110900000000  0.5133390000000 1.0
C      1  0.5808440000000  0.4473860000000  0.5072700000000 1.0
C      1  0.4755530000000  0.5466940000000  0.5313180000000 1.0
C      1  0.4582270000000  0.5007310000000  0.4912330000000 1.0
C      1  0.5351670000000  0.4903810000000  0.5538300000000 1.0
C      1  0.5199380000000  0.5506140000000  0.4233690000000 1.0
C      1  0.5229630000000  0.4237480000000  0.5505430000000 1.0
C      1  0.5530210000000  0.4207370000000  0.4972070000000 1.0
C      1  0.4916710000000  0.5334930000000  0.4897340000000 1.0
C      1  0.5566970000000  0.5712350000000  0.4814900000000 1.0
C      1  0.4280980000000  0.5270800000000  0.4321120000000 1.0
C      1  0.4629890000000  0.5742490000000  0.4915160000000 1.0
C      1  0.4787140000000  0.6002630000000  0.5199410000000 1.0
C      1  0.5070940000000  0.5084250000000  0.4506490000000 1.0
C      1  0.5914480000000  0.5249730000000  0.5561050000000 1.0
C      1  0.4817130000000  0.4047340000000  0.4894570000000 1.0
C      1  0.4318030000000  0.4221470000000  0.5123710000000 1.0
C      1  0.5465730000000  0.4886470000000  0.4285890000000 1.0
C      1  0.5286860000000  0.4696590000000  0.4725070000000 1.0
C      1  0.4673610000000  0.5606670000000  0.4450770000000 1.0
C      1  0.5353110000000  0.5128530000000  0.4854890000000 1.0
C      1  0.4667670000000  0.4376090000000  0.5550980000000 1.0
C      1  0.4951430000000  0.5911510000000  0.5425710000000 1.0
C      1  0.4527350000000  0.5873750000000  0.5163890000000 1.0
C      1  0.4515660000000  0.5532100000000  0.4706650000000 1.0
C      1  0.4135720000000  0.5604800000000  0.5204580000000 1.0
C      1  0.4573280000000  0.4286660000000  0.4578550000000 1.0
C      1  0.4592820000000  0.4486200000000  0.4372050000000 1.0
C      1  0.4852400000000  0.4840590000000  0.4809140000000 1.0
C      1  0.5041200000000  0.4131700000000  0.5311670000000 1.0
C      1  0.4350830000000  0.5723490000000  0.5330750000000 1.0
C      1  0.5155580000000  0.5039760000000  0.5929260000000 1.0
C      1  0.4672570000000  0.5244080000000  0.4761060000000 1.0
C      1  0.4516000000000  0.5337260000000  0.5689220000000 1.0
C      1  0.5836690000000  0.4962000000000  0.5194600000000 1.0
C      1  0.4576030000000  0.4995400000000  0.5201060000000 1.0
C      1  0.4617680000000  0.4837100000000  0.5673690000000 1.0
C      1  0.5784610000000  0.5279790000000  0.4820040000000 1.0
C      1  0.5732390000000  0.4832570000000  0.5678400000000 1.0
C      1  0.4511160000000  0.4620680000000  0.5495670000000 1.0
C      1  0.5410240000000  0.5666640000000  0.5528800000000 1.0
C      1  0.6027390000000  0.4640790000000  0.4510490000000 1.0
C      1  0.4065990000000  0.4551210000000  0.4669240000000 1.0
C      1  0.5758660000000  0.5238310000000  0.5118940000000 1.0
C      1  0.5097730000000  0.4828300000000  0.5453810000000 1.0
C      1  0.5365930000000  0.5136610000000  0.5732120000000 1.0
C      1  0.4967400000000  0.5384960000000  0.4109470000000 1.0
C      1  0.5024200000000  0.4279100000000  0.4476160000000 1.0
C      1  0.5138320000000  0.4895490000000  0.4949680000000 1.0
C      1  0.5029000000000  0.5910320000000  0.4709140000000 1.0
C      1  0.4921960000000  0.5731240000000  0.4513610000000 1.0
C      1  0.5274480000000  0.4571080000000  0.5839380000000 1.0
C      1  0.5273340000000  0.5726060000000  0.4761540000000 1.0
C      1  0.5241970000000  0.5883280000000  0.5440730000000 1.0
C      1  0.5589720000000  0.5772180000000  0.5102090000000 1.0
C      1  0.4806900000000  0.4119200000000  0.4613170000000 1.0
C      1  0.5859440000000  0.5265890000000  0.5831960000000 1.0
C      1  0.5497810000000  0.4644330000000  0.5638200000000 1.0
C      1  0.4418630000000  0.5067910000000  0.5634050000000 1.0
C      1  0.4066250000000  0.4919760000000  0.4916620000000 1.0
C      1  0.5050310000000  0.5112460000000  0.4038390000000 1.0
C      1  0.4814280000000  0.5029690000000  0.4585570000000 1.0
C      1  0.4507650000000  0.5215290000000  0.4190840000000 1.0
C      1  0.5262530000000  0.4196320000000  0.4896570000000 1.0
C      1  0.4120380000000  0.5390040000000  0.5030900000000 1.0
C      1  0.5112620000000  0.4718000000000  0.5199460000000 1.0
C      1  0.4919010000000  0.5136600000000  0.5826660000000 1.0
C      1  0.4144790000000  0.5258880000000  0.4554220000000 1.0
C      1  0.5639420000000  0.5080220000000  0.4430620000000 1.0
C      1  0.5622070000000  0.5048280000000  0.4709640000000 1.0
C      1  0.4843360000000  0.5672850000000  0.5538350000000 1.0
C      1  0.4988270000000  0.5497630000000  0.5707720000000 1.0
C      1  0.4769950000000  0.5357830000000  0.5826060000000 1.0
C      1  0.5339570000000  0.5090830000000  0.4098150000000 1.0
C      1  0.5625140000000  0.4316020000000  0.5234240000000 1.0
C      1  0.4869570000000  0.4988540000000  0.5555690000000 1.0
C      1  0.4865690000000  0.4897930000000  0.4092150000000 1.0
C      1  0.5162770000000  0.5557150000000  0.4524280000000 1.0
C      1  0.4863720000000  0.4542310000000  0.4856390000000 1.0
C      1  0.5085520000000  0.4761480000000  0.5941070000000 1.0
C      1  0.5255210000000  0.5405320000000  0.5579800000000 1.0
C      1  0.5771850000000  0.4747500000000  0.5028270000000 1.0
C      1  0.5213200000000  0.4824500000000  0.4445540000000 1.0
C      1  0.5655790000000  0.5646220000000  0.5354120000000 1.0
C      1  0.5170350000000  0.5638940000000  0.5047040000000 1.0
C      1  0.5245690000000  0.4199430000000  0.4290000000000 1.0
C      1  0.5701170000000  0.5495160000000  0.4657030000000 1.0
C      1  0.4233730000000  0.4763760000000  0.4541100000000 1.0
C      1  0.5453030000000  0.5237190000000  0.5100140000000 1.0
C      1  0.5568820000000  0.4597890000000  0.4313000000000 1.0
C      1  0.4362490000000  0.4831720000000  0.4831630000000 1.0
C      1  0.5424380000000  0.4376870000000  0.4236330000000 1.0
C      1  0.5005360000000  0.4701930000000  0.4243240000000 1.0
C      1  0.5326860000000  0.5860930000000  0.5175760000000 1.0
C      1  0.4230060000000  0.5442510000000  0.4754260000000 1.0
C      1  0.5118190000000  0.4351610000000  0.5740550000000 1.0
C      1  0.4796230000000  0.5161460000000  0.5323600000000 1.0
C      1  0.4877090000000  0.4560100000000  0.5152580000000 1.0
C      1  0.5889150000000  0.4957130000000  0.5470020000000 1.0
C      1  0.5756720000000  0.4571570000000  0.4570360000000 1.0
C      1  0.5484120000000  0.4380570000000  0.5468250000000 1.0
C      1  0.5630920000000  0.5361960000000  0.4398790000000 1.0
C      1  0.5736020000000  0.4345960000000  0.4825670000000 1.0
C      1  0.4603980000000  0.4183410000000  0.5067000000000 1.0
C      1  0.4581230000000  0.4401310000000  0.4845670000000 1.0
C      1  0.4833660000000  0.5972460000000  0.4900860000000 1.0
C      1  0.4787550000000  0.4277200000000  0.5300680000000 1.0
C      1  0.5064270000000  0.4056490000000  0.5035060000000 1.0
C      1  0.4586710000000  0.4931280000000  0.4162210000000 1.0
END
