TITL C-142776-1195-7 9.03085572645163 125000 -887.436161480677 0 0 127 (C1) n - 1
REM
REM in /rds/project/t2_vol4/rds-t2-cs072/BORA/CARBON/from-Arr/AIRSS/Generating-Clusters/GAP-ML-2020/Only-C1/SD-CG/HFTN-CG
REM
REM
REM
REM
REM
REM ./C.cell (11c1c37f851c82e70ff6c80c92926a4b)
REM AIRSS Version 0.9.1 bugfix July 2018 build 013d7b7c2542+ Fri, 06 Jul 2018 19:26:36 +0100
REM compiler GCC version 9.3.0
REM options -cpp -mtune=generic -march=x86-64 -g -O0
REM seed 1402965865 1121656953 1524976900 -1287425902 -1260878429 -1244691284 -972843234 979240758 -182253406 1972254138 2046650228 -1467721200 1923115368 -1219220704 894379069 350896450 117901362 -475045348 -1547627241 -411269963 808799240 -2001121732 -1222860792 770297074 394423809 -1756133569 -108278505 778955803 -310252882 1573452916 -1309231783 686759675 1551489103
REM
CELL 1.54180   50.00000   50.00000   50.00000   90.00000   90.00000   90.00000
LATT -1
SFAC C  
C      1  0.4251080000000  0.5238950000000  0.4371170000000 1.0
C      1  0.4542720000000  0.5652620000000  0.5425940000000 1.0
C      1  0.4711620000000  0.5470590000000  0.5015060000000 1.0
C      1  0.5430910000000  0.4210080000000  0.5404710000000 1.0
C      1  0.5410750000000  0.4939680000000  0.4837500000000 1.0
C      1  0.4524760000000  0.5251010000000  0.5676740000000 1.0
C      1  0.4686230000000  0.4132610000000  0.4980300000000 1.0
C      1  0.5446320000000  0.5764930000000  0.5166580000000 1.0
C      1  0.4667810000000  0.5432330000000  0.4726240000000 1.0
C      1  0.5172460000000  0.5318480000000  0.5073620000000 1.0
C      1  0.5660820000000  0.5613650000000  0.5311860000000 1.0
C      1  0.4467500000000  0.4552780000000  0.5465440000000 1.0
C      1  0.4710110000000  0.4211430000000  0.4475420000000 1.0
C      1  0.4321900000000  0.5679140000000  0.4580230000000 1.0
C      1  0.4497310000000  0.5291870000000  0.4234630000000 1.0
C      1  0.4815970000000  0.4690050000000  0.5824600000000 1.0
C      1  0.4858500000000  0.5131500000000  0.5989750000000 1.0
C      1  0.4576490000000  0.5881100000000  0.4913850000000 1.0
C      1  0.5842160000000  0.5418330000000  0.5221140000000 1.0
C      1  0.4523590000000  0.4406920000000  0.4377670000000 1.0
C      1  0.5316580000000  0.5177750000000  0.5501090000000 1.0
C      1  0.5814720000000  0.5144220000000  0.5355160000000 1.0
C      1  0.5719140000000  0.4846590000000  0.5711740000000 1.0
C      1  0.4253160000000  0.4696240000000  0.5315340000000 1.0
C      1  0.5826570000000  0.4771650000000  0.4600440000000 1.0
C      1  0.5528330000000  0.4649670000000  0.5610160000000 1.0
C      1  0.5104330000000  0.5279460000000  0.5349400000000 1.0
C      1  0.5200680000000  0.4231200000000  0.4495990000000 1.0
C      1  0.4031850000000  0.5284910000000  0.4812350000000 1.0
C      1  0.4109080000000  0.5398150000000  0.5075790000000 1.0
C      1  0.4823580000000  0.5129160000000  0.5354110000000 1.0
C      1  0.5255950000000  0.5809770000000  0.5376460000000 1.0
C      1  0.5976460000000  0.5092730000000  0.4922480000000 1.0
C      1  0.5024830000000  0.4701610000000  0.4737890000000 1.0
C      1  0.5138070000000  0.5063400000000  0.5948670000000 1.0
C      1  0.5311320000000  0.4996390000000  0.4560480000000 1.0
C      1  0.5273730000000  0.4579310000000  0.5777210000000 1.0
C      1  0.5343860000000  0.4788150000000  0.4119680000000 1.0
C      1  0.5588510000000  0.5569310000000  0.5588370000000 1.0
C      1  0.4924310000000  0.4471420000000  0.4153050000000 1.0
C      1  0.4835920000000  0.4534450000000  0.4837410000000 1.0
C      1  0.4310900000000  0.5808460000000  0.4821180000000 1.0
C      1  0.4923590000000  0.4929160000000  0.4021160000000 1.0
C      1  0.4960920000000  0.4258790000000  0.4347400000000 1.0
C      1  0.4436350000000  0.5276250000000  0.4732510000000 1.0
C      1  0.4746000000000  0.5168380000000  0.5079960000000 1.0
C      1  0.5365120000000  0.5761960000000  0.4877080000000 1.0
C      1  0.5340620000000  0.5699770000000  0.5624210000000 1.0
C      1  0.4959700000000  0.5418880000000  0.4243540000000 1.0
C      1  0.4109350000000  0.4821020000000  0.4637420000000 1.0
C      1  0.4908130000000  0.4627430000000  0.5294060000000 1.0
C      1  0.4666610000000  0.4234450000000  0.5271830000000 1.0
C      1  0.4778190000000  0.5834520000000  0.4708800000000 1.0
C      1  0.4551810000000  0.4182330000000  0.4732480000000 1.0
C      1  0.5906450000000  0.4942070000000  0.5151790000000 1.0
C      1  0.5032970000000  0.4863310000000  0.4513940000000 1.0
C      1  0.4990630000000  0.5595320000000  0.5041980000000 1.0
C      1  0.5474740000000  0.5205820000000  0.4405500000000 1.0
C      1  0.4735300000000  0.5349500000000  0.5848490000000 1.0
C      1  0.5759450000000  0.4706830000000  0.4350680000000 1.0
C      1  0.5067450000000  0.5176580000000  0.4111640000000 1.0
C      1  0.4721880000000  0.4886140000000  0.6004080000000 1.0
C      1  0.4515710000000  0.5000910000000  0.4721840000000 1.0
C      1  0.5917700000000  0.5029900000000  0.4650930000000 1.0
C      1  0.5468830000000  0.4781240000000  0.5313970000000 1.0
C      1  0.5372160000000  0.5464480000000  0.4499190000000 1.0
C      1  0.4960820000000  0.4318200000000  0.5252010000000 1.0
C      1  0.4361800000000  0.4979680000000  0.5285710000000 1.0
C      1  0.4905170000000  0.5262760000000  0.4657990000000 1.0
C      1  0.5764310000000  0.5455890000000  0.4712160000000 1.0
C      1  0.4991190000000  0.5762830000000  0.5303310000000 1.0
C      1  0.5554730000000  0.4224160000000  0.5139830000000 1.0
C      1  0.4199100000000  0.4569670000000  0.4780120000000 1.0
C      1  0.5059270000000  0.5720470000000  0.4777180000000 1.0
C      1  0.4896710000000  0.5566830000000  0.5759490000000 1.0
C      1  0.5626170000000  0.4391600000000  0.5505030000000 1.0
C      1  0.5907120000000  0.5371390000000  0.4953310000000 1.0
C      1  0.4820850000000  0.4398280000000  0.5744260000000 1.0
C      1  0.4309340000000  0.4962730000000  0.4467290000000 1.0
C      1  0.5149790000000  0.4860790000000  0.4945880000000 1.0
C      1  0.5158420000000  0.4226980000000  0.5456520000000 1.0
C      1  0.5517710000000  0.5076900000000  0.5312090000000 1.0
C      1  0.4995810000000  0.5142540000000  0.4920880000000 1.0
C      1  0.5177890000000  0.5542960000000  0.5792000000000 1.0
C      1  0.5108210000000  0.4773660000000  0.5893700000000 1.0
C      1  0.4369130000000  0.4393000000000  0.4633690000000 1.0
C      1  0.4607000000000  0.4312280000000  0.5554240000000 1.0
C      1  0.4657740000000  0.4562580000000  0.4172660000000 1.0
C      1  0.5433250000000  0.5165420000000  0.5038340000000 1.0
C      1  0.4952790000000  0.4260930000000  0.4952140000000 1.0
C      1  0.5631720000000  0.4692960000000  0.4830300000000 1.0
C      1  0.4521200000000  0.5676720000000  0.5137700000000 1.0
C      1  0.4569710000000  0.5016680000000  0.4289940000000 1.0
C      1  0.3968630000000  0.5029360000000  0.4745730000000 1.0
C      1  0.4566490000000  0.4937590000000  0.5016900000000 1.0
C      1  0.5739870000000  0.4421010000000  0.5236110000000 1.0
C      1  0.5073190000000  0.5000220000000  0.5413300000000 1.0
C      1  0.5534840000000  0.4437490000000  0.4721100000000 1.0
C      1  0.5606090000000  0.5329720000000  0.5751520000000 1.0
C      1  0.4709150000000  0.4664600000000  0.5062100000000 1.0
C      1  0.5089730000000  0.5486960000000  0.4520040000000 1.0
C      1  0.5517560000000  0.4606650000000  0.4262360000000 1.0
C      1  0.5521190000000  0.5612750000000  0.4688630000000 1.0
C      1  0.4511030000000  0.4468670000000  0.5168000000000 1.0
C      1  0.5757640000000  0.5238470000000  0.4530010000000 1.0
C      1  0.5161400000000  0.4787300000000  0.5237280000000 1.0
C      1  0.4777760000000  0.5019460000000  0.4539610000000 1.0
C      1  0.5427980000000  0.4409500000000  0.4460300000000 1.0
C      1  0.5310790000000  0.5271440000000  0.5810080000000 1.0
C      1  0.4686240000000  0.5502520000000  0.4267850000000 1.0
C      1  0.4587870000000  0.5016640000000  0.5497570000000 1.0
C      1  0.4617840000000  0.5658500000000  0.4517470000000 1.0
C      1  0.4243390000000  0.4543630000000  0.5062720000000 1.0
C      1  0.4805620000000  0.5698350000000  0.5515630000000 1.0
C      1  0.5099570000000  0.4360550000000  0.5699030000000 1.0
C      1  0.4379990000000  0.5421630000000  0.5501370000000 1.0
C      1  0.5436320000000  0.4233020000000  0.4888830000000 1.0
C      1  0.4235860000000  0.5261330000000  0.5300820000000 1.0
C      1  0.5779920000000  0.5106140000000  0.5658860000000 1.0
C      1  0.4691800000000  0.4733630000000  0.5538860000000 1.0
C      1  0.5719030000000  0.4694560000000  0.5123370000000 1.0
C      1  0.5333810000000  0.5078020000000  0.4168740000000 1.0
C      1  0.5087320000000  0.4698900000000  0.4047980000000 1.0
C      1  0.4196350000000  0.5408520000000  0.4588020000000 1.0
C      1  0.4655800000000  0.4839730000000  0.4087670000000 1.0
C      1  0.5181230000000  0.4161490000000  0.4779670000000 1.0
C      1  0.4241230000000  0.5645690000000  0.5043320000000 1.0
END
