TITL C-149881-8958-4 40.5801912933003 125000 -593.231357914955 0 0 85 (C1) n - 1
REM
REM in /rds/project/t2_vol4/rds-t2-cs072/BORA/CARBON/from-Arr/AIRSS/Generating-Clusters/GAP-ML-2020/Only-C1/SD-CG/HFTN-CG
REM
REM
REM
REM
REM
REM ./C.cell (11c1c37f851c82e70ff6c80c92926a4b)
REM AIRSS Version 0.9.1 bugfix July 2018 build 013d7b7c2542+ Fri, 06 Jul 2018 19:26:36 +0100
REM compiler GCC version 9.3.0
REM options -cpp -mtune=generic -march=x86-64 -g -O0
REM seed -1418131573 -184270380 582873354 -404816390 1334339893 1801762086 249118919 -434539885 141026879 -2002562547 1159459925 1723920514 1295034691 -63790765 -1038973460 -1609130614 -304994407 1064477166 -461739960 -1739851904 -532439250 -69587265 1207807162 20398120 -1900310269 -1790747020 -965472742 1926653105 -1145794539 -1487223689 1874342029 1579668815 188135212
REM
CELL 1.54180   50.00000   50.00000   50.00000   90.00000   90.00000   90.00000
LATT -1
SFAC C  
C      1  0.4329940000000  0.5375130000000  0.4967440000000 1.0
C      1  0.4533840000000  0.5447850000000  0.4523920000000 1.0
C      1  0.5083910000000  0.4259270000000  0.5004880000000 1.0
C      1  0.4767340000000  0.4597750000000  0.5569570000000 1.0
C      1  0.4608970000000  0.4323720000000  0.5094240000000 1.0
C      1  0.5131460000000  0.5172380000000  0.5479410000000 1.0
C      1  0.5299390000000  0.4990290000000  0.5302790000000 1.0
C      1  0.5423040000000  0.5540580000000  0.4777660000000 1.0
C      1  0.5495480000000  0.5445880000000  0.5537190000000 1.0
C      1  0.4279960000000  0.5020030000000  0.5378120000000 1.0
C      1  0.4564820000000  0.4354500000000  0.4814050000000 1.0
C      1  0.5311870000000  0.4971200000000  0.4762970000000 1.0
C      1  0.5349870000000  0.4328260000000  0.5078950000000 1.0
C      1  0.4791620000000  0.5078050000000  0.5147210000000 1.0
C      1  0.4854690000000  0.5070170000000  0.4199630000000 1.0
C      1  0.5442460000000  0.4450700000000  0.5324330000000 1.0
C      1  0.5349920000000  0.4928830000000  0.5788940000000 1.0
C      1  0.5667280000000  0.5195930000000  0.4592060000000 1.0
C      1  0.4350430000000  0.4546110000000  0.4797130000000 1.0
C      1  0.5028040000000  0.4920680000000  0.4744010000000 1.0
C      1  0.5644320000000  0.4636970000000  0.5251510000000 1.0
C      1  0.4865040000000  0.5373250000000  0.4887620000000 1.0
C      1  0.5278790000000  0.5132190000000  0.5028250000000 1.0
C      1  0.5015830000000  0.5586370000000  0.5050470000000 1.0
C      1  0.4855510000000  0.5233240000000  0.5395780000000 1.0
C      1  0.5237930000000  0.5558010000000  0.4564190000000 1.0
C      1  0.5019620000000  0.4858760000000  0.4163380000000 1.0
C      1  0.5573750000000  0.4955370000000  0.5631810000000 1.0
C      1  0.4610900000000  0.5740720000000  0.4928210000000 1.0
C      1  0.4910910000000  0.4604530000000  0.5311610000000 1.0
C      1  0.5667120000000  0.5394470000000  0.4786000000000 1.0
C      1  0.4648730000000  0.5118420000000  0.5598580000000 1.0
C      1  0.4796360000000  0.5518860000000  0.4423180000000 1.0
C      1  0.5404560000000  0.5106020000000  0.4476720000000 1.0
C      1  0.5780790000000  0.5064580000000  0.5133110000000 1.0
C      1  0.4614600000000  0.5664100000000  0.5216360000000 1.0
C      1  0.4495840000000  0.4604580000000  0.5502040000000 1.0
C      1  0.4457060000000  0.4875410000000  0.5546490000000 1.0
C      1  0.5387820000000  0.5679060000000  0.5397510000000 1.0
C      1  0.5805940000000  0.4953440000000  0.4646290000000 1.0
C      1  0.5729080000000  0.4767470000000  0.4454000000000 1.0
C      1  0.5693770000000  0.4616160000000  0.4978050000000 1.0
C      1  0.5141050000000  0.5131840000000  0.5776430000000 1.0
C      1  0.5304260000000  0.4402370000000  0.4622940000000 1.0
C      1  0.5817610000000  0.4874470000000  0.4917160000000 1.0
C      1  0.5053200000000  0.4288170000000  0.4721890000000 1.0
C      1  0.4785220000000  0.4347970000000  0.4622250000000 1.0
C      1  0.5004050000000  0.5139580000000  0.4935090000000 1.0
C      1  0.5229060000000  0.5404710000000  0.5653560000000 1.0
C      1  0.4868260000000  0.5015230000000  0.5792880000000 1.0
C      1  0.5201720000000  0.4686410000000  0.5747070000000 1.0
C      1  0.4960870000000  0.5321690000000  0.4291610000000 1.0
C      1  0.5616590000000  0.4922820000000  0.5354570000000 1.0
C      1  0.4557990000000  0.4720130000000  0.4387510000000 1.0
C      1  0.4457480000000  0.5174490000000  0.4473290000000 1.0
C      1  0.4883600000000  0.5567710000000  0.5317240000000 1.0
C      1  0.4418090000000  0.5459960000000  0.5246730000000 1.0
C      1  0.4270980000000  0.4638960000000  0.5061430000000 1.0
C      1  0.4876780000000  0.4331600000000  0.5176810000000 1.0
C      1  0.4912800000000  0.4734440000000  0.5773000000000 1.0
C      1  0.4881760000000  0.5761550000000  0.4842460000000 1.0
C      1  0.5179940000000  0.4707930000000  0.5362570000000 1.0
C      1  0.5487700000000  0.4433190000000  0.4857580000000 1.0
C      1  0.4355850000000  0.4733360000000  0.4590110000000 1.0
C      1  0.5725240000000  0.5336410000000  0.5066240000000 1.0
C      1  0.4402980000000  0.5269450000000  0.5454350000000 1.0
C      1  0.5472380000000  0.4806560000000  0.4375200000000 1.0
C      1  0.4207890000000  0.4917660000000  0.5116700000000 1.0
C      1  0.4424570000000  0.4488120000000  0.5248480000000 1.0
C      1  0.4776500000000  0.4792480000000  0.5109280000000 1.0
C      1  0.4974710000000  0.5683020000000  0.4583130000000 1.0
C      1  0.4770300000000  0.4525900000000  0.4396000000000 1.0
C      1  0.5023100000000  0.4614680000000  0.4284470000000 1.0
C      1  0.4618280000000  0.5263620000000  0.4998480000000 1.0
C      1  0.5295040000000  0.4511460000000  0.5554040000000 1.0
C      1  0.4301460000000  0.5012180000000  0.4649260000000 1.0
C      1  0.5524270000000  0.5485690000000  0.5231210000000 1.0
C      1  0.5116390000000  0.5631250000000  0.5504340000000 1.0
C      1  0.5304080000000  0.5484010000000  0.5030820000000 1.0
C      1  0.4603540000000  0.4992380000000  0.4306410000000 1.0
C      1  0.4859370000000  0.4739630000000  0.4849180000000 1.0
C      1  0.4222770000000  0.5107340000000  0.4904590000000 1.0
C      1  0.5285640000000  0.4578130000000  0.4397450000000 1.0
C      1  0.4437970000000  0.5569160000000  0.4772530000000 1.0
C      1  0.5230070000000  0.5332980000000  0.4388010000000 1.0
END
