TITL C-141707-1631-5 -0.0468935977745567 125000 -285.394531044413 0 0 42 (C1) n - 1
REM
REM in /rds/project/t2_vol4/rds-t2-cs072/BORA/CARBON/from-Arr/AIRSS/Generating-Clusters/GAP-ML-2020/Only-C1/SD-CG/HFTN-CG
REM
REM
REM
REM
REM
REM ./C.cell (11c1c37f851c82e70ff6c80c92926a4b)
REM AIRSS Version 0.9.1 bugfix July 2018 build 013d7b7c2542+ Fri, 06 Jul 2018 19:26:36 +0100
REM compiler GCC version 9.3.0
REM options -cpp -mtune=generic -march=x86-64 -g -O0
REM seed 903793094 1012740237 2038832435 -547346168 -1681371802 -1379421744 -836637690 1584478531 471396115 1819395460 -253361678 -1956792885 -1782453235 572875632 -2104992239 1735219391 -1016419330 1762844094 581902729 -1387977090 -838957847 1198581329 1430478343 -1079894476 1778391589 1123685904 -539685743 532672535 1027540312 1733704618 796844273 1368671076 -377765051
REM
CELL 1.54180   50.00000   50.00000   50.00000   90.00000   90.00000   90.00000
LATT -1
SFAC C  
C      1  0.4515530000000  0.5397010000000  0.5111460000000 1.0
C      1  0.5544020000000  0.5263900000000  0.4899700000000 1.0
C      1  0.4774680000000  0.4684110000000  0.4519200000000 1.0
C      1  0.4483070000000  0.4736240000000  0.5113940000000 1.0
C      1  0.5274670000000  0.4733220000000  0.5426760000000 1.0
C      1  0.4550660000000  0.5123600000000  0.4664100000000 1.0
C      1  0.5003720000000  0.4902370000000  0.4909990000000 1.0
C      1  0.4685100000000  0.4641470000000  0.5318260000000 1.0
C      1  0.5173190000000  0.5221680000000  0.5549640000000 1.0
C      1  0.5221520000000  0.5507460000000  0.5176430000000 1.0
C      1  0.5338150000000  0.4978390000000  0.5517030000000 1.0
C      1  0.4874270000000  0.4460090000000  0.5255620000000 1.0
C      1  0.5336060000000  0.5476570000000  0.4917610000000 1.0
C      1  0.4675420000000  0.5138960000000  0.5493010000000 1.0
C      1  0.5480650000000  0.5217490000000  0.4630970000000 1.0
C      1  0.4841370000000  0.5026850000000  0.5101960000000 1.0
C      1  0.4917140000000  0.5308260000000  0.5479830000000 1.0
C      1  0.4754630000000  0.5260320000000  0.4535310000000 1.0
C      1  0.5512080000000  0.5131630000000  0.5335580000000 1.0
C      1  0.5118000000000  0.5073860000000  0.5086810000000 1.0
C      1  0.5142730000000  0.4988210000000  0.4443940000000 1.0
C      1  0.5034930000000  0.4441060000000  0.4821260000000 1.0
C      1  0.4766690000000  0.4501370000000  0.4750810000000 1.0
C      1  0.4382660000000  0.5000260000000  0.5123470000000 1.0
C      1  0.5103180000000  0.4446420000000  0.5099300000000 1.0
C      1  0.4423850000000  0.5197810000000  0.4911230000000 1.0
C      1  0.5022970000000  0.5252960000000  0.4508130000000 1.0
C      1  0.5036950000000  0.4728800000000  0.4462030000000 1.0
C      1  0.4552430000000  0.4657000000000  0.4858120000000 1.0
C      1  0.5358310000000  0.5365560000000  0.5378900000000 1.0
C      1  0.4697340000000  0.5593380000000  0.5154710000000 1.0
C      1  0.5560340000000  0.5042700000000  0.5075610000000 1.0
C      1  0.5245520000000  0.5401200000000  0.4642500000000 1.0
C      1  0.5397330000000  0.4966720000000  0.4561990000000 1.0
C      1  0.4937880000000  0.5513920000000  0.5265160000000 1.0
C      1  0.5329170000000  0.4613410000000  0.5182820000000 1.0
C      1  0.5422850000000  0.4731970000000  0.4722410000000 1.0
C      1  0.4466560000000  0.5197500000000  0.5319240000000 1.0
C      1  0.4567710000000  0.4843310000000  0.4628720000000 1.0
C      1  0.5487320000000  0.4770280000000  0.4994040000000 1.0
C      1  0.5204180000000  0.4573420000000  0.4640660000000 1.0
C      1  0.4785200000000  0.4889260000000  0.5411750000000 1.0
END
