TITL C-142783-1273-2 -74.9730728221934 125000 -215.492473485002 0 0 33 (C1) n - 1
REM
REM in /rds/project/t2_vol4/rds-t2-cs072/BORA/CARBON/from-Arr/AIRSS/Generating-Clusters/GAP-ML-2020/Only-C1/SD-CG/HFTN-CG
REM
REM
REM
REM
REM
REM ./C.cell (11c1c37f851c82e70ff6c80c92926a4b)
REM AIRSS Version 0.9.1 bugfix July 2018 build 013d7b7c2542+ Fri, 06 Jul 2018 19:26:36 +0100
REM compiler GCC version 9.3.0
REM options -cpp -mtune=generic -march=x86-64 -g -O0
REM seed 357808019 -707197097 414693316 1178674957 -1123053812 2086862924 1482563778 -970424849 -1966800872 -833225328 -820323568 -334417746 -399763514 -428193548 -722298437 1110461813 -2044536899 90377975 -1003554489 1000299553 508934708 -1439612573 270059363 1956855284 1891901202 2054264709 815428605 1504824603 -99784297 -1888128852 1100893002 893829714 707166150
REM
CELL 1.54180   50.00000   50.00000   50.00000   90.00000   90.00000   90.00000
LATT -1
SFAC C  
C      1  0.5286500000000  0.5405660000000  0.4953470000000 1.0
C      1  0.5035020000000  0.4989090000000  0.4806200000000 1.0
C      1  0.4796540000000  0.4844190000000  0.5702590000000 1.0
C      1  0.4632300000000  0.5022670000000  0.5609020000000 1.0
C      1  0.4842010000000  0.5502650000000  0.5184820000000 1.0
C      1  0.4635770000000  0.5294150000000  0.5264800000000 1.0
C      1  0.4844540000000  0.5440440000000  0.4783080000000 1.0
C      1  0.5008910000000  0.4759900000000  0.5279390000000 1.0
C      1  0.4737260000000  0.4459960000000  0.4763430000000 1.0
C      1  0.4813960000000  0.5158050000000  0.4858550000000 1.0
C      1  0.5125470000000  0.5464550000000  0.4706500000000 1.0
C      1  0.5218070000000  0.5077600000000  0.5581940000000 1.0
C      1  0.5169420000000  0.4421300000000  0.4886480000000 1.0
C      1  0.4566080000000  0.4815980000000  0.5109240000000 1.0
C      1  0.5451340000000  0.4788100000000  0.4695190000000 1.0
C      1  0.5292410000000  0.4845250000000  0.4454290000000 1.0
C      1  0.4594980000000  0.4561100000000  0.4995650000000 1.0
C      1  0.5209650000000  0.5263870000000  0.5412880000000 1.0
C      1  0.4754140000000  0.4635650000000  0.5215190000000 1.0
C      1  0.4762400000000  0.5632810000000  0.4954410000000 1.0
C      1  0.5333820000000  0.4639540000000  0.4909530000000 1.0
C      1  0.4635640000000  0.5091610000000  0.5068490000000 1.0
C      1  0.4826940000000  0.4633060000000  0.4564660000000 1.0
C      1  0.5020980000000  0.4811990000000  0.4549670000000 1.0
C      1  0.5032450000000  0.4869580000000  0.5534340000000 1.0
C      1  0.5517610000000  0.5258920000000  0.4908690000000 1.0
C      1  0.5152140000000  0.4826780000000  0.5040650000000 1.0
C      1  0.4512140000000  0.5236190000000  0.5513670000000 1.0
C      1  0.5517390000000  0.5065810000000  0.4721090000000 1.0
C      1  0.5129080000000  0.5417200000000  0.5201050000000 1.0
C      1  0.5213320000000  0.5355620000000  0.4470340000000 1.0
C      1  0.4962450000000  0.4274670000000  0.4830880000000 1.0
C      1  0.5369290000000  0.5136030000000  0.4469830000000 1.0
END
