TITL C-141434-3305-6 14.0144134031816 125000 -722.65743018942 0 0 102 (C1) n - 1
REM
REM in /rds/project/t2_vol4/rds-t2-cs072/BORA/CARBON/from-Arr/AIRSS/Generating-Clusters/GAP-ML-2020/Only-C1/SD-CG/HFTN-CG
REM
REM
REM
REM
REM
REM ./C.cell (11c1c37f851c82e70ff6c80c92926a4b)
REM AIRSS Version 0.9.1 bugfix July 2018 build 013d7b7c2542+ Fri, 06 Jul 2018 19:26:36 +0100
REM compiler GCC version 9.3.0
REM options -cpp -mtune=generic -march=x86-64 -g -O0
REM seed 713406562 2070956736 -641373430 -1039223256 405675321 63429912 -1095615037 -1244581559 -429297118 -553422329 -1226084019 -976252243 604417839 308101973 250753929 1580829650 -204475670 1053246237 -357196307 1896357793 63592086 1783346467 1969358074 -883843819 -622674831 1459551722 -308076211 863005634 -1169451371 -56046074 -355926864 -1953621432 -1565603628
REM
CELL 1.54180   50.00000   50.00000   50.00000   90.00000   90.00000   90.00000
LATT -1
SFAC C  
C      1  0.4483820000000  0.5585660000000  0.5051440000000 1.0
C      1  0.5582780000000  0.5552420000000  0.4621930000000 1.0
C      1  0.4341230000000  0.5337030000000  0.4656980000000 1.0
C      1  0.5455050000000  0.4500110000000  0.4360020000000 1.0
C      1  0.5295980000000  0.4991930000000  0.5035070000000 1.0
C      1  0.5464040000000  0.4781440000000  0.5741530000000 1.0
C      1  0.5210300000000  0.4650390000000  0.5787970000000 1.0
C      1  0.5602200000000  0.4948480000000  0.4339120000000 1.0
C      1  0.5018550000000  0.4927480000000  0.5114000000000 1.0
C      1  0.5121490000000  0.5143310000000  0.5928720000000 1.0
C      1  0.4802840000000  0.5441690000000  0.5751940000000 1.0
C      1  0.4701950000000  0.5042040000000  0.4154660000000 1.0
C      1  0.4286550000000  0.5406570000000  0.4936500000000 1.0
C      1  0.4823860000000  0.4673180000000  0.4378190000000 1.0
C      1  0.4986720000000  0.5321210000000  0.4883330000000 1.0
C      1  0.5504390000000  0.5500310000000  0.5479610000000 1.0
C      1  0.4419630000000  0.5204930000000  0.5698380000000 1.0
C      1  0.4606940000000  0.4196200000000  0.5344990000000 1.0
C      1  0.5175540000000  0.4468490000000  0.5324970000000 1.0
C      1  0.5373730000000  0.5951320000000  0.5327150000000 1.0
C      1  0.5791960000000  0.4745750000000  0.5049590000000 1.0
C      1  0.5458690000000  0.5713170000000  0.4838650000000 1.0
C      1  0.5424280000000  0.4746730000000  0.4231630000000 1.0
C      1  0.4941630000000  0.4157390000000  0.4915100000000 1.0
C      1  0.5839830000000  0.5103330000000  0.4744240000000 1.0
C      1  0.4972620000000  0.5618830000000  0.4486450000000 1.0
C      1  0.4151570000000  0.4744870000000  0.5183810000000 1.0
C      1  0.5112700000000  0.4671140000000  0.4762500000000 1.0
C      1  0.4795910000000  0.5311360000000  0.4173500000000 1.0
C      1  0.4792970000000  0.5140360000000  0.5014730000000 1.0
C      1  0.4576520000000  0.4234280000000  0.4557370000000 1.0
C      1  0.4689420000000  0.4904780000000  0.4852000000000 1.0
C      1  0.4237710000000  0.4765670000000  0.5458480000000 1.0
C      1  0.5368620000000  0.4236250000000  0.4678470000000 1.0
C      1  0.5123140000000  0.4449050000000  0.5601930000000 1.0
C      1  0.5231370000000  0.4333910000000  0.4434070000000 1.0
C      1  0.4527590000000  0.5581960000000  0.5343490000000 1.0
C      1  0.4234460000000  0.5027460000000  0.5559940000000 1.0
C      1  0.4157410000000  0.5219060000000  0.5103190000000 1.0
C      1  0.4825410000000  0.4234830000000  0.5175370000000 1.0
C      1  0.4991600000000  0.4469530000000  0.4532010000000 1.0
C      1  0.4164610000000  0.5245220000000  0.5378350000000 1.0
C      1  0.5730790000000  0.4897600000000  0.4589570000000 1.0
C      1  0.5367530000000  0.4698550000000  0.4937220000000 1.0
C      1  0.4904280000000  0.4519200000000  0.5201950000000 1.0
C      1  0.5831110000000  0.5250960000000  0.5180330000000 1.0
C      1  0.4607040000000  0.4352560000000  0.5617940000000 1.0
C      1  0.4958240000000  0.5623210000000  0.4791160000000 1.0
C      1  0.5187030000000  0.5537960000000  0.4318410000000 1.0
C      1  0.4540330000000  0.5528590000000  0.4589200000000 1.0
C      1  0.4654040000000  0.5645330000000  0.4826630000000 1.0
C      1  0.5643180000000  0.5691060000000  0.5057610000000 1.0
C      1  0.4762570000000  0.4675780000000  0.5418770000000 1.0
C      1  0.5102570000000  0.4944740000000  0.4634510000000 1.0
C      1  0.5195110000000  0.5121530000000  0.5492040000000 1.0
C      1  0.5075350000000  0.5352040000000  0.4133760000000 1.0
C      1  0.5539570000000  0.5735170000000  0.5319340000000 1.0
C      1  0.5389350000000  0.5101640000000  0.5287860000000 1.0
C      1  0.5790210000000  0.5391300000000  0.4743480000000 1.0
C      1  0.4390870000000  0.4374080000000  0.5256240000000 1.0
C      1  0.5578890000000  0.4435110000000  0.4618960000000 1.0
C      1  0.5615990000000  0.5264030000000  0.5364450000000 1.0
C      1  0.4771350000000  0.5594500000000  0.5500070000000 1.0
C      1  0.5644350000000  0.4674310000000  0.4783010000000 1.0
C      1  0.5660570000000  0.4635930000000  0.5291110000000 1.0
C      1  0.5214950000000  0.4151720000000  0.4881910000000 1.0
C      1  0.5499020000000  0.5207040000000  0.4250480000000 1.0
C      1  0.4724400000000  0.5146240000000  0.5290810000000 1.0
C      1  0.4914060000000  0.4964740000000  0.5391380000000 1.0
C      1  0.4423410000000  0.4466110000000  0.4543400000000 1.0
C      1  0.4353710000000  0.4881720000000  0.4789100000000 1.0
C      1  0.5870160000000  0.5014400000000  0.5017190000000 1.0
C      1  0.4354790000000  0.5418980000000  0.5497320000000 1.0
C      1  0.4535870000000  0.4662940000000  0.4364890000000 1.0
C      1  0.4826290000000  0.4934440000000  0.4588590000000 1.0
C      1  0.4171050000000  0.4959660000000  0.5006980000000 1.0
C      1  0.4932560000000  0.4718690000000  0.5865490000000 1.0
C      1  0.5404520000000  0.4540520000000  0.5185020000000 1.0
C      1  0.4907120000000  0.4832440000000  0.4143550000000 1.0
C      1  0.5218530000000  0.5455810000000  0.5562810000000 1.0
C      1  0.5181860000000  0.5762930000000  0.4925370000000 1.0
C      1  0.5074280000000  0.5403520000000  0.5814000000000 1.0
C      1  0.5650370000000  0.4698520000000  0.5556790000000 1.0
C      1  0.5326110000000  0.5031150000000  0.5760390000000 1.0
C      1  0.4471820000000  0.4946020000000  0.4320150000000 1.0
C      1  0.4826010000000  0.4249520000000  0.4654360000000 1.0
C      1  0.4898880000000  0.4701530000000  0.4968490000000 1.0
C      1  0.5263490000000  0.5149350000000  0.4094970000000 1.0
C      1  0.5816530000000  0.5475820000000  0.5012450000000 1.0
C      1  0.5204920000000  0.5151020000000  0.4806920000000 1.0
C      1  0.4256850000000  0.4509330000000  0.5049220000000 1.0
C      1  0.5188260000000  0.4874590000000  0.4105000000000 1.0
C      1  0.5037290000000  0.5650110000000  0.5425010000000 1.0
C      1  0.5162130000000  0.5815600000000  0.5214330000000 1.0
C      1  0.4734540000000  0.5504410000000  0.4384020000000 1.0
C      1  0.4312250000000  0.4589920000000  0.4776170000000 1.0
C      1  0.4461560000000  0.4577610000000  0.5470600000000 1.0
C      1  0.4668090000000  0.5195820000000  0.5821390000000 1.0
C      1  0.4871600000000  0.4994400000000  0.5913270000000 1.0
C      1  0.4339600000000  0.5066450000000  0.4547120000000 1.0
C      1  0.5457240000000  0.5463780000000  0.4382710000000 1.0
C      1  0.4837920000000  0.4508810000000  0.5673360000000 1.0
END
