TITL C-141425-3340-10 -489.582419135374 125000 -273.933758651286 0 0 41 (C1) n - 1
REM
REM in /rds/project/t2_vol4/rds-t2-cs072/BORA/CARBON/from-Arr/AIRSS/Generating-Clusters/GAP-ML-2020/Only-C1/SD-CG/HFTN-CG
REM
REM
REM
REM
REM
REM ./C.cell (11c1c37f851c82e70ff6c80c92926a4b)
REM AIRSS Version 0.9.1 bugfix July 2018 build 013d7b7c2542+ Fri, 06 Jul 2018 19:26:36 +0100
REM compiler GCC version 9.3.0
REM options -cpp -mtune=generic -march=x86-64 -g -O0
REM seed -391505144 -1040701846 -1767676951 -501389739 -1263151581 -1979046973 -1957820275 299111609 537120786 211540692 550863126 340483625 -1094193540 1591934899 -2087393332 -1820399347 -926479709 2066253428 -661535885 -497868970 -1665516013 -815770074 1414621747 -1295303485 -669124406 190578191 -1766404576 1619483444 -1149634820 -1369217789 1193187517 -96887513 -1710881474
REM
CELL 1.54180   50.00000   50.00000   50.00000   90.00000   90.00000   90.00000
LATT -1
SFAC C  
C      1  0.5586140000000  0.4534910000000  0.5229090000000 1.0
C      1  0.4774980000000  0.5196530000000  0.5523550000000 1.0
C      1  0.4762920000000  0.4719660000000  0.4511280000000 1.0
C      1  0.5415890000000  0.4450440000000  0.5040420000000 1.0
C      1  0.4521370000000  0.5113590000000  0.4629130000000 1.0
C      1  0.4707320000000  0.4992830000000  0.4467580000000 1.0
C      1  0.5533680000000  0.5136670000000  0.4809890000000 1.0
C      1  0.4662990000000  0.4593170000000  0.5000690000000 1.0
C      1  0.5176220000000  0.4931910000000  0.4458660000000 1.0
C      1  0.4745770000000  0.4544020000000  0.4734340000000 1.0
C      1  0.4882430000000  0.4559200000000  0.5196230000000 1.0
C      1  0.4717660000000  0.5574910000000  0.4932290000000 1.0
C      1  0.5338620000000  0.4934410000000  0.5248850000000 1.0
C      1  0.5183460000000  0.5375640000000  0.5403050000000 1.0
C      1  0.4945000000000  0.5393210000000  0.4851270000000 1.0
C      1  0.5652170000000  0.4886460000000  0.4911590000000 1.0
C      1  0.4418530000000  0.5204750000000  0.5105620000000 1.0
C      1  0.5125080000000  0.4512230000000  0.5022340000000 1.0
C      1  0.5469170000000  0.4686510000000  0.4841510000000 1.0
C      1  0.5054760000000  0.5162540000000  0.5548940000000 1.0
C      1  0.5031710000000  0.4494500000000  0.4730080000000 1.0
C      1  0.4972970000000  0.4949300000000  0.4885750000000 1.0
C      1  0.4955590000000  0.5127440000000  0.4421940000000 1.0
C      1  0.5214370000000  0.4810940000000  0.4990020000000 1.0
C      1  0.4986290000000  0.5546080000000  0.5300770000000 1.0
C      1  0.4971570000000  0.5631550000000  0.5030360000000 1.0
C      1  0.4559900000000  0.5439130000000  0.5144650000000 1.0
C      1  0.4671510000000  0.4940440000000  0.5447420000000 1.0
C      1  0.4469380000000  0.4964140000000  0.5261790000000 1.0
C      1  0.5466550000000  0.5331150000000  0.5000500000000 1.0
C      1  0.4472880000000  0.4796400000000  0.5029050000000 1.0
C      1  0.5370290000000  0.5243620000000  0.5235940000000 1.0
C      1  0.4421850000000  0.5034720000000  0.4858470000000 1.0
C      1  0.5334150000000  0.5141100000000  0.4601240000000 1.0
C      1  0.4891950000000  0.4749640000000  0.5409510000000 1.0
C      1  0.4918800000000  0.5152310000000  0.5043410000000 1.0
C      1  0.4729060000000  0.5435540000000  0.5376640000000 1.0
C      1  0.5059200000000  0.4679830000000  0.4508880000000 1.0
C      1  0.5611010000000  0.4808600000000  0.5199300000000 1.0
C      1  0.5133790000000  0.4902260000000  0.5459250000000 1.0
C      1  0.5083030000000  0.5317710000000  0.4598700000000 1.0
END
