TITL C-147426-6637-6 -0.103843993767475 125000 -744.211927817836 0 0 107 (C1) n - 1
REM
REM in /rds/project/t2_vol4/rds-t2-cs072/BORA/CARBON/from-Arr/AIRSS/Generating-Clusters/GAP-ML-2020/Only-C1/SD-CG/HFTN-CG
REM
REM
REM
REM
REM
REM ./C.cell (11c1c37f851c82e70ff6c80c92926a4b)
REM AIRSS Version 0.9.1 bugfix July 2018 build 013d7b7c2542+ Fri, 06 Jul 2018 19:26:36 +0100
REM compiler GCC version 9.3.0
REM options -cpp -mtune=generic -march=x86-64 -g -O0
REM seed -354513527 -1816408902 -1052004853 -1289386728 -5673907 128075741 -301159486 -1744354409 -786271895 51484403 -2112335680 1266488538 793193982 728287686 1789238094 -1916136538 -2043565617 1856172791 717144242 -2055044497 864093337 1426919017 -554431849 -192218535 -1142074412 -701365354 650829120 -30159079 1017153777 870476631 1141615019 -1417401969 -503001311
REM
CELL 1.54180   50.00000   50.00000   50.00000   90.00000   90.00000   90.00000
LATT -1
SFAC C  
C      1  0.4647110000000  0.4545220000000  0.4407150000000 1.0
C      1  0.5588730000000  0.4467190000000  0.4527080000000 1.0
C      1  0.4972430000000  0.5719960000000  0.4654060000000 1.0
C      1  0.4206640000000  0.5262980000000  0.5238710000000 1.0
C      1  0.4534620000000  0.5403360000000  0.5640070000000 1.0
C      1  0.4382570000000  0.5443880000000  0.5394410000000 1.0
C      1  0.5781180000000  0.5272490000000  0.4768160000000 1.0
C      1  0.5248730000000  0.5619080000000  0.5598730000000 1.0
C      1  0.5140400000000  0.5106130000000  0.5555780000000 1.0
C      1  0.5644650000000  0.4449760000000  0.4989770000000 1.0
C      1  0.5434140000000  0.5806240000000  0.5470290000000 1.0
C      1  0.5003580000000  0.4708930000000  0.4147710000000 1.0
C      1  0.5092660000000  0.5046930000000  0.4680980000000 1.0
C      1  0.5126330000000  0.5166890000000  0.4120240000000 1.0
C      1  0.4594300000000  0.4291850000000  0.5353110000000 1.0
C      1  0.4474080000000  0.5673940000000  0.4727760000000 1.0
C      1  0.5449880000000  0.4389560000000  0.4774940000000 1.0
C      1  0.4976840000000  0.5673260000000  0.5497310000000 1.0
C      1  0.5002530000000  0.4287090000000  0.4559760000000 1.0
C      1  0.4627040000000  0.4890620000000  0.5773810000000 1.0
C      1  0.4668420000000  0.5510300000000  0.4321130000000 1.0
C      1  0.3957170000000  0.4721600000000  0.4842700000000 1.0
C      1  0.4744910000000  0.4188040000000  0.4654860000000 1.0
C      1  0.5230320000000  0.4896260000000  0.4129980000000 1.0
C      1  0.4882980000000  0.5194460000000  0.5482340000000 1.0
C      1  0.5354980000000  0.4692140000000  0.4739450000000 1.0
C      1  0.5758390000000  0.5317310000000  0.5240830000000 1.0
C      1  0.4784660000000  0.4167760000000  0.5117640000000 1.0
C      1  0.4971070000000  0.4672300000000  0.5080260000000 1.0
C      1  0.5567510000000  0.5173380000000  0.5783980000000 1.0
C      1  0.5210290000000  0.5663750000000  0.5068920000000 1.0
C      1  0.5042740000000  0.4356380000000  0.5043990000000 1.0
C      1  0.5181550000000  0.4273370000000  0.4785150000000 1.0
C      1  0.4151530000000  0.4981090000000  0.5196650000000 1.0
C      1  0.4884350000000  0.5229890000000  0.4605670000000 1.0
C      1  0.4516370000000  0.4730520000000  0.5018350000000 1.0
C      1  0.5092390000000  0.4757690000000  0.4623500000000 1.0
C      1  0.5373150000000  0.4409630000000  0.5432650000000 1.0
C      1  0.4819830000000  0.5039020000000  0.5913110000000 1.0
C      1  0.4658580000000  0.5283160000000  0.4165530000000 1.0
C      1  0.4723150000000  0.5779520000000  0.5101800000000 1.0
C      1  0.4742710000000  0.4779300000000  0.5243110000000 1.0
C      1  0.4322280000000  0.5621130000000  0.4963090000000 1.0
C      1  0.4978080000000  0.4103680000000  0.5358120000000 1.0
C      1  0.4969780000000  0.5760910000000  0.5231300000000 1.0
C      1  0.5278730000000  0.5526600000000  0.5867380000000 1.0
C      1  0.4471630000000  0.5656170000000  0.5200270000000 1.0
C      1  0.4731070000000  0.5197800000000  0.4860900000000 1.0
C      1  0.5326990000000  0.5266130000000  0.5913990000000 1.0
C      1  0.4889490000000  0.5244710000000  0.5091280000000 1.0
C      1  0.5384640000000  0.4881500000000  0.4965670000000 1.0
C      1  0.5562890000000  0.4910090000000  0.5483160000000 1.0
C      1  0.4163360000000  0.5393870000000  0.4986310000000 1.0
C      1  0.4542370000000  0.4388640000000  0.4618030000000 1.0
C      1  0.5451110000000  0.5409450000000  0.4443060000000 1.0
C      1  0.4773600000000  0.5064970000000  0.5263680000000 1.0
C      1  0.5465090000000  0.5726600000000  0.5217340000000 1.0
C      1  0.4905730000000  0.4511630000000  0.5628490000000 1.0
C      1  0.5604900000000  0.4491490000000  0.5272230000000 1.0
C      1  0.5180640000000  0.5328780000000  0.5118190000000 1.0
C      1  0.4667050000000  0.4688210000000  0.5550370000000 1.0
C      1  0.4620830000000  0.4921240000000  0.4811240000000 1.0
C      1  0.4824240000000  0.4261640000000  0.5530160000000 1.0
C      1  0.5457880000000  0.4533050000000  0.4298500000000 1.0
C      1  0.4410870000000  0.4494740000000  0.4856580000000 1.0
C      1  0.4808840000000  0.5464370000000  0.5579950000000 1.0
C      1  0.4573910000000  0.5161370000000  0.5809600000000 1.0
C      1  0.4051050000000  0.4974140000000  0.4910340000000 1.0
C      1  0.4131130000000  0.5213250000000  0.4772130000000 1.0
C      1  0.5121270000000  0.5040400000000  0.5863580000000 1.0
C      1  0.5735000000000  0.4704750000000  0.4606650000000 1.0
C      1  0.5455840000000  0.5599690000000  0.4656640000000 1.0
C      1  0.5665000000000  0.5202240000000  0.4508090000000 1.0
C      1  0.5670190000000  0.5524980000000  0.4833780000000 1.0
C      1  0.5734200000000  0.4744760000000  0.5321450000000 1.0
C      1  0.4846920000000  0.5130350000000  0.4040240000000 1.0
C      1  0.4277920000000  0.4712640000000  0.5217510000000 1.0
C      1  0.5860060000000  0.4856250000000  0.5084150000000 1.0
C      1  0.5194260000000  0.4603980000000  0.5615570000000 1.0
C      1  0.4308680000000  0.5234920000000  0.4552910000000 1.0
C      1  0.5587040000000  0.5218490000000  0.5471620000000 1.0
C      1  0.5807250000000  0.4662610000000  0.4880540000000 1.0
C      1  0.5300000000000  0.5317610000000  0.5422790000000 1.0
C      1  0.4150170000000  0.4562240000000  0.4949450000000 1.0
C      1  0.5287230000000  0.4785170000000  0.5852040000000 1.0
C      1  0.4888640000000  0.4786960000000  0.4820010000000 1.0
C      1  0.5225610000000  0.5717290000000  0.4780200000000 1.0
C      1  0.5668490000000  0.5558780000000  0.5113160000000 1.0
C      1  0.4450740000000  0.5494890000000  0.4510270000000 1.0
C      1  0.4947530000000  0.5506340000000  0.4451420000000 1.0
C      1  0.4722750000000  0.4027550000000  0.4884640000000 1.0
C      1  0.4713780000000  0.5109220000000  0.4401180000000 1.0
C      1  0.5250690000000  0.5120140000000  0.4916770000000 1.0
C      1  0.5259190000000  0.4856370000000  0.5436360000000 1.0
C      1  0.5209250000000  0.4809930000000  0.5160620000000 1.0
C      1  0.4442120000000  0.4532790000000  0.5415470000000 1.0
C      1  0.4954250000000  0.4548520000000  0.4404920000000 1.0
C      1  0.5199260000000  0.5390370000000  0.4296250000000 1.0
C      1  0.5541060000000  0.4899310000000  0.5778410000000 1.0
C      1  0.4482440000000  0.4980600000000  0.4520330000000 1.0
C      1  0.4550080000000  0.4782900000000  0.4289840000000 1.0
C      1  0.5671410000000  0.4926040000000  0.4423180000000 1.0
C      1  0.4731150000000  0.5771940000000  0.4811050000000 1.0
C      1  0.4766710000000  0.4850670000000  0.4093140000000 1.0
C      1  0.5478540000000  0.4803610000000  0.4231980000000 1.0
C      1  0.5203700000000  0.4246360000000  0.5279720000000 1.0
C      1  0.5847860000000  0.5139960000000  0.5031260000000 1.0
END
