TITL C-147437-6653-4 0.0652105252942143 125000 -559.886203594345 0 0 81 (C1) n - 1
REM
REM in /rds/project/t2_vol4/rds-t2-cs072/BORA/CARBON/from-Arr/AIRSS/Generating-Clusters/GAP-ML-2020/Only-C1/SD-CG/HFTN-CG
REM
REM
REM
REM
REM
REM ./C.cell (11c1c37f851c82e70ff6c80c92926a4b)
REM AIRSS Version 0.9.1 bugfix July 2018 build 013d7b7c2542+ Fri, 06 Jul 2018 19:26:36 +0100
REM compiler GCC version 9.3.0
REM options -cpp -mtune=generic -march=x86-64 -g -O0
REM seed 536355143 -1726102942 -1386287924 386756826 1940602220 1717773063 690753947 -1801571666 616247194 1608285409 -1666105889 -687112102 -1424613966 631570194 -1815817862 -1302339033 37226737 1422183265 1266460813 1803237696 1787859528 993746105 1394355050 1402518665 -1597336796 527981891 -1100016990 710448711 -1770338741 568610734 592844619 1025910474 -1347093611
REM
CELL 1.54180   50.00000   50.00000   50.00000   90.00000   90.00000   90.00000
LATT -1
SFAC C  
C      1  0.4265570000000  0.4781290000000  0.5128680000000 1.0
C      1  0.5688380000000  0.4662880000000  0.5031050000000 1.0
C      1  0.4862950000000  0.4649360000000  0.5701810000000 1.0
C      1  0.5234160000000  0.4710580000000  0.5061790000000 1.0
C      1  0.4512430000000  0.4498330000000  0.5383360000000 1.0
C      1  0.5519180000000  0.4743190000000  0.5630430000000 1.0
C      1  0.5367290000000  0.4356120000000  0.5331080000000 1.0
C      1  0.5284060000000  0.5268520000000  0.4271630000000 1.0
C      1  0.5364610000000  0.4496930000000  0.5584570000000 1.0
C      1  0.5648590000000  0.4687770000000  0.4750470000000 1.0
C      1  0.4932840000000  0.4689480000000  0.4420150000000 1.0
C      1  0.4915790000000  0.5785780000000  0.4775460000000 1.0
C      1  0.5395360000000  0.4906670000000  0.4507930000000 1.0
C      1  0.5263700000000  0.4989060000000  0.4981860000000 1.0
C      1  0.4645600000000  0.4923170000000  0.4708620000000 1.0
C      1  0.5085000000000  0.5127620000000  0.5151240000000 1.0
C      1  0.5027630000000  0.5255100000000  0.4631460000000 1.0
C      1  0.5379610000000  0.5019740000000  0.4251080000000 1.0
C      1  0.4476350000000  0.5413790000000  0.5229080000000 1.0
C      1  0.5142750000000  0.4616290000000  0.5739350000000 1.0
C      1  0.5755840000000  0.4893340000000  0.5192950000000 1.0
C      1  0.4668130000000  0.5729060000000  0.4901820000000 1.0
C      1  0.5227160000000  0.5603590000000  0.5384630000000 1.0
C      1  0.4366780000000  0.5243820000000  0.5004250000000 1.0
C      1  0.4825880000000  0.5514210000000  0.4342130000000 1.0
C      1  0.5032030000000  0.4215710000000  0.4956610000000 1.0
C      1  0.5661200000000  0.4952910000000  0.4657990000000 1.0
C      1  0.4985040000000  0.5243620000000  0.4322180000000 1.0
C      1  0.4434730000000  0.5253470000000  0.4482720000000 1.0
C      1  0.5198430000000  0.5111450000000  0.5775970000000 1.0
C      1  0.5451460000000  0.4531860000000  0.5125500000000 1.0
C      1  0.4385020000000  0.4758170000000  0.4679770000000 1.0
C      1  0.4837890000000  0.4395480000000  0.5094410000000 1.0
C      1  0.4849990000000  0.4978380000000  0.4292830000000 1.0
C      1  0.4808840000000  0.5350290000000  0.5537880000000 1.0
C      1  0.5395290000000  0.5295740000000  0.5682360000000 1.0
C      1  0.5412710000000  0.5436740000000  0.4487320000000 1.0
C      1  0.4967860000000  0.5693090000000  0.4509730000000 1.0
C      1  0.4842390000000  0.4951770000000  0.5125410000000 1.0
C      1  0.4750880000000  0.4915290000000  0.5693330000000 1.0
C      1  0.4494810000000  0.4383400000000  0.4857080000000 1.0
C      1  0.4924380000000  0.5539710000000  0.5324850000000 1.0
C      1  0.4679360000000  0.4539080000000  0.4423970000000 1.0
C      1  0.4196460000000  0.5037170000000  0.5081260000000 1.0
C      1  0.4668050000000  0.5096610000000  0.4933730000000 1.0
C      1  0.4558330000000  0.4353950000000  0.5127420000000 1.0
C      1  0.4746430000000  0.4446370000000  0.5541910000000 1.0
C      1  0.4338440000000  0.5370090000000  0.4741430000000 1.0
C      1  0.5146280000000  0.4199360000000  0.5238940000000 1.0
C      1  0.4582130000000  0.5000350000000  0.4403660000000 1.0
C      1  0.5181010000000  0.5531090000000  0.4614330000000 1.0
C      1  0.5164440000000  0.5637150000000  0.4889980000000 1.0
C      1  0.5605760000000  0.5198570000000  0.5516430000000 1.0
C      1  0.5410310000000  0.4610850000000  0.4577220000000 1.0
C      1  0.5012000000000  0.5410130000000  0.5064660000000 1.0
C      1  0.5473180000000  0.5549630000000  0.5212040000000 1.0
C      1  0.5305970000000  0.5550660000000  0.5633130000000 1.0
C      1  0.4915330000000  0.4800590000000  0.4713210000000 1.0
C      1  0.4556740000000  0.5253160000000  0.5451060000000 1.0
C      1  0.5657920000000  0.5343200000000  0.5278900000000 1.0
C      1  0.4571640000000  0.5500620000000  0.4445160000000 1.0
C      1  0.4944470000000  0.4694500000000  0.5014190000000 1.0
C      1  0.5449280000000  0.5594020000000  0.4937350000000 1.0
C      1  0.5148210000000  0.5001370000000  0.4708090000000 1.0
C      1  0.4391540000000  0.4750490000000  0.5389830000000 1.0
C      1  0.4461160000000  0.4715640000000  0.4411400000000 1.0
C      1  0.4921080000000  0.5148960000000  0.5710290000000 1.0
C      1  0.4906250000000  0.4289360000000  0.5366210000000 1.0
C      1  0.4704600000000  0.4354660000000  0.4637120000000 1.0
C      1  0.5161390000000  0.4489540000000  0.4530000000000 1.0
C      1  0.4479940000000  0.5616020000000  0.4707640000000 1.0
C      1  0.4522860000000  0.4973100000000  0.5530710000000 1.0
C      1  0.4828100000000  0.5317980000000  0.4836280000000 1.0
C      1  0.5728830000000  0.5188910000000  0.4802800000000 1.0
C      1  0.5297190000000  0.4852700000000  0.5787600000000 1.0
C      1  0.4669570000000  0.5618320000000  0.5172770000000 1.0
C      1  0.5660170000000  0.4922280000000  0.5467680000000 1.0
C      1  0.4323150000000  0.4604470000000  0.4901230000000 1.0
C      1  0.5769120000000  0.5155720000000  0.5083660000000 1.0
C      1  0.5573690000000  0.5416760000000  0.4728120000000 1.0
C      1  0.5001030000000  0.4293830000000  0.4685740000000 1.0
END
