TITL C-142796-1268-7 -0.0715362384392912 125000 -774.446043450257 0 0 113 (C1) n - 1
REM
REM in /rds/project/t2_vol4/rds-t2-cs072/BORA/CARBON/from-Arr/AIRSS/Generating-Clusters/GAP-ML-2020/Only-C1/SD-CG/HFTN-CG
REM
REM
REM
REM
REM
REM ./C.cell (11c1c37f851c82e70ff6c80c92926a4b)
REM AIRSS Version 0.9.1 bugfix July 2018 build 013d7b7c2542+ Fri, 06 Jul 2018 19:26:36 +0100
REM compiler GCC version 9.3.0
REM options -cpp -mtune=generic -march=x86-64 -g -O0
REM seed 1087350510 -394304731 -68859504 -1001236199 -96266232 -1718827345 816327592 1355732013 -1525410421 266466729 1609535990 718553722 -505920046 -1613779484 -232372990 945346691 409032567 -289824954 -1105295747 -174116999 -1595413657 -586554687 1496623914 -1395650388 1803663322 528207028 -1268212115 1085671070 -911212143 -824396035 -213531646 -1539840142 1916275123
REM
CELL 1.54180   50.00000   50.00000   50.00000   90.00000   90.00000   90.00000
LATT -1
SFAC C  
C      1  0.4714330000000  0.4988520000000  0.4176840000000 1.0
C      1  0.5619830000000  0.5554370000000  0.5180260000000 1.0
C      1  0.5342780000000  0.5659260000000  0.5153210000000 1.0
C      1  0.5595510000000  0.5254450000000  0.5227780000000 1.0
C      1  0.4785350000000  0.5886370000000  0.5125530000000 1.0
C      1  0.5084790000000  0.4518500000000  0.5522870000000 1.0
C      1  0.4533240000000  0.4541910000000  0.5783460000000 1.0
C      1  0.5240710000000  0.5750840000000  0.4406500000000 1.0
C      1  0.4702620000000  0.5168940000000  0.4698230000000 1.0
C      1  0.5397020000000  0.5286770000000  0.6024830000000 1.0
C      1  0.4817040000000  0.5276430000000  0.5337540000000 1.0
C      1  0.4467100000000  0.5228570000000  0.4496740000000 1.0
C      1  0.5283610000000  0.4325600000000  0.4576050000000 1.0
C      1  0.4622520000000  0.5002780000000  0.5907570000000 1.0
C      1  0.4977420000000  0.4943260000000  0.4077260000000 1.0
C      1  0.5473030000000  0.4518160000000  0.4479900000000 1.0
C      1  0.4639180000000  0.4388620000000  0.5577700000000 1.0
C      1  0.4331930000000  0.4478720000000  0.4692760000000 1.0
C      1  0.4589300000000  0.4424870000000  0.4604610000000 1.0
C      1  0.5044370000000  0.5492820000000  0.4787760000000 1.0
C      1  0.4703390000000  0.5272870000000  0.5800750000000 1.0
C      1  0.5021890000000  0.4376600000000  0.4457120000000 1.0
C      1  0.5684960000000  0.5120740000000  0.4372400000000 1.0
C      1  0.4553830000000  0.5789490000000  0.4986180000000 1.0
C      1  0.5831510000000  0.4629500000000  0.5470620000000 1.0
C      1  0.4627870000000  0.4905380000000  0.4810850000000 1.0
C      1  0.4776610000000  0.4854610000000  0.5525200000000 1.0
C      1  0.4325890000000  0.5167480000000  0.5586470000000 1.0
C      1  0.5406960000000  0.5023210000000  0.5903790000000 1.0
C      1  0.5689650000000  0.5318760000000  0.4802660000000 1.0
C      1  0.5442480000000  0.5778820000000  0.4871550000000 1.0
C      1  0.5100200000000  0.4261210000000  0.5357410000000 1.0
C      1  0.5290140000000  0.4592470000000  0.5095440000000 1.0
C      1  0.4506880000000  0.5387390000000  0.5628520000000 1.0
C      1  0.4822310000000  0.4593220000000  0.5112260000000 1.0
C      1  0.5279970000000  0.5890000000000  0.4653620000000 1.0
C      1  0.5482410000000  0.4731360000000  0.4941550000000 1.0
C      1  0.5165790000000  0.4881400000000  0.4607320000000 1.0
C      1  0.5169740000000  0.4878110000000  0.5845620000000 1.0
C      1  0.4340260000000  0.4472010000000  0.5234850000000 1.0
C      1  0.4083420000000  0.4755040000000  0.4878480000000 1.0
C      1  0.4445830000000  0.5583540000000  0.5140370000000 1.0
C      1  0.4704540000000  0.4700650000000  0.4595200000000 1.0
C      1  0.4664450000000  0.5253780000000  0.4270920000000 1.0
C      1  0.5778960000000  0.4545810000000  0.5217070000000 1.0
C      1  0.4574810000000  0.4811840000000  0.4345440000000 1.0
C      1  0.5762360000000  0.4810590000000  0.5053240000000 1.0
C      1  0.5222090000000  0.5408410000000  0.5009710000000 1.0
C      1  0.5033610000000  0.5024400000000  0.4964300000000 1.0
C      1  0.5132530000000  0.4699010000000  0.4130510000000 1.0
C      1  0.4801050000000  0.5816670000000  0.4546800000000 1.0
C      1  0.5776930000000  0.5024930000000  0.5257430000000 1.0
C      1  0.5064530000000  0.5210420000000  0.5178940000000 1.0
C      1  0.4963270000000  0.6015270000000  0.4973220000000 1.0
C      1  0.4329520000000  0.4707450000000  0.5678660000000 1.0
C      1  0.4378670000000  0.5455670000000  0.4688900000000 1.0
C      1  0.5037310000000  0.4634970000000  0.5825530000000 1.0
C      1  0.4934600000000  0.4092690000000  0.4805550000000 1.0
C      1  0.5765940000000  0.4900540000000  0.5517670000000 1.0
C      1  0.4996990000000  0.4478070000000  0.4200190000000 1.0
C      1  0.4956180000000  0.5698240000000  0.4340510000000 1.0
C      1  0.5523440000000  0.4938760000000  0.4203200000000 1.0
C      1  0.4823600000000  0.4144920000000  0.5263460000000 1.0
C      1  0.4925780000000  0.5401990000000  0.4265270000000 1.0
C      1  0.4364130000000  0.4970800000000  0.5786260000000 1.0
C      1  0.4862970000000  0.5725170000000  0.5347560000000 1.0
C      1  0.5003220000000  0.5966460000000  0.4712260000000 1.0
C      1  0.5181610000000  0.4251550000000  0.4851220000000 1.0
C      1  0.4185360000000  0.5156400000000  0.5090150000000 1.0
C      1  0.5243020000000  0.4714950000000  0.5349800000000 1.0
C      1  0.4742480000000  0.4720950000000  0.5873380000000 1.0
C      1  0.4993450000000  0.5108810000000  0.4646620000000 1.0
C      1  0.5204310000000  0.5010470000000  0.5382150000000 1.0
C      1  0.4776720000000  0.4867320000000  0.5051290000000 1.0
C      1  0.4290790000000  0.4713460000000  0.5396090000000 1.0
C      1  0.5530080000000  0.5340770000000  0.4261110000000 1.0
C      1  0.4992300000000  0.4639370000000  0.4642010000000 1.0
C      1  0.5302240000000  0.5462880000000  0.5862950000000 1.0
C      1  0.5669300000000  0.5599240000000  0.4901090000000 1.0
C      1  0.4822750000000  0.4583940000000  0.5421530000000 1.0
C      1  0.5403720000000  0.4689300000000  0.4249750000000 1.0
C      1  0.5830520000000  0.4839750000000  0.4760270000000 1.0
C      1  0.4593540000000  0.5668370000000  0.4720090000000 1.0
C      1  0.5418040000000  0.5204630000000  0.5470310000000 1.0
C      1  0.5210920000000  0.5438250000000  0.5586630000000 1.0
C      1  0.4546990000000  0.4271450000000  0.5352190000000 1.0
C      1  0.5792970000000  0.5098440000000  0.4635660000000 1.0
C      1  0.3994450000000  0.4985560000000  0.4983990000000 1.0
C      1  0.5095080000000  0.5200310000000  0.4085490000000 1.0
C      1  0.4800500000000  0.4234370000000  0.4595610000000 1.0
C      1  0.4943470000000  0.5277970000000  0.5622970000000 1.0
C      1  0.5355600000000  0.5492230000000  0.4414590000000 1.0
C      1  0.5108250000000  0.5353880000000  0.4531630000000 1.0
C      1  0.4636310000000  0.5524130000000  0.5371060000000 1.0
C      1  0.4340820000000  0.5016450000000  0.5319730000000 1.0
C      1  0.5028010000000  0.5002430000000  0.5613940000000 1.0
C      1  0.5574190000000  0.5044980000000  0.5669760000000 1.0
C      1  0.4668700000000  0.5016460000000  0.5298740000000 1.0
C      1  0.5454600000000  0.5221500000000  0.4944430000000 1.0
C      1  0.5373830000000  0.5163440000000  0.4094210000000 1.0
C      1  0.4840510000000  0.3994270000000  0.5040210000000 1.0
C      1  0.4238010000000  0.4509170000000  0.4969500000000 1.0
C      1  0.5039550000000  0.4527950000000  0.4919690000000 1.0
C      1  0.5149550000000  0.5665400000000  0.5392330000000 1.0
C      1  0.5614160000000  0.4304430000000  0.5109670000000 1.0
C      1  0.5324700000000  0.4953700000000  0.4860380000000 1.0
C      1  0.4299140000000  0.5403770000000  0.4970300000000 1.0
C      1  0.5704660000000  0.4348410000000  0.4857760000000 1.0
C      1  0.4767200000000  0.5438600000000  0.4829340000000 1.0
C      1  0.5312660000000  0.4285470000000  0.5135700000000 1.0
C      1  0.4211350000000  0.4740530000000  0.4614460000000 1.0
C      1  0.4342010000000  0.4938660000000  0.4455040000000 1.0
C      1  0.5656380000000  0.4585130000000  0.4696980000000 1.0
END
