TITL C-140201-7113-4 93.4420809443565 125000 -486.547482072461 0 0 72 (C1) n - 1
REM
REM in /rds/project/t2_vol4/rds-t2-cs072/BORA/CARBON/from-Arr/AIRSS/Generating-Clusters/GAP-ML-2020/Only-C1/SD-CG/HFTN-CG
REM
REM
REM
REM
REM
REM ./C.cell (11c1c37f851c82e70ff6c80c92926a4b)
REM AIRSS Version 0.9.1 bugfix July 2018 build 013d7b7c2542+ Fri, 06 Jul 2018 19:26:36 +0100
REM compiler GCC version 9.3.0
REM options -cpp -mtune=generic -march=x86-64 -g -O0
REM seed 1893002012 -1162488056 1802198553 229167523 -2144070542 -156896038 733143972 190937848 1424963193 -416028965 1114912739 1961199266 -1330755190 1825799794 -486682224 -1491326261 1040932181 -2024503704 -85491339 -2057080009 -2097037928 -1897689235 2105759373 -1252058260 1276664848 -845533670 594933572 -1716534766 1281932850 627451017 -620705688 -475838767 -1424931207
REM
CELL 1.54180   50.00000   50.00000   50.00000   90.00000   90.00000   90.00000
LATT -1
SFAC C  
C      1  0.4657540000000  0.4769880000000  0.4603920000000 1.0
C      1  0.4289410000000  0.4859040000000  0.5009450000000 1.0
C      1  0.4234310000000  0.4733000000000  0.4765820000000 1.0
C      1  0.5216750000000  0.4805420000000  0.4273770000000 1.0
C      1  0.4489710000000  0.5432080000000  0.4756570000000 1.0
C      1  0.4997950000000  0.4709850000000  0.5253550000000 1.0
C      1  0.4889050000000  0.4323810000000  0.4724180000000 1.0
C      1  0.4280180000000  0.5109010000000  0.5137080000000 1.0
C      1  0.4800460000000  0.5796370000000  0.4614770000000 1.0
C      1  0.5202580000000  0.4891780000000  0.5759470000000 1.0
C      1  0.5281230000000  0.5431520000000  0.5611580000000 1.0
C      1  0.5500710000000  0.5244550000000  0.5653160000000 1.0
C      1  0.5167790000000  0.4615860000000  0.5668240000000 1.0
C      1  0.4216270000000  0.4924040000000  0.4552620000000 1.0
C      1  0.4997670000000  0.5164690000000  0.4259400000000 1.0
C      1  0.5168080000000  0.4470960000000  0.5110640000000 1.0
C      1  0.4507540000000  0.4765700000000  0.5163270000000 1.0
C      1  0.4710060000000  0.5619290000000  0.4799740000000 1.0
C      1  0.4603240000000  0.5425540000000  0.5473740000000 1.0
C      1  0.5253930000000  0.5164030000000  0.5133320000000 1.0
C      1  0.5270960000000  0.5064030000000  0.4861030000000 1.0
C      1  0.5148060000000  0.4820540000000  0.4823390000000 1.0
C      1  0.5186200000000  0.5505670000000  0.4627290000000 1.0
C      1  0.5290700000000  0.5590630000000  0.4876560000000 1.0
C      1  0.5604450000000  0.5153510000000  0.5171890000000 1.0
C      1  0.5663570000000  0.5340890000000  0.4921240000000 1.0
C      1  0.4945930000000  0.4876860000000  0.4227920000000 1.0
C      1  0.4820320000000  0.5361420000000  0.4365890000000 1.0
C      1  0.4704510000000  0.4267830000000  0.5110290000000 1.0
C      1  0.5706600000000  0.5185080000000  0.4689490000000 1.0
C      1  0.4989880000000  0.4465620000000  0.4497690000000 1.0
C      1  0.4416950000000  0.5332020000000  0.5018780000000 1.0
C      1  0.5660270000000  0.5218440000000  0.5438080000000 1.0
C      1  0.4476860000000  0.4999790000000  0.4519270000000 1.0
C      1  0.4867460000000  0.5184800000000  0.4778810000000 1.0
C      1  0.5556150000000  0.5587210000000  0.4909520000000 1.0
C      1  0.4414990000000  0.5255560000000  0.5591720000000 1.0
C      1  0.4982790000000  0.5752140000000  0.5509480000000 1.0
C      1  0.5027980000000  0.5054730000000  0.5589800000000 1.0
C      1  0.4856270000000  0.4888060000000  0.4841130000000 1.0
C      1  0.4860580000000  0.5424310000000  0.5000990000000 1.0
C      1  0.5273160000000  0.5087170000000  0.4381610000000 1.0
C      1  0.5249700000000  0.4562420000000  0.4423600000000 1.0
C      1  0.4610790000000  0.4340950000000  0.4823720000000 1.0
C      1  0.4617820000000  0.5252640000000  0.4563800000000 1.0
C      1  0.5143710000000  0.5461290000000  0.5104840000000 1.0
C      1  0.4837580000000  0.5534210000000  0.5605020000000 1.0
C      1  0.5454270000000  0.4583710000000  0.4618770000000 1.0
C      1  0.5633930000000  0.4792940000000  0.4568990000000 1.0
C      1  0.5190820000000  0.5611240000000  0.5374490000000 1.0
C      1  0.5768370000000  0.4917060000000  0.4792030000000 1.0
C      1  0.5381200000000  0.4478640000000  0.5563460000000 1.0
C      1  0.5418350000000  0.4474640000000  0.5298010000000 1.0
C      1  0.5695730000000  0.4882100000000  0.5060160000000 1.0
C      1  0.4619440000000  0.4323110000000  0.5356230000000 1.0
C      1  0.5424310000000  0.5031720000000  0.5824490000000 1.0
C      1  0.4628330000000  0.5413380000000  0.5185980000000 1.0
C      1  0.4977420000000  0.4275910000000  0.4999870000000 1.0
C      1  0.5555560000000  0.4639280000000  0.5102950000000 1.0
C      1  0.5559720000000  0.5062160000000  0.4462040000000 1.0
C      1  0.4473320000000  0.4774510000000  0.5445510000000 1.0
C      1  0.5104420000000  0.4977450000000  0.5317620000000 1.0
C      1  0.4357850000000  0.5039470000000  0.5438690000000 1.0
C      1  0.5151870000000  0.5218670000000  0.4649400000000 1.0
C      1  0.4776050000000  0.4791640000000  0.5092910000000 1.0
C      1  0.4943480000000  0.5586240000000  0.4507630000000 1.0
C      1  0.4478740000000  0.4560440000000  0.4717810000000 1.0
C      1  0.4922200000000  0.4592960000000  0.5518440000000 1.0
C      1  0.4642750000000  0.4550510000000  0.5537320000000 1.0
C      1  0.4821930000000  0.4674050000000  0.4391430000000 1.0
C      1  0.5344710000000  0.4594550000000  0.4896870000000 1.0
C      1  0.5026540000000  0.5329400000000  0.5681810000000 1.0
END
