TITL C-142778-1121-6 -305.497671144405 125000 -407.458018213549 0 0 58 (C1) n - 1
REM
REM in /rds/project/t2_vol4/rds-t2-cs072/BORA/CARBON/from-Arr/AIRSS/Generating-Clusters/GAP-ML-2020/Only-C1/SD-CG/HFTN-CG
REM
REM
REM
REM
REM
REM ./C.cell (11c1c37f851c82e70ff6c80c92926a4b)
REM AIRSS Version 0.9.1 bugfix July 2018 build 013d7b7c2542+ Fri, 06 Jul 2018 19:26:36 +0100
REM compiler GCC version 9.3.0
REM options -cpp -mtune=generic -march=x86-64 -g -O0
REM seed 214798231 -1801175699 -2115612237 -126297907 223842857 1742810284 -1827726785 -313316177 -1472383150 360720870 -1995426696 178553503 -1563025554 -1917077423 826689977 1980904408 337763438 613531374 -606599893 455734278 1235823608 1639282431 1034392958 -72000038 -557258037 1706011057 -299909469 -789556427 -1392982807 1761472759 -371459310 57267045 -1044294142
REM
CELL 1.54180   50.00000   50.00000   50.00000   90.00000   90.00000   90.00000
LATT -1
SFAC C  
C      1  0.4919250000000  0.4894980000000  0.5588410000000 1.0
C      1  0.5436250000000  0.5017530000000  0.5518950000000 1.0
C      1  0.5244070000000  0.4976540000000  0.4401620000000 1.0
C      1  0.4920810000000  0.5079180000000  0.4819220000000 1.0
C      1  0.5090790000000  0.4510580000000  0.4589140000000 1.0
C      1  0.4919520000000  0.4210490000000  0.5207120000000 1.0
C      1  0.5264310000000  0.5906880000000  0.5187490000000 1.0
C      1  0.4786100000000  0.4318530000000  0.5425390000000 1.0
C      1  0.4504340000000  0.5371910000000  0.5027600000000 1.0
C      1  0.4663730000000  0.4810800000000  0.5511950000000 1.0
C      1  0.4957900000000  0.4927840000000  0.5038350000000 1.0
C      1  0.4795340000000  0.4259960000000  0.4950930000000 1.0
C      1  0.5475400000000  0.5510210000000  0.4834890000000 1.0
C      1  0.5012450000000  0.5150240000000  0.4336100000000 1.0
C      1  0.5256770000000  0.5241680000000  0.5503830000000 1.0
C      1  0.5493150000000  0.4686490000000  0.4887890000000 1.0
C      1  0.4851210000000  0.4395320000000  0.4690940000000 1.0
C      1  0.4583490000000  0.4524440000000  0.4701830000000 1.0
C      1  0.4564820000000  0.5259380000000  0.5292820000000 1.0
C      1  0.5108540000000  0.5839560000000  0.4956610000000 1.0
C      1  0.5301150000000  0.4265740000000  0.4951450000000 1.0
C      1  0.4619810000000  0.4534970000000  0.5421100000000 1.0
C      1  0.5495840000000  0.5380420000000  0.5078360000000 1.0
C      1  0.4967230000000  0.5532790000000  0.5276360000000 1.0
C      1  0.4462220000000  0.4553390000000  0.5178380000000 1.0
C      1  0.5485930000000  0.4686470000000  0.5174600000000 1.0
C      1  0.4706400000000  0.5445920000000  0.4599530000000 1.0
C      1  0.4471760000000  0.4778390000000  0.4652610000000 1.0
C      1  0.5320230000000  0.4478100000000  0.4775860000000 1.0
C      1  0.5439040000000  0.5363700000000  0.4586890000000 1.0
C      1  0.4808080000000  0.5348800000000  0.5413510000000 1.0
C      1  0.4958950000000  0.5408170000000  0.4447450000000 1.0
C      1  0.5560430000000  0.4954200000000  0.4805740000000 1.0
C      1  0.4382300000000  0.4824250000000  0.5141950000000 1.0
C      1  0.5568700000000  0.4941300000000  0.5273530000000 1.0
C      1  0.5124610000000  0.5134590000000  0.4965320000000 1.0
C      1  0.4498450000000  0.4986320000000  0.5347370000000 1.0
C      1  0.4993140000000  0.4663960000000  0.5102120000000 1.0
C      1  0.5368810000000  0.5759020000000  0.5368070000000 1.0
C      1  0.4683950000000  0.5547830000000  0.4882500000000 1.0
C      1  0.4981260000000  0.5174450000000  0.5560200000000 1.0
C      1  0.5379660000000  0.4811600000000  0.5699500000000 1.0
C      1  0.4583040000000  0.4973020000000  0.4470220000000 1.0
C      1  0.4537420000000  0.4401660000000  0.4959750000000 1.0
C      1  0.5067630000000  0.4741920000000  0.4422860000000 1.0
C      1  0.5458620000000  0.5083870000000  0.4563000000000 1.0
C      1  0.4881980000000  0.5677990000000  0.5043280000000 1.0
C      1  0.5289050000000  0.5461450000000  0.5311910000000 1.0
C      1  0.5200010000000  0.5528830000000  0.4535270000000 1.0
C      1  0.4389050000000  0.5198910000000  0.4831050000000 1.0
C      1  0.5165440000000  0.4722210000000  0.5554220000000 1.0
C      1  0.5205710000000  0.4279310000000  0.5205210000000 1.0
C      1  0.5595450000000  0.5113350000000  0.5053990000000 1.0
C      1  0.4357990000000  0.4922740000000  0.4878540000000 1.0
C      1  0.4837180000000  0.4922840000000  0.4358270000000 1.0
C      1  0.5255640000000  0.5692960000000  0.4769870000000 1.0
C      1  0.5227720000000  0.4577810000000  0.5292730000000 1.0
C      1  0.4521850000000  0.5234220000000  0.4576310000000 1.0
END
