TITL C-144795-3115-3 0.00849035087297369 125000 -516.237403779541 0 0 75 (C1) n - 1
REM
REM in /rds/project/t2_vol4/rds-t2-cs072/BORA/CARBON/from-Arr/AIRSS/Generating-Clusters/GAP-ML-2020/Only-C1/SD-CG/HFTN-CG
REM
REM
REM
REM
REM
REM ./C.cell (11c1c37f851c82e70ff6c80c92926a4b)
REM AIRSS Version 0.9.1 bugfix July 2018 build 013d7b7c2542+ Fri, 06 Jul 2018 19:26:36 +0100
REM compiler GCC version 9.3.0
REM options -cpp -mtune=generic -march=x86-64 -g -O0
REM seed -289167427 1144621800 -1681101484 1592696045 2059999150 -1544463395 -1340913157 -1816837971 1699882309 1253030490 -473387860 1662896184 1679873742 -890430142 266899326 540895865 237539664 1955231097 1437546384 1184513116 1862649735 -222005828 -1347755320 366612675 1979437038 -168467898 459879589 836869326 106197983 -1192875556 -690364149 -1671707926 -1782441973
REM
CELL 1.54180   50.00000   50.00000   50.00000   90.00000   90.00000   90.00000
LATT -1
SFAC C  
C      1  0.4636650000000  0.5695380000000  0.5346420000000 1.0
C      1  0.4315000000000  0.4649750000000  0.5251490000000 1.0
C      1  0.4607560000000  0.4430270000000  0.4322400000000 1.0
C      1  0.4404860000000  0.4966210000000  0.4794870000000 1.0
C      1  0.5698240000000  0.4820740000000  0.5062460000000 1.0
C      1  0.5292930000000  0.4774400000000  0.5545670000000 1.0
C      1  0.4369090000000  0.4672950000000  0.5495190000000 1.0
C      1  0.5672250000000  0.4972000000000  0.5305700000000 1.0
C      1  0.4930500000000  0.4996280000000  0.4689920000000 1.0
C      1  0.5389970000000  0.5128020000000  0.4480850000000 1.0
C      1  0.5370310000000  0.5751130000000  0.4843810000000 1.0
C      1  0.5666620000000  0.5241740000000  0.5227510000000 1.0
C      1  0.5114100000000  0.5587600000000  0.5554370000000 1.0
C      1  0.5039330000000  0.5465480000000  0.4650120000000 1.0
C      1  0.5112980000000  0.4541790000000  0.4332280000000 1.0
C      1  0.4419410000000  0.4844890000000  0.4519370000000 1.0
C      1  0.5387850000000  0.5752740000000  0.5095800000000 1.0
C      1  0.5126050000000  0.5365720000000  0.5143650000000 1.0
C      1  0.5577990000000  0.5239070000000  0.4953120000000 1.0
C      1  0.5566930000000  0.4910590000000  0.4616720000000 1.0
C      1  0.5137850000000  0.4317470000000  0.5530670000000 1.0
C      1  0.5572570000000  0.4582390000000  0.4969390000000 1.0
C      1  0.4463390000000  0.4715180000000  0.4995930000000 1.0
C      1  0.5031010000000  0.5140830000000  0.5662610000000 1.0
C      1  0.5124160000000  0.4879310000000  0.5305910000000 1.0
C      1  0.5206730000000  0.4284440000000  0.4999110000000 1.0
C      1  0.4720570000000  0.4828500000000  0.5125160000000 1.0
C      1  0.5511170000000  0.4631660000000  0.4677710000000 1.0
C      1  0.4387580000000  0.5393360000000  0.5035670000000 1.0
C      1  0.4961720000000  0.4828210000000  0.4907140000000 1.0
C      1  0.5323860000000  0.4492630000000  0.5429920000000 1.0
C      1  0.4463170000000  0.5095780000000  0.5664400000000 1.0
C      1  0.4573670000000  0.5015400000000  0.4341340000000 1.0
C      1  0.4654100000000  0.5907030000000  0.5145150000000 1.0
C      1  0.5055120000000  0.4862380000000  0.5726660000000 1.0
C      1  0.5518120000000  0.4958730000000  0.5550950000000 1.0
C      1  0.5406120000000  0.4426760000000  0.5146800000000 1.0
C      1  0.5305790000000  0.5572540000000  0.5311700000000 1.0
C      1  0.4509080000000  0.5237980000000  0.5442050000000 1.0
C      1  0.5219000000000  0.5049380000000  0.4251280000000 1.0
C      1  0.4873390000000  0.5392090000000  0.4413590000000 1.0
C      1  0.5697900000000  0.5005670000000  0.4842380000000 1.0
C      1  0.4874690000000  0.4695690000000  0.5350630000000 1.0
C      1  0.4630460000000  0.5262550000000  0.4483410000000 1.0
C      1  0.5071470000000  0.4798800000000  0.4218830000000 1.0
C      1  0.4978700000000  0.5203510000000  0.4239050000000 1.0
C      1  0.4999190000000  0.5151600000000  0.5337980000000 1.0
C      1  0.4934870000000  0.4402020000000  0.5357190000000 1.0
C      1  0.5187390000000  0.4284610000000  0.4714690000000 1.0
C      1  0.5309660000000  0.5600680000000  0.4619630000000 1.0
C      1  0.4818300000000  0.4960530000000  0.4204280000000 1.0
C      1  0.4751310000000  0.4304830000000  0.4867640000000 1.0
C      1  0.5444940000000  0.5233480000000  0.5621780000000 1.0
C      1  0.5283190000000  0.5188170000000  0.4958790000000 1.0
C      1  0.5201570000000  0.5348160000000  0.5717870000000 1.0
C      1  0.4426220000000  0.5486840000000  0.5314420000000 1.0
C      1  0.4811250000000  0.4761580000000  0.5629860000000 1.0
C      1  0.4538240000000  0.4825050000000  0.5668550000000 1.0
C      1  0.4915060000000  0.4255160000000  0.4641340000000 1.0
C      1  0.5468050000000  0.5409450000000  0.4495050000000 1.0
C      1  0.5526620000000  0.5400160000000  0.5409810000000 1.0
C      1  0.5204150000000  0.4905680000000  0.5036250000000 1.0
C      1  0.4870310000000  0.4387860000000  0.4393300000000 1.0
C      1  0.4825310000000  0.5778050000000  0.5007160000000 1.0
C      1  0.4530280000000  0.4487160000000  0.4812110000000 1.0
C      1  0.4855850000000  0.5650110000000  0.5520420000000 1.0
C      1  0.4721250000000  0.5124250000000  0.5229670000000 1.0
C      1  0.4251870000000  0.5202190000000  0.4900230000000 1.0
C      1  0.4916210000000  0.5504090000000  0.4944390000000 1.0
C      1  0.4934940000000  0.4282830000000  0.5094370000000 1.0
C      1  0.4479830000000  0.4562840000000  0.4536120000000 1.0
C      1  0.5312360000000  0.4471030000000  0.4542200000000 1.0
C      1  0.4686800000000  0.5313520000000  0.4985040000000 1.0
C      1  0.4663020000000  0.5142180000000  0.4749730000000 1.0
C      1  0.5161950000000  0.5190880000000  0.4690980000000 1.0
END
