TITL C-142169-2757-1 0.167375329137273 125000 -749.274426975406 0 0 110 (C1) n - 1
REM
REM in /rds/project/t2_vol4/rds-t2-cs072/BORA/CARBON/from-Arr/AIRSS/Generating-Clusters/GAP-ML-2020/Only-C1/SD-CG/HFTN-CG
REM
REM
REM
REM
REM
REM ./C.cell (11c1c37f851c82e70ff6c80c92926a4b)
REM AIRSS Version 0.9.1 bugfix July 2018 build 013d7b7c2542+ Fri, 06 Jul 2018 19:26:36 +0100
REM compiler GCC version 9.3.0
REM options -cpp -mtune=generic -march=x86-64 -g -O0
REM seed -1893141461 1667409588 2034803590 1734506708 1449966979 402694785 -906408342 998255033 -1872851335 -1912324831 -1325278590 1296692111 -987816745 1318581238 -1960619823 1653980635 -2070843520 -1772126847 620000956 -1019085112 -918147558 975858536 -741795802 1330327801 -74384371 148345199 -1248671640 -42988144 -195895937 1379926331 239082312 984790536 1098980504
REM
CELL 1.54180   50.00000   50.00000   50.00000   90.00000   90.00000   90.00000
LATT -1
SFAC C  
C      1  0.5364850000000  0.4670340000000  0.5748340000000 1.0
C      1  0.5312740000000  0.4161110000000  0.5198160000000 1.0
C      1  0.4734850000000  0.5409660000000  0.4235370000000 1.0
C      1  0.5266830000000  0.5112910000000  0.5362370000000 1.0
C      1  0.5145150000000  0.5115400000000  0.5798880000000 1.0
C      1  0.4955500000000  0.5849170000000  0.4996550000000 1.0
C      1  0.4973890000000  0.4851450000000  0.4317280000000 1.0
C      1  0.5688640000000  0.4534950000000  0.5434040000000 1.0
C      1  0.5614810000000  0.4739450000000  0.5624800000000 1.0
C      1  0.4149620000000  0.5172180000000  0.4684810000000 1.0
C      1  0.4880540000000  0.4538240000000  0.5139890000000 1.0
C      1  0.5516130000000  0.5678800000000  0.5463160000000 1.0
C      1  0.5638300000000  0.5018920000000  0.5586280000000 1.0
C      1  0.4695170000000  0.4948620000000  0.4196370000000 1.0
C      1  0.5395240000000  0.5182430000000  0.5643910000000 1.0
C      1  0.4333080000000  0.4468920000000  0.4589540000000 1.0
C      1  0.4969940000000  0.5220890000000  0.5410120000000 1.0
C      1  0.4596330000000  0.5735660000000  0.4626240000000 1.0
C      1  0.4815390000000  0.5075130000000  0.4692050000000 1.0
C      1  0.4313710000000  0.5598920000000  0.5316930000000 1.0
C      1  0.4517890000000  0.4783470000000  0.4925670000000 1.0
C      1  0.5025930000000  0.5125630000000  0.4464930000000 1.0
C      1  0.4583200000000  0.4994260000000  0.5145710000000 1.0
C      1  0.4899790000000  0.4667270000000  0.5741130000000 1.0
C      1  0.5479360000000  0.5304860000000  0.4413070000000 1.0
C      1  0.5495840000000  0.5116140000000  0.4205650000000 1.0
C      1  0.5262070000000  0.4928990000000  0.4786560000000 1.0
C      1  0.4679750000000  0.4815550000000  0.5630440000000 1.0
C      1  0.5009120000000  0.5383680000000  0.4314770000000 1.0
C      1  0.4645270000000  0.5321840000000  0.4708010000000 1.0
C      1  0.4182170000000  0.4472970000000  0.4815720000000 1.0
C      1  0.5716470000000  0.5238190000000  0.4613700000000 1.0
C      1  0.4578630000000  0.4317010000000  0.4619730000000 1.0
C      1  0.5268760000000  0.4481040000000  0.4448230000000 1.0
C      1  0.4200380000000  0.4704470000000  0.5250440000000 1.0
C      1  0.5280940000000  0.5795180000000  0.5326520000000 1.0
C      1  0.4947450000000  0.4833730000000  0.5175720000000 1.0
C      1  0.4677830000000  0.5187680000000  0.4076370000000 1.0
C      1  0.5772530000000  0.5353320000000  0.4861010000000 1.0
C      1  0.6038340000000  0.4741580000000  0.5079910000000 1.0
C      1  0.4871230000000  0.4676550000000  0.4543890000000 1.0
C      1  0.5648630000000  0.4748400000000  0.4476430000000 1.0
C      1  0.4862070000000  0.5403110000000  0.5195930000000 1.0
C      1  0.4199480000000  0.4915720000000  0.5450630000000 1.0
C      1  0.5227580000000  0.4704720000000  0.4261650000000 1.0
C      1  0.5021060000000  0.5757590000000  0.5455770000000 1.0
C      1  0.5424850000000  0.4375170000000  0.5378940000000 1.0
C      1  0.4506540000000  0.5756410000000  0.5161910000000 1.0
C      1  0.4995510000000  0.4425340000000  0.5618300000000 1.0
C      1  0.4116500000000  0.5398130000000  0.5195500000000 1.0
C      1  0.5478750000000  0.4851980000000  0.4268710000000 1.0
C      1  0.4600070000000  0.4496890000000  0.5057040000000 1.0
C      1  0.4550050000000  0.5464860000000  0.4462060000000 1.0
C      1  0.5211250000000  0.4830410000000  0.5304070000000 1.0
C      1  0.5741990000000  0.4954170000000  0.4686660000000 1.0
C      1  0.5916390000000  0.5193740000000  0.5050270000000 1.0
C      1  0.4449470000000  0.5359980000000  0.5450370000000 1.0
C      1  0.5236170000000  0.5539080000000  0.4372860000000 1.0
C      1  0.4458330000000  0.5411220000000  0.4920210000000 1.0
C      1  0.5524090000000  0.4906490000000  0.4924210000000 1.0
C      1  0.5030040000000  0.4117600000000  0.5219620000000 1.0
C      1  0.5540360000000  0.4490060000000  0.4547280000000 1.0
C      1  0.4655510000000  0.4243230000000  0.4890760000000 1.0
C      1  0.4357730000000  0.5216520000000  0.4486080000000 1.0
C      1  0.5283740000000  0.5400270000000  0.4835250000000 1.0
C      1  0.5072360000000  0.4264820000000  0.4508450000000 1.0
C      1  0.5000750000000  0.5611330000000  0.5686990000000 1.0
C      1  0.5114760000000  0.4115430000000  0.4749390000000 1.0
C      1  0.4616990000000  0.5292660000000  0.5697270000000 1.0
C      1  0.4818790000000  0.5720280000000  0.5223890000000 1.0
C      1  0.4889070000000  0.5757160000000  0.4712880000000 1.0
C      1  0.4197190000000  0.4733550000000  0.4939110000000 1.0
C      1  0.4193040000000  0.5199280000000  0.5398000000000 1.0
C      1  0.5131620000000  0.4833640000000  0.5815390000000 1.0
C      1  0.4369050000000  0.4866070000000  0.5671330000000 1.0
C      1  0.5280090000000  0.5180090000000  0.4611590000000 1.0
C      1  0.5317020000000  0.5703090000000  0.4805300000000 1.0
C      1  0.5552710000000  0.4392060000000  0.4811170000000 1.0
C      1  0.5033670000000  0.5328290000000  0.4973220000000 1.0
C      1  0.4115180000000  0.4887640000000  0.4692210000000 1.0
C      1  0.4645770000000  0.4841490000000  0.4652760000000 1.0
C      1  0.5131080000000  0.4665740000000  0.4716700000000 1.0
C      1  0.4910630000000  0.4327040000000  0.5367810000000 1.0
C      1  0.4820410000000  0.4390700000000  0.4490260000000 1.0
C      1  0.4548730000000  0.5035070000000  0.5784870000000 1.0
C      1  0.4775160000000  0.4966140000000  0.5365360000000 1.0
C      1  0.4923190000000  0.5333390000000  0.5698150000000 1.0
C      1  0.4900750000000  0.4099070000000  0.4947630000000 1.0
C      1  0.4472090000000  0.4937950000000  0.4407810000000 1.0
C      1  0.5344520000000  0.4602350000000  0.5176230000000 1.0
C      1  0.5509350000000  0.5453970000000  0.5629990000000 1.0
C      1  0.5744540000000  0.5187280000000  0.5331880000000 1.0
C      1  0.5975690000000  0.4959100000000  0.4920330000000 1.0
C      1  0.5499040000000  0.5131740000000  0.5157950000000 1.0
C      1  0.4394180000000  0.4513030000000  0.5264590000000 1.0
C      1  0.4467250000000  0.5706880000000  0.4884450000000 1.0
C      1  0.5591570000000  0.4615440000000  0.5009560000000 1.0
C      1  0.4874260000000  0.5475510000000  0.4790490000000 1.0
C      1  0.5710780000000  0.5464090000000  0.5439940000000 1.0
C      1  0.4586790000000  0.5289710000000  0.5163130000000 1.0
C      1  0.5520090000000  0.5369860000000  0.4989360000000 1.0
C      1  0.5169830000000  0.5741350000000  0.4567870000000 1.0
C      1  0.5011410000000  0.5029540000000  0.4924600000000 1.0
C      1  0.5276650000000  0.4427940000000  0.5628360000000 1.0
C      1  0.5230010000000  0.5839300000000  0.5041580000000 1.0
C      1  0.5136280000000  0.4506230000000  0.4967490000000 1.0
C      1  0.4170230000000  0.5342620000000  0.4917530000000 1.0
C      1  0.5830130000000  0.4606830000000  0.5191060000000 1.0
C      1  0.4262190000000  0.4745470000000  0.4483200000000 1.0
C      1  0.5335290000000  0.4222120000000  0.4910090000000 1.0
END
