TITL C-141697-1545-3 31.5415100579298 125000 -206.432449546059 0 0 31 (C1) n - 1
REM
REM in /rds/project/t2_vol4/rds-t2-cs072/BORA/CARBON/from-Arr/AIRSS/Generating-Clusters/GAP-ML-2020/Only-C1/SD-CG/HFTN-CG
REM
REM
REM
REM
REM
REM ./C.cell (11c1c37f851c82e70ff6c80c92926a4b)
REM AIRSS Version 0.9.1 bugfix July 2018 build 013d7b7c2542+ Fri, 06 Jul 2018 19:26:36 +0100
REM compiler GCC version 9.3.0
REM options -cpp -mtune=generic -march=x86-64 -g -O0
REM seed 311335455 -1676882642 -1221458500 1004916621 -2007598748 -162464455 1042497540 -1531755585 -1510626531 1747257766 -1154460138 -1406532591 670422677 -1450422366 1794722679 -520568531 1576592418 1688027805 631890165 1544915219 -1652415880 -1797209608 950517909 -526036136 586657746 851303719 -1698865999 -2145897090 1301731094 -1621026140 448571525 1705414328 -191036041
REM
CELL 1.54180   50.00000   50.00000   50.00000   90.00000   90.00000   90.00000
LATT -1
SFAC C  
C      1  0.4882640000000  0.4332290000000  0.4723760000000 1.0
C      1  0.4876700000000  0.4861870000000  0.5445620000000 1.0
C      1  0.5249930000000  0.5453710000000  0.5286440000000 1.0
C      1  0.4507480000000  0.5120740000000  0.5197480000000 1.0
C      1  0.5010960000000  0.4391970000000  0.4953310000000 1.0
C      1  0.5571870000000  0.5235490000000  0.4954060000000 1.0
C      1  0.5447940000000  0.5042200000000  0.4498200000000 1.0
C      1  0.5250010000000  0.4720370000000  0.5193900000000 1.0
C      1  0.4354540000000  0.5077440000000  0.4955360000000 1.0
C      1  0.5148280000000  0.4995380000000  0.4578270000000 1.0
C      1  0.5082610000000  0.4743970000000  0.4688530000000 1.0
C      1  0.4978390000000  0.5460840000000  0.4717870000000 1.0
C      1  0.5410450000000  0.5233700000000  0.5185260000000 1.0
C      1  0.5587670000000  0.5160530000000  0.4719430000000 1.0
C      1  0.4985100000000  0.5659120000000  0.4892290000000 1.0
C      1  0.5299090000000  0.4989750000000  0.5295420000000 1.0
C      1  0.4588310000000  0.4691550000000  0.4828120000000 1.0
C      1  0.4818820000000  0.4595220000000  0.4669500000000 1.0
C      1  0.5039610000000  0.5610900000000  0.5152940000000 1.0
C      1  0.5049070000000  0.5341800000000  0.5473810000000 1.0
C      1  0.4851280000000  0.4468940000000  0.5181050000000 1.0
C      1  0.5018040000000  0.4629700000000  0.5340990000000 1.0
C      1  0.5571850000000  0.4991360000000  0.4263580000000 1.0
C      1  0.5073330000000  0.5064710000000  0.5466220000000 1.0
C      1  0.4830960000000  0.5482720000000  0.5346320000000 1.0
C      1  0.5014940000000  0.5233150000000  0.4611270000000 1.0
C      1  0.4426420000000  0.4911480000000  0.4777490000000 1.0
C      1  0.4601090000000  0.5370160000000  0.5272790000000 1.0
C      1  0.4623670000000  0.4642640000000  0.5118500000000 1.0
C      1  0.4632300000000  0.4878320000000  0.5292890000000 1.0
C      1  0.5216660000000  0.4607990000000  0.4919340000000 1.0
END
