TITL C-144818-3263-6 13.6320698913281 125000 -868.001539783835 0 0 123 (C1) n - 1
REM
REM in /rds/project/t2_vol4/rds-t2-cs072/BORA/CARBON/from-Arr/AIRSS/Generating-Clusters/GAP-ML-2020/Only-C1/SD-CG/HFTN-CG
REM
REM
REM
REM
REM
REM ./C.cell (11c1c37f851c82e70ff6c80c92926a4b)
REM AIRSS Version 0.9.1 bugfix July 2018 build 013d7b7c2542+ Fri, 06 Jul 2018 19:26:36 +0100
REM compiler GCC version 9.3.0
REM options -cpp -mtune=generic -march=x86-64 -g -O0
REM seed -838279838 -1017280978 1324705776 -242236127 1619592821 125399257 300473562 -305028223 798757666 530557684 993572591 1945199564 -659326954 1514867042 1048255346 -531363202 1718693046 -934762626 -641881648 632504962 -1561698806 1790530882 616199696 1584908046 -1072172278 -1070254188 -2043202193 -2104333030 -784758462 -1474141903 -1760159037 -1194633715 -554267290
REM
CELL 1.54180   50.00000   50.00000   50.00000   90.00000   90.00000   90.00000
LATT -1
SFAC C  
C      1  0.4238180000000  0.5538280000000  0.5022990000000 1.0
C      1  0.4419740000000  0.5429480000000  0.5545560000000 1.0
C      1  0.4735020000000  0.4596100000000  0.4955000000000 1.0
C      1  0.5717440000000  0.4679310000000  0.5420170000000 1.0
C      1  0.5264750000000  0.5076090000000  0.4039170000000 1.0
C      1  0.5362930000000  0.4854380000000  0.5111480000000 1.0
C      1  0.4471350000000  0.4417390000000  0.4909720000000 1.0
C      1  0.4870910000000  0.5842880000000  0.5248300000000 1.0
C      1  0.5590280000000  0.5368480000000  0.5378450000000 1.0
C      1  0.4212560000000  0.5262980000000  0.5445910000000 1.0
C      1  0.4597130000000  0.4154040000000  0.5078360000000 1.0
C      1  0.4491280000000  0.4362900000000  0.4587080000000 1.0
C      1  0.5298390000000  0.5203660000000  0.4527050000000 1.0
C      1  0.5358160000000  0.5790460000000  0.5204060000000 1.0
C      1  0.5441630000000  0.4283240000000  0.5431250000000 1.0
C      1  0.4533990000000  0.4495890000000  0.5710500000000 1.0
C      1  0.5153440000000  0.5318380000000  0.4967510000000 1.0
C      1  0.5459410000000  0.5105570000000  0.5804150000000 1.0
C      1  0.5275080000000  0.5437120000000  0.4709860000000 1.0
C      1  0.5812770000000  0.5310150000000  0.4476840000000 1.0
C      1  0.5091080000000  0.4978480000000  0.4560260000000 1.0
C      1  0.5569500000000  0.4713160000000  0.4227840000000 1.0
C      1  0.4656000000000  0.5852170000000  0.5058280000000 1.0
C      1  0.5056150000000  0.5967150000000  0.4862730000000 1.0
C      1  0.5193530000000  0.4217100000000  0.5572630000000 1.0
C      1  0.4633600000000  0.5257440000000  0.4751490000000 1.0
C      1  0.4603080000000  0.5483930000000  0.5324840000000 1.0
C      1  0.5191710000000  0.4398790000000  0.5806670000000 1.0
C      1  0.4235990000000  0.5549870000000  0.4739010000000 1.0
C      1  0.5177390000000  0.4611130000000  0.4118400000000 1.0
C      1  0.5711900000000  0.4509980000000  0.4733680000000 1.0
C      1  0.4861500000000  0.4795850000000  0.4498000000000 1.0
C      1  0.5240490000000  0.5539040000000  0.5683360000000 1.0
C      1  0.5319290000000  0.4814960000000  0.4645650000000 1.0
C      1  0.4167820000000  0.4798360000000  0.5119290000000 1.0
C      1  0.5374610000000  0.4495480000000  0.4312210000000 1.0
C      1  0.5516420000000  0.4337050000000  0.4786000000000 1.0
C      1  0.5584540000000  0.4487830000000  0.5578560000000 1.0
C      1  0.5187850000000  0.4853880000000  0.5344470000000 1.0
C      1  0.4990880000000  0.4559320000000  0.5940220000000 1.0
C      1  0.5446900000000  0.4373010000000  0.5120380000000 1.0
C      1  0.4730120000000  0.4819610000000  0.4760260000000 1.0
C      1  0.4439600000000  0.5632750000000  0.4541350000000 1.0
C      1  0.5680610000000  0.5201560000000  0.4237990000000 1.0
C      1  0.5799300000000  0.4685860000000  0.4917820000000 1.0
C      1  0.4778450000000  0.5007320000000  0.5317910000000 1.0
C      1  0.4670970000000  0.4144300000000  0.5364170000000 1.0
C      1  0.4479220000000  0.4596330000000  0.5436750000000 1.0
C      1  0.5375200000000  0.4840080000000  0.5900210000000 1.0
C      1  0.5028870000000  0.4505210000000  0.4885360000000 1.0
C      1  0.4261500000000  0.4786510000000  0.5394240000000 1.0
C      1  0.5991090000000  0.5050500000000  0.5287870000000 1.0
C      1  0.4963170000000  0.5504520000000  0.4200840000000 1.0
C      1  0.4959430000000  0.5587710000000  0.5667680000000 1.0
C      1  0.5117540000000  0.5384840000000  0.5271650000000 1.0
C      1  0.4695470000000  0.4737290000000  0.4263190000000 1.0
C      1  0.4267900000000  0.5010050000000  0.5571490000000 1.0
C      1  0.4471300000000  0.5055190000000  0.5789990000000 1.0
C      1  0.5025090000000  0.4616230000000  0.5326280000000 1.0
C      1  0.5040120000000  0.4106760000000  0.5146590000000 1.0
C      1  0.4257800000000  0.4924610000000  0.4606080000000 1.0
C      1  0.4809000000000  0.5426650000000  0.5842950000000 1.0
C      1  0.4677370000000  0.5214400000000  0.5163210000000 1.0
C      1  0.4684010000000  0.5781950000000  0.4564780000000 1.0
C      1  0.4172440000000  0.5318110000000  0.4579770000000 1.0
C      1  0.5788900000000  0.5030800000000  0.4593510000000 1.0
C      1  0.5726520000000  0.4923330000000  0.4319050000000 1.0
C      1  0.4464910000000  0.4564690000000  0.4391170000000 1.0
C      1  0.4914180000000  0.5008620000000  0.6018270000000 1.0
C      1  0.5813380000000  0.4948000000000  0.5473440000000 1.0
C      1  0.4705310000000  0.4615330000000  0.5896380000000 1.0
C      1  0.5245260000000  0.5520120000000  0.4252960000000 1.0
C      1  0.5192760000000  0.5670450000000  0.4524370000000 1.0
C      1  0.4983300000000  0.5047100000000  0.4024950000000 1.0
C      1  0.4458890000000  0.5667470000000  0.5140770000000 1.0
C      1  0.5389690000000  0.5264530000000  0.4232780000000 1.0
C      1  0.5178360000000  0.4762530000000  0.4891080000000 1.0
C      1  0.5899580000000  0.4938030000000  0.4843830000000 1.0
C      1  0.5360450000000  0.5545450000000  0.5403010000000 1.0
C      1  0.4143510000000  0.5296960000000  0.5167660000000 1.0
C      1  0.4857820000000  0.5249730000000  0.4924920000000 1.0
C      1  0.4536240000000  0.5227040000000  0.4198770000000 1.0
C      1  0.4080200000000  0.5065940000000  0.5010860000000 1.0
C      1  0.5494390000000  0.5042640000000  0.4694760000000 1.0
C      1  0.5341760000000  0.4334260000000  0.4551960000000 1.0
C      1  0.5272430000000  0.5317090000000  0.5856840000000 1.0
C      1  0.4812260000000  0.5271740000000  0.4104850000000 1.0
C      1  0.5605000000000  0.4644810000000  0.5146860000000 1.0
C      1  0.4747270000000  0.4698850000000  0.5253710000000 1.0
C      1  0.4482180000000  0.4948490000000  0.4207310000000 1.0
C      1  0.5893730000000  0.5137880000000  0.5052910000000 1.0
C      1  0.4965290000000  0.4098130000000  0.5414490000000 1.0
C      1  0.4930380000000  0.4753890000000  0.4081380000000 1.0
C      1  0.5003920000000  0.5262590000000  0.5963910000000 1.0
C      1  0.5373530000000  0.4812050000000  0.4038840000000 1.0
C      1  0.4660390000000  0.4159760000000  0.4529650000000 1.0
C      1  0.4239970000000  0.4571820000000  0.4972560000000 1.0
C      1  0.5113830000000  0.4808850000000  0.6006950000000 1.0
C      1  0.5111240000000  0.5926550000000  0.5141950000000 1.0
C      1  0.4883160000000  0.4110680000000  0.4676070000000 1.0
C      1  0.5593880000000  0.5530370000000  0.4857580000000 1.0
C      1  0.5473080000000  0.5779140000000  0.4944780000000 1.0
C      1  0.4776000000000  0.5909830000000  0.4804810000000 1.0
C      1  0.4291700000000  0.4794260000000  0.4364010000000 1.0
C      1  0.4662420000000  0.4897410000000  0.5930330000000 1.0
C      1  0.4549830000000  0.5329040000000  0.5774560000000 1.0
C      1  0.4379610000000  0.5394090000000  0.4379080000000 1.0
C      1  0.5086780000000  0.4307170000000  0.4662570000000 1.0
C      1  0.4499630000000  0.4301660000000  0.5523090000000 1.0
C      1  0.5643100000000  0.5311270000000  0.5083110000000 1.0
C      1  0.5637390000000  0.5160800000000  0.5575660000000 1.0
C      1  0.5037620000000  0.5093560000000  0.5391860000000 1.0
C      1  0.5748800000000  0.5521070000000  0.4621340000000 1.0
C      1  0.4069500000000  0.5093410000000  0.4722360000000 1.0
C      1  0.4972050000000  0.4981170000000  0.4842460000000 1.0
C      1  0.4909840000000  0.5692370000000  0.4418010000000 1.0
C      1  0.5428300000000  0.4565380000000  0.5805240000000 1.0
C      1  0.5282390000000  0.5871600000000  0.4727390000000 1.0
C      1  0.5424790000000  0.5121810000000  0.4983360000000 1.0
C      1  0.5147340000000  0.4384150000000  0.5123010000000 1.0
C      1  0.4876160000000  0.5591160000000  0.5387850000000 1.0
C      1  0.4827950000000  0.4056690000000  0.4953560000000 1.0
C      1  0.4521620000000  0.5007340000000  0.4725390000000 1.0
END
