TITL C-140199-7050-3 -0.416359197433111 125000 -989.880186347123 0 0 143 (C1) n - 1
REM
REM in /rds/project/t2_vol4/rds-t2-cs072/BORA/CARBON/from-Arr/AIRSS/Generating-Clusters/GAP-ML-2020/Only-C1/SD-CG/HFTN-CG
REM
REM
REM
REM
REM
REM ./C.cell (11c1c37f851c82e70ff6c80c92926a4b)
REM AIRSS Version 0.9.1 bugfix July 2018 build 013d7b7c2542+ Fri, 06 Jul 2018 19:26:36 +0100
REM compiler GCC version 9.3.0
REM options -cpp -mtune=generic -march=x86-64 -g -O0
REM seed -2091617838 1069505851 -1346165073 -46509564 -970411397 1425107581 -1488572707 57186978 2089780564 -773054675 -268162322 536368113 1031941284 -1465729209 1610648349 -1222608267 486741237 1580368797 1389800729 1531491999 -152902185 -1792839875 -9303302 -2014113220 -371528876 1821592431 -212122863 674639642 1488372162 802687551 -1942861545 -255415628 1009736781
REM
CELL 1.54180   50.00000   50.00000   50.00000   90.00000   90.00000   90.00000
LATT -1
SFAC C  
C      1  0.5876570000000  0.4877600000000  0.5195450000000 1.0
C      1  0.5282870000000  0.5603570000000  0.4280380000000 1.0
C      1  0.4641240000000  0.4781770000000  0.5241950000000 1.0
C      1  0.5344370000000  0.5721630000000  0.4544760000000 1.0
C      1  0.5099050000000  0.4241130000000  0.4581400000000 1.0
C      1  0.5373030000000  0.4884360000000  0.4072160000000 1.0
C      1  0.4264460000000  0.4251420000000  0.5195370000000 1.0
C      1  0.4738260000000  0.5611960000000  0.4938080000000 1.0
C      1  0.4933090000000  0.5148580000000  0.5932070000000 1.0
C      1  0.4725400000000  0.4537000000000  0.5437300000000 1.0
C      1  0.5648010000000  0.4302620000000  0.4917140000000 1.0
C      1  0.5361410000000  0.4725500000000  0.5300870000000 1.0
C      1  0.4474920000000  0.5270240000000  0.5674690000000 1.0
C      1  0.5561750000000  0.4829490000000  0.4276850000000 1.0
C      1  0.4931760000000  0.5185540000000  0.4537670000000 1.0
C      1  0.4947490000000  0.4451760000000  0.4718530000000 1.0
C      1  0.5094160000000  0.4913770000000  0.5913630000000 1.0
C      1  0.4698070000000  0.4843420000000  0.4739630000000 1.0
C      1  0.5318490000000  0.5164680000000  0.4088090000000 1.0
C      1  0.4908550000000  0.5032500000000  0.4796200000000 1.0
C      1  0.4910840000000  0.4259510000000  0.4316960000000 1.0
C      1  0.5098760000000  0.5377120000000  0.5817360000000 1.0
C      1  0.5503350000000  0.4538160000000  0.4468930000000 1.0
C      1  0.5692680000000  0.4779920000000  0.5404980000000 1.0
C      1  0.4436520000000  0.5018780000000  0.4589940000000 1.0
C      1  0.5373120000000  0.5457730000000  0.5403680000000 1.0
C      1  0.5691080000000  0.4476570000000  0.4682510000000 1.0
C      1  0.5800740000000  0.4422650000000  0.5130680000000 1.0
C      1  0.4863790000000  0.5479570000000  0.5389920000000 1.0
C      1  0.4562500000000  0.5746140000000  0.5506650000000 1.0
C      1  0.5304330000000  0.4353460000000  0.4389760000000 1.0
C      1  0.5184920000000  0.4579730000000  0.5493710000000 1.0
C      1  0.5391630000000  0.5363610000000  0.5106090000000 1.0
C      1  0.5708460000000  0.4465290000000  0.5392950000000 1.0
C      1  0.5346750000000  0.5002120000000  0.4665000000000 1.0
C      1  0.4322020000000  0.5386020000000  0.4905650000000 1.0
C      1  0.4421960000000  0.5700650000000  0.5258430000000 1.0
C      1  0.5223140000000  0.4685230000000  0.5021330000000 1.0
C      1  0.5025400000000  0.4802220000000  0.5651200000000 1.0
C      1  0.5216880000000  0.5267820000000  0.4550890000000 1.0
C      1  0.4595490000000  0.4813420000000  0.5832770000000 1.0
C      1  0.4831660000000  0.4660230000000  0.4540820000000 1.0
C      1  0.5363190000000  0.4826890000000  0.5960600000000 1.0
C      1  0.4363350000000  0.4676090000000  0.5750430000000 1.0
C      1  0.5161740000000  0.4087170000000  0.4847620000000 1.0
C      1  0.4882170000000  0.5645780000000  0.4676930000000 1.0
C      1  0.5112850000000  0.4693500000000  0.4068870000000 1.0
C      1  0.4875140000000  0.4828650000000  0.3914800000000 1.0
C      1  0.4635800000000  0.4331830000000  0.4337970000000 1.0
C      1  0.5495700000000  0.4288450000000  0.5473890000000 1.0
C      1  0.4608380000000  0.5358460000000  0.4856810000000 1.0
C      1  0.4965040000000  0.4546980000000  0.5007590000000 1.0
C      1  0.5044590000000  0.4140150000000  0.5305250000000 1.0
C      1  0.4787030000000  0.4666460000000  0.5695100000000 1.0
C      1  0.4665800000000  0.4051470000000  0.5030060000000 1.0
C      1  0.5089200000000  0.5340890000000  0.5513980000000 1.0
C      1  0.4085360000000  0.4721490000000  0.5375020000000 1.0
C      1  0.5699440000000  0.5008890000000  0.5612890000000 1.0
C      1  0.4691790000000  0.5613580000000  0.5924900000000 1.0
C      1  0.5306760000000  0.4375460000000  0.5701670000000 1.0
C      1  0.5864480000000  0.4953500000000  0.4658170000000 1.0
C      1  0.4184140000000  0.4443270000000  0.5394150000000 1.0
C      1  0.4234770000000  0.4413790000000  0.4673720000000 1.0
C      1  0.4738130000000  0.6013770000000  0.4911000000000 1.0
C      1  0.4751060000000  0.5052550000000  0.5276210000000 1.0
C      1  0.4663460000000  0.4850340000000  0.4140940000000 1.0
C      1  0.4340400000000  0.5679290000000  0.4777790000000 1.0
C      1  0.5680970000000  0.5293720000000  0.4436440000000 1.0
C      1  0.5011320000000  0.5040380000000  0.5444860000000 1.0
C      1  0.4535430000000  0.5466230000000  0.4362340000000 1.0
C      1  0.4512540000000  0.4129320000000  0.5265010000000 1.0
C      1  0.4486360000000  0.4109420000000  0.4807560000000 1.0
C      1  0.4950540000000  0.4033590000000  0.5043790000000 1.0
C      1  0.4606540000000  0.4252810000000  0.5510050000000 1.0
C      1  0.5045200000000  0.5942320000000  0.5348270000000 1.0
C      1  0.4427420000000  0.5699840000000  0.4512530000000 1.0
C      1  0.4693490000000  0.4684150000000  0.4992050000000 1.0
C      1  0.4731150000000  0.5403050000000  0.4580810000000 1.0
C      1  0.5406720000000  0.4149330000000  0.4994900000000 1.0
C      1  0.5014040000000  0.5530820000000  0.4165920000000 1.0
C      1  0.4108320000000  0.4901220000000  0.4875070000000 1.0
C      1  0.5711340000000  0.5653850000000  0.4875880000000 1.0
C      1  0.4364060000000  0.4419950000000  0.5614020000000 1.0
C      1  0.4911900000000  0.5030640000000  0.4292270000000 1.0
C      1  0.5746270000000  0.5631630000000  0.5173870000000 1.0
C      1  0.4340030000000  0.4778830000000  0.4428140000000 1.0
C      1  0.4502040000000  0.5567560000000  0.5731240000000 1.0
C      1  0.5329290000000  0.5898250000000  0.5286780000000 1.0
C      1  0.4408920000000  0.5207130000000  0.4346210000000 1.0
C      1  0.5594030000000  0.4995980000000  0.4805790000000 1.0
C      1  0.4810080000000  0.5202360000000  0.5013330000000 1.0
C      1  0.5167650000000  0.5540850000000  0.4694640000000 1.0
C      1  0.5116150000000  0.4411910000000  0.4180530000000 1.0
C      1  0.5887380000000  0.4677850000000  0.4749010000000 1.0
C      1  0.5417670000000  0.5342240000000  0.4302260000000 1.0
C      1  0.5897990000000  0.5162700000000  0.5090180000000 1.0
C      1  0.5399760000000  0.4557790000000  0.5914520000000 1.0
C      1  0.5491380000000  0.5810090000000  0.4770060000000 1.0
C      1  0.5403840000000  0.5316150000000  0.5833480000000 1.0
C      1  0.5344990000000  0.4153690000000  0.5275490000000 1.0
C      1  0.5779490000000  0.5394220000000  0.4720450000000 1.0
C      1  0.4983140000000  0.6001140000000  0.5070060000000 1.0
C      1  0.4251830000000  0.4248590000000  0.4912420000000 1.0
C      1  0.5333470000000  0.4789600000000  0.4469240000000 1.0
C      1  0.4655490000000  0.5861680000000  0.4416230000000 1.0
C      1  0.5179400000000  0.4944270000000  0.4886150000000 1.0
C      1  0.5034110000000  0.5228000000000  0.4067750000000 1.0
C      1  0.5513120000000  0.5051300000000  0.5837840000000 1.0
C      1  0.5923560000000  0.4659960000000  0.5028570000000 1.0
C      1  0.4238400000000  0.5128360000000  0.4779950000000 1.0
C      1  0.4756010000000  0.5644850000000  0.4224650000000 1.0
C      1  0.4930610000000  0.5471530000000  0.5103890000000 1.0
C      1  0.4464380000000  0.4259150000000  0.4554580000000 1.0
C      1  0.4166070000000  0.4688710000000  0.4647300000000 1.0
C      1  0.4891830000000  0.4126480000000  0.5577580000000 1.0
C      1  0.4936760000000  0.5637600000000  0.5809100000000 1.0
C      1  0.5769850000000  0.5277460000000  0.5526370000000 1.0
C      1  0.5757620000000  0.5021060000000  0.4393850000000 1.0
C      1  0.5261850000000  0.5122250000000  0.5098160000000 1.0
C      1  0.4340770000000  0.5409780000000  0.5208640000000 1.0
C      1  0.4179140000000  0.4848850000000  0.5619050000000 1.0
C      1  0.4401090000000  0.4974910000000  0.4188120000000 1.0
C      1  0.5260860000000  0.4988920000000  0.5328930000000 1.0
C      1  0.4073440000000  0.4927600000000  0.5166970000000 1.0
C      1  0.4803440000000  0.5938110000000  0.4636240000000 1.0
C      1  0.5531080000000  0.5711140000000  0.5359220000000 1.0
C      1  0.4655830000000  0.5093570000000  0.5856580000000 1.0
C      1  0.4225100000000  0.5124790000000  0.5579230000000 1.0
C      1  0.4598720000000  0.4625130000000  0.4333190000000 1.0
C      1  0.5082200000000  0.4182320000000  0.5749750000000 1.0
C      1  0.4158700000000  0.5180360000000  0.5308620000000 1.0
C      1  0.4945980000000  0.5073890000000  0.3829980000000 1.0
C      1  0.4513010000000  0.5807940000000  0.4992590000000 1.0
C      1  0.5263130000000  0.5860310000000  0.4998650000000 1.0
C      1  0.5626060000000  0.5238920000000  0.4952020000000 1.0
C      1  0.5199200000000  0.5554120000000  0.4985910000000 1.0
C      1  0.4980440000000  0.4448930000000  0.5306410000000 1.0
C      1  0.5057620000000  0.4775110000000  0.4353820000000 1.0
C      1  0.5557350000000  0.5435600000000  0.5621820000000 1.0
C      1  0.4605160000000  0.5297490000000  0.5392040000000 1.0
C      1  0.5987440000000  0.5191950000000  0.4801950000000 1.0
C      1  0.4865850000000  0.5756810000000  0.5520440000000 1.0
C      1  0.5867820000000  0.5378420000000  0.5279600000000 1.0
END
