TITL C-142795-1116-1 -3.35148546427185 125000 -272.367618217627 0 0 41 (C1) n - 1
REM
REM in /rds/project/t2_vol4/rds-t2-cs072/BORA/CARBON/from-Arr/AIRSS/Generating-Clusters/GAP-ML-2020/Only-C1/SD-CG/HFTN-CG
REM
REM
REM
REM
REM
REM ./C.cell (11c1c37f851c82e70ff6c80c92926a4b)
REM AIRSS Version 0.9.1 bugfix July 2018 build 013d7b7c2542+ Fri, 06 Jul 2018 19:26:36 +0100
REM compiler GCC version 9.3.0
REM options -cpp -mtune=generic -march=x86-64 -g -O0
REM seed -1533176879 2081598551 29845480 -309139959 -1103876527 38314921 1228365481 1161475967 67618562 1435371427 -117790985 643298326 1308448772 -593202744 1922966788 1709457240 -39675574 625671822 -1964918128 264820650 849651901 1878272423 2130469718 -220602369 -652763728 -1047699381 -239776905 -679670786 1549940797 -426698593 662289784 -1891442163 1628335542
REM
CELL 1.54180   50.00000   50.00000   50.00000   90.00000   90.00000   90.00000
LATT -1
SFAC C  
C      1  0.4461470000000  0.5227810000000  0.4904330000000 1.0
C      1  0.5539650000000  0.4735180000000  0.4967570000000 1.0
C      1  0.5183910000000  0.4959500000000  0.4539260000000 1.0
C      1  0.5440520000000  0.4566820000000  0.4763010000000 1.0
C      1  0.5319480000000  0.5444410000000  0.5010590000000 1.0
C      1  0.4856360000000  0.4388780000000  0.4811510000000 1.0
C      1  0.5362980000000  0.5366080000000  0.5284600000000 1.0
C      1  0.4594780000000  0.4800740000000  0.4868180000000 1.0
C      1  0.4782940000000  0.4947870000000  0.5488760000000 1.0
C      1  0.4774870000000  0.5416630000000  0.5172600000000 1.0
C      1  0.5006800000000  0.5101350000000  0.4712260000000 1.0
C      1  0.5255290000000  0.4919710000000  0.5417490000000 1.0
C      1  0.5196070000000  0.4693610000000  0.4668980000000 1.0
C      1  0.5189460000000  0.5191440000000  0.4949720000000 1.0
C      1  0.4996520000000  0.5572650000000  0.4721930000000 1.0
C      1  0.4939760000000  0.5156970000000  0.5129390000000 1.0
C      1  0.5283390000000  0.5548240000000  0.4747890000000 1.0
C      1  0.5185900000000  0.4501000000000  0.5157940000000 1.0
C      1  0.4709210000000  0.4590990000000  0.4700780000000 1.0
C      1  0.4964520000000  0.4541830000000  0.4607560000000 1.0
C      1  0.4562820000000  0.4982660000000  0.5310470000000 1.0
C      1  0.4547570000000  0.4741240000000  0.5154160000000 1.0
C      1  0.4908330000000  0.5532530000000  0.5405500000000 1.0
C      1  0.4741130000000  0.4557410000000  0.5247400000000 1.0
C      1  0.4544300000000  0.5233950000000  0.5179260000000 1.0
C      1  0.4775820000000  0.5563050000000  0.4912920000000 1.0
C      1  0.4610990000000  0.5397530000000  0.4745200000000 1.0
C      1  0.5161550000000  0.4650760000000  0.5408730000000 1.0
C      1  0.5020220000000  0.5095290000000  0.5428430000000 1.0
C      1  0.5436140000000  0.4481220000000  0.5024830000000 1.0
C      1  0.5367410000000  0.5367670000000  0.4554130000000 1.0
C      1  0.4927280000000  0.4426770000000  0.5075910000000 1.0
C      1  0.5093070000000  0.4766470000000  0.4967150000000 1.0
C      1  0.5344450000000  0.4953950000000  0.5037760000000 1.0
C      1  0.5435700000000  0.5079410000000  0.5284310000000 1.0
C      1  0.5331380000000  0.5160190000000  0.4412050000000 1.0
C      1  0.4861860000000  0.4938910000000  0.4932800000000 1.0
C      1  0.5128590000000  0.5386920000000  0.5455570000000 1.0
C      1  0.4881020000000  0.4678800000000  0.5456750000000 1.0
C      1  0.4416300000000  0.4998640000000  0.4775810000000 1.0
C      1  0.4860180000000  0.5335040000000  0.4606520000000 1.0
END
