TITL C-140202-7025-4 -0.00204995606230085 125000 -37.1688395254734 0 0 6 (D(inf)h) n - 1
REM
REM in /rds/project/t2_vol4/rds-t2-cs072/BORA/CARBON/from-Arr/AIRSS/Generating-Clusters/GAP-ML-2020/Only-C1/SD-CG/HFTN-CG
REM
REM
REM
REM
REM
REM ./C.cell (11c1c37f851c82e70ff6c80c92926a4b)
REM AIRSS Version 0.9.1 bugfix July 2018 build 013d7b7c2542+ Fri, 06 Jul 2018 19:26:36 +0100
REM compiler GCC version 9.3.0
REM options -cpp -mtune=generic -march=x86-64 -g -O0
REM seed 2067903591 1920650859 -153113626 514349371 -1723618701 -207556677 -639620049 -2000938706 1145198709 -334461800 493171707 -214207036 1575755049 -601804925 -1706548702 -370573102 -898465327 -1169663294 1518614811 -1885278211 1717466167 -1667694263 -2110007818 -1630700198 -690536987 881177474 -1446089008 228548591 1974494786 -563356755 951707247 552955402 -195467150
REM
CELL 1.54180   50.00000   50.00000   50.00000   90.00000   90.00000   90.00000
LATT -1
SFAC C  
C      1  0.5018030000000  0.4893460000000  0.5061580000000 1.0
C      1  0.4981970000000  0.5106540000000  0.4938420000000 1.0
C      1  0.5092560000000  0.4453060000000  0.5316120000000 1.0
C      1  0.4907440000000  0.5546940000000  0.4683880000000 1.0
C      1  0.4944210000000  0.5329660000000  0.4809460000000 1.0
C      1  0.5055790000000  0.4670340000000  0.5190540000000 1.0
END
