TITL C-147421-6603-5 0.0460313959593029 125000 -638.383448117337 0 0 93 (C1) n - 1
REM
REM in /rds/project/t2_vol4/rds-t2-cs072/BORA/CARBON/from-Arr/AIRSS/Generating-Clusters/GAP-ML-2020/Only-C1/SD-CG/HFTN-CG
REM
REM
REM
REM
REM
REM ./C.cell (11c1c37f851c82e70ff6c80c92926a4b)
REM AIRSS Version 0.9.1 bugfix July 2018 build 013d7b7c2542+ Fri, 06 Jul 2018 19:26:36 +0100
REM compiler GCC version 9.3.0
REM options -cpp -mtune=generic -march=x86-64 -g -O0
REM seed -2037196579 -1268240065 -1116056102 2109729279 -1768527033 -1631338175 175276660 -2119601264 1556970750 1866569923 -1378715532 1628784626 304740446 -1423693423 1139257701 -464920621 1466392140 -983321317 -781359964 -805409027 972673358 -32520552 -1345143383 474321930 1825696255 -216691814 1974825526 838623774 1036180095 344779707 -1807823457 1244769407 1274420278
REM
CELL 1.54180   50.00000   50.00000   50.00000   90.00000   90.00000   90.00000
LATT -1
SFAC C  
C      1  0.4936430000000  0.5407860000000  0.4221260000000 1.0
C      1  0.5489960000000  0.4764620000000  0.5018320000000 1.0
C      1  0.5439690000000  0.5796570000000  0.4820440000000 1.0
C      1  0.4598290000000  0.5863720000000  0.5255540000000 1.0
C      1  0.4588230000000  0.4327120000000  0.4658600000000 1.0
C      1  0.4961830000000  0.4513700000000  0.5684020000000 1.0
C      1  0.5079820000000  0.5731620000000  0.4564540000000 1.0
C      1  0.5083990000000  0.4282170000000  0.5131600000000 1.0
C      1  0.4630980000000  0.5588260000000  0.4536470000000 1.0
C      1  0.5723460000000  0.5079130000000  0.4686790000000 1.0
C      1  0.4401490000000  0.5234530000000  0.4739880000000 1.0
C      1  0.4968650000000  0.5113520000000  0.4561530000000 1.0
C      1  0.5783610000000  0.4848020000000  0.5462540000000 1.0
C      1  0.5544320000000  0.4271090000000  0.5065330000000 1.0
C      1  0.5432820000000  0.4590380000000  0.5701020000000 1.0
C      1  0.4687660000000  0.5877070000000  0.4975250000000 1.0
C      1  0.5203610000000  0.5179390000000  0.5231480000000 1.0
C      1  0.4403100000000  0.5160260000000  0.5612360000000 1.0
C      1  0.4960780000000  0.5901580000000  0.5080240000000 1.0
C      1  0.4511560000000  0.5374240000000  0.5477030000000 1.0
C      1  0.4743830000000  0.4961270000000  0.5143680000000 1.0
C      1  0.4949980000000  0.5348590000000  0.5276620000000 1.0
C      1  0.5044840000000  0.4847340000000  0.4122210000000 1.0
C      1  0.5248470000000  0.5039830000000  0.4102730000000 1.0
C      1  0.4191080000000  0.4718090000000  0.4803810000000 1.0
C      1  0.4762910000000  0.5192710000000  0.4325430000000 1.0
C      1  0.4874900000000  0.5120730000000  0.5711640000000 1.0
C      1  0.5211800000000  0.5294340000000  0.4212210000000 1.0
C      1  0.4220910000000  0.5011310000000  0.5433110000000 1.0
C      1  0.5710980000000  0.5312800000000  0.4876860000000 1.0
C      1  0.4853900000000  0.4184640000000  0.5006190000000 1.0
C      1  0.5328690000000  0.5370280000000  0.4750980000000 1.0
C      1  0.5875890000000  0.4872840000000  0.4781050000000 1.0
C      1  0.5420330000000  0.4869640000000  0.4280290000000 1.0
C      1  0.5090800000000  0.5542020000000  0.4800850000000 1.0
C      1  0.5215820000000  0.5134730000000  0.4933420000000 1.0
C      1  0.5767180000000  0.5135000000000  0.5396200000000 1.0
C      1  0.4306320000000  0.4527370000000  0.5287150000000 1.0
C      1  0.4772570000000  0.4913310000000  0.4181750000000 1.0
C      1  0.4859660000000  0.5840180000000  0.5346590000000 1.0
C      1  0.5691510000000  0.5300080000000  0.5169510000000 1.0
C      1  0.4309980000000  0.4991740000000  0.4893300000000 1.0
C      1  0.4366300000000  0.5371250000000  0.5208760000000 1.0
C      1  0.5002070000000  0.5606430000000  0.5430090000000 1.0
C      1  0.4858160000000  0.4840460000000  0.4578210000000 1.0
C      1  0.5080880000000  0.4656980000000  0.4841290000000 1.0
C      1  0.5260050000000  0.5621580000000  0.5293340000000 1.0
C      1  0.4684230000000  0.4727060000000  0.4375840000000 1.0
C      1  0.5143830000000  0.4972070000000  0.5696150000000 1.0
C      1  0.5435480000000  0.5378780000000  0.5320680000000 1.0
C      1  0.5311390000000  0.5884460000000  0.4594110000000 1.0
C      1  0.4583400000000  0.4834180000000  0.4969790000000 1.0
C      1  0.4247280000000  0.4499970000000  0.4998470000000 1.0
C      1  0.4790630000000  0.4733850000000  0.4818200000000 1.0
C      1  0.4234850000000  0.4612540000000  0.4554040000000 1.0
C      1  0.5143380000000  0.4377680000000  0.4690500000000 1.0
C      1  0.5250820000000  0.4422620000000  0.4424970000000 1.0
C      1  0.5595690000000  0.4818170000000  0.5686090000000 1.0
C      1  0.5336900000000  0.4691930000000  0.5256340000000 1.0
C      1  0.5309360000000  0.4254360000000  0.4942860000000 1.0
C      1  0.4811280000000  0.5356790000000  0.5538560000000 1.0
C      1  0.5778170000000  0.4746030000000  0.4996490000000 1.0
C      1  0.4583780000000  0.5666040000000  0.4809070000000 1.0
C      1  0.4860360000000  0.4247450000000  0.4731770000000 1.0
C      1  0.5458350000000  0.4993840000000  0.4550170000000 1.0
C      1  0.5560790000000  0.5535680000000  0.4794580000000 1.0
C      1  0.4603520000000  0.4229070000000  0.5118990000000 1.0
C      1  0.4294040000000  0.4740710000000  0.5476190000000 1.0
C      1  0.4225150000000  0.5127930000000  0.5170430000000 1.0
C      1  0.5195400000000  0.5732200000000  0.5028940000000 1.0
C      1  0.5446840000000  0.4475030000000  0.5445550000000 1.0
C      1  0.4733530000000  0.4566740000000  0.5525260000000 1.0
C      1  0.5246710000000  0.4641420000000  0.4267360000000 1.0
C      1  0.4512890000000  0.5413270000000  0.4954180000000 1.0
C      1  0.4911600000000  0.4776570000000  0.5299580000000 1.0
C      1  0.5557280000000  0.5246680000000  0.5560900000000 1.0
C      1  0.4528380000000  0.4739490000000  0.5645970000000 1.0
C      1  0.5173960000000  0.4918280000000  0.5380870000000 1.0
C      1  0.5084070000000  0.4579280000000  0.5138320000000 1.0
C      1  0.4612400000000  0.5001300000000  0.5731890000000 1.0
C      1  0.5438300000000  0.5053450000000  0.5728550000000 1.0
C      1  0.4959950000000  0.5250270000000  0.4823390000000 1.0
C      1  0.4487670000000  0.4535460000000  0.4469000000000 1.0
C      1  0.5274130000000  0.5216320000000  0.4497270000000 1.0
C      1  0.5311280000000  0.4873200000000  0.4822810000000 1.0
C      1  0.5160370000000  0.4669860000000  0.5762380000000 1.0
C      1  0.5666210000000  0.4391770000000  0.5287070000000 1.0
C      1  0.4551610000000  0.4388760000000  0.5346280000000 1.0
C      1  0.4535960000000  0.5318430000000  0.4493450000000 1.0
C      1  0.4777040000000  0.5248800000000  0.5052330000000 1.0
C      1  0.4434190000000  0.4308570000000  0.4902740000000 1.0
C      1  0.5828130000000  0.4641190000000  0.5265020000000 1.0
C      1  0.4879270000000  0.5632060000000  0.4385090000000 1.0
END
