TITL C-140203-7122-2 -0.0808938813747127 125000 -244.208307592833 0 0 36 (C1) n - 1
REM
REM in /rds/project/t2_vol4/rds-t2-cs072/BORA/CARBON/from-Arr/AIRSS/Generating-Clusters/GAP-ML-2020/Only-C1/SD-CG/HFTN-CG
REM
REM
REM
REM
REM
REM ./C.cell (11c1c37f851c82e70ff6c80c92926a4b)
REM AIRSS Version 0.9.1 bugfix July 2018 build 013d7b7c2542+ Fri, 06 Jul 2018 19:26:36 +0100
REM compiler GCC version 9.3.0
REM options -cpp -mtune=generic -march=x86-64 -g -O0
REM seed -960333701 1035655008 1421587204 174373871 -351625982 -1881992172 -831037840 -2066483615 -1519037246 752840907 351056850 286373314 1412939122 1063996141 -666327358 999034073 391895004 -1296136756 -245668488 -1973908180 1028279444 2141850581 646351345 -993159016 -1868974940 -724485211 -970896093 -533980504 1125043817 1203892196 254424240 -109330063 -1494391559
REM
CELL 1.54180   50.00000   50.00000   50.00000   90.00000   90.00000   90.00000
LATT -1
SFAC C  
C      1  0.4715630000000  0.5240880000000  0.4597060000000 1.0
C      1  0.4675890000000  0.4959940000000  0.4558900000000 1.0
C      1  0.4463960000000  0.5089020000000  0.4946330000000 1.0
C      1  0.5348330000000  0.4562310000000  0.5393060000000 1.0
C      1  0.5259510000000  0.4581460000000  0.5126460000000 1.0
C      1  0.4827100000000  0.5086500000000  0.5239840000000 1.0
C      1  0.5401490000000  0.5094680000000  0.5012350000000 1.0
C      1  0.5165440000000  0.4929790000000  0.4517670000000 1.0
C      1  0.4905110000000  0.4808500000000  0.4501730000000 1.0
C      1  0.5336360000000  0.4750640000000  0.5567720000000 1.0
C      1  0.4796860000000  0.5475740000000  0.4990120000000 1.0
C      1  0.5124330000000  0.4402800000000  0.4938540000000 1.0
C      1  0.5446220000000  0.5252100000000  0.5255400000000 1.0
C      1  0.4889480000000  0.4934830000000  0.5494290000000 1.0
C      1  0.4525670000000  0.5018170000000  0.5206990000000 1.0
C      1  0.5371800000000  0.5279290000000  0.4796510000000 1.0
C      1  0.4836530000000  0.4467850000000  0.4855190000000 1.0
C      1  0.5280490000000  0.5529870000000  0.4911840000000 1.0
C      1  0.4693170000000  0.4684660000000  0.4971560000000 1.0
C      1  0.5166880000000  0.4981070000000  0.5575800000000 1.0
C      1  0.4527900000000  0.4864470000000  0.4784830000000 1.0
C      1  0.5229200000000  0.4850240000000  0.4979750000000 1.0
C      1  0.4926210000000  0.4539700000000  0.4590160000000 1.0
C      1  0.4881950000000  0.5371930000000  0.5242760000000 1.0
C      1  0.5326700000000  0.5514090000000  0.5187020000000 1.0
C      1  0.4928240000000  0.4929390000000  0.4978280000000 1.0
C      1  0.5008680000000  0.5548120000000  0.4814510000000 1.0
C      1  0.5197620000000  0.5199530000000  0.4575370000000 1.0
C      1  0.4599630000000  0.5318670000000  0.4844720000000 1.0
C      1  0.5117470000000  0.5456330000000  0.5373340000000 1.0
C      1  0.4972480000000  0.5365750000000  0.4584750000000 1.0
C      1  0.4574720000000  0.4725870000000  0.5247330000000 1.0
C      1  0.5296880000000  0.4750940000000  0.4690880000000 1.0
C      1  0.5201570000000  0.4485380000000  0.4668660000000 1.0
C      1  0.5271090000000  0.5226950000000  0.5491530000000 1.0
C      1  0.4709430000000  0.4722530000000  0.5488740000000 1.0
END
