TITL C-141439-3361-1 99.7435408619479 125000 -254.332945786652 0 0 37 (C1) n - 1
REM
REM in /rds/project/t2_vol4/rds-t2-cs072/BORA/CARBON/from-Arr/AIRSS/Generating-Clusters/GAP-ML-2020/Only-C1/SD-CG/HFTN-CG
REM
REM
REM
REM
REM
REM ./C.cell (11c1c37f851c82e70ff6c80c92926a4b)
REM AIRSS Version 0.9.1 bugfix July 2018 build 013d7b7c2542+ Fri, 06 Jul 2018 19:26:36 +0100
REM compiler GCC version 9.3.0
REM options -cpp -mtune=generic -march=x86-64 -g -O0
REM seed 46502171 1234940292 -89491502 206785023 -529110153 41638206 -1882541279 -984713933 -120115762 2027330554 -813132946 845994998 1709165832 176087169 -568608883 -364295132 -57411629 -1977381271 -948014405 -1039188508 343568722 1439977551 -894072813 1584111187 -222329475 -662256761 1182528846 -218829683 -1607162291 770190639 -306785868 -761112685 881552280
REM
CELL 1.54180   50.00000   50.00000   50.00000   90.00000   90.00000   90.00000
LATT -1
SFAC C  
C      1  0.5035130000000  0.4808160000000  0.5611990000000 1.0
C      1  0.4877630000000  0.4877100000000  0.4305380000000 1.0
C      1  0.4518030000000  0.5324760000000  0.5026390000000 1.0
C      1  0.4673090000000  0.4812650000000  0.5463510000000 1.0
C      1  0.4516500000000  0.5215760000000  0.4754400000000 1.0
C      1  0.5105400000000  0.4628300000000  0.5034000000000 1.0
C      1  0.4816510000000  0.4699460000000  0.5688290000000 1.0
C      1  0.4758330000000  0.4577030000000  0.4738260000000 1.0
C      1  0.4824720000000  0.5280930000000  0.5380940000000 1.0
C      1  0.5478930000000  0.5320370000000  0.5038340000000 1.0
C      1  0.5211160000000  0.4644790000000  0.4759960000000 1.0
C      1  0.5003370000000  0.4584230000000  0.4582690000000 1.0
C      1  0.4822640000000  0.4583560000000  0.5025950000000 1.0
C      1  0.5418260000000  0.4845180000000  0.4762030000000 1.0
C      1  0.4994780000000  0.5468960000000  0.4984260000000 1.0
C      1  0.5135780000000  0.5226780000000  0.4558810000000 1.0
C      1  0.5515920000000  0.5325410000000  0.4766110000000 1.0
C      1  0.5629750000000  0.5089400000000  0.5154390000000 1.0
C      1  0.4899120000000  0.5117670000000  0.4424460000000 1.0
C      1  0.4449050000000  0.4923700000000  0.4787150000000 1.0
C      1  0.5381450000000  0.5113660000000  0.4639270000000 1.0
C      1  0.4434180000000  0.5118210000000  0.5205870000000 1.0
C      1  0.4618610000000  0.4691150000000  0.5203270000000 1.0
C      1  0.5198330000000  0.4941510000000  0.5438390000000 1.0
C      1  0.4972620000000  0.5419160000000  0.4708910000000 1.0
C      1  0.4612890000000  0.5095190000000  0.5433140000000 1.0
C      1  0.5778470000000  0.5071270000000  0.5380740000000 1.0
C      1  0.4978900000000  0.4638100000000  0.4306540000000 1.0
C      1  0.4755670000000  0.5435560000000  0.5137910000000 1.0
C      1  0.5792030000000  0.5037150000000  0.5633260000000 1.0
C      1  0.5493280000000  0.4860400000000  0.5043770000000 1.0
C      1  0.5280700000000  0.4770480000000  0.5208050000000 1.0
C      1  0.5215840000000  0.5363100000000  0.5144780000000 1.0
C      1  0.4425130000000  0.4868970000000  0.5070640000000 1.0
C      1  0.4730510000000  0.5288930000000  0.4595800000000 1.0
C      1  0.4545710000000  0.4720590000000  0.4637170000000 1.0
C      1  0.5101590000000  0.5212350000000  0.5365190000000 1.0
END
