TITL C-144795-3115-1 0.164593601104643 125000 -540.038837899668 0 0 78 (C1) n - 1
REM
REM in /rds/project/t2_vol4/rds-t2-cs072/BORA/CARBON/from-Arr/AIRSS/Generating-Clusters/GAP-ML-2020/Only-C1/SD-CG/HFTN-CG
REM
REM
REM
REM
REM
REM ./C.cell (11c1c37f851c82e70ff6c80c92926a4b)
REM AIRSS Version 0.9.1 bugfix July 2018 build 013d7b7c2542+ Fri, 06 Jul 2018 19:26:36 +0100
REM compiler GCC version 9.3.0
REM options -cpp -mtune=generic -march=x86-64 -g -O0
REM seed 1256532088 1299964767 -320788992 1404187255 -981352709 -1123211121 -1994295597 -337782908 1945997945 757931763 -8788831 -1781443391 -1301064447 -895342386 -943060059 819475577 1788131899 1801003079 871321938 -1354866531 -1234727785 -837139243 -1484294717 872214317 -1566394772 -591157227 -954232107 42826655 -1813378675 -654428802 242119339 958394392 -1130787124
REM
CELL 1.54180   50.00000   50.00000   50.00000   90.00000   90.00000   90.00000
LATT -1
SFAC C  
C      1  0.5311780000000  0.4469080000000  0.4811690000000 1.0
C      1  0.5407700000000  0.5513660000000  0.5471680000000 1.0
C      1  0.5227380000000  0.5504780000000  0.4501310000000 1.0
C      1  0.4204890000000  0.5048370000000  0.5254440000000 1.0
C      1  0.4475170000000  0.4611360000000  0.5135880000000 1.0
C      1  0.4341130000000  0.5054720000000  0.5702580000000 1.0
C      1  0.5622360000000  0.5328840000000  0.5503780000000 1.0
C      1  0.4440600000000  0.4636510000000  0.5418450000000 1.0
C      1  0.5081220000000  0.4314060000000  0.5221600000000 1.0
C      1  0.5114980000000  0.4589040000000  0.5701010000000 1.0
C      1  0.5045770000000  0.4913460000000  0.4578630000000 1.0
C      1  0.5284200000000  0.4742520000000  0.5222580000000 1.0
C      1  0.4480960000000  0.5422170000000  0.5411170000000 1.0
C      1  0.4558460000000  0.5548860000000  0.4607820000000 1.0
C      1  0.5014730000000  0.4829770000000  0.4080820000000 1.0
C      1  0.5266330000000  0.4581050000000  0.4288660000000 1.0
C      1  0.5327600000000  0.4283140000000  0.5316870000000 1.0
C      1  0.4409750000000  0.4663610000000  0.4670860000000 1.0
C      1  0.5315740000000  0.5098150000000  0.4937740000000 1.0
C      1  0.5081340000000  0.5053920000000  0.4798630000000 1.0
C      1  0.4769700000000  0.5273460000000  0.5759540000000 1.0
C      1  0.5118190000000  0.4865550000000  0.5797300000000 1.0
C      1  0.5773250000000  0.5342010000000  0.5260880000000 1.0
C      1  0.4812920000000  0.5004850000000  0.4160550000000 1.0
C      1  0.4897390000000  0.5470590000000  0.5600230000000 1.0
C      1  0.5746420000000  0.4922640000000  0.5389600000000 1.0
C      1  0.5832800000000  0.5079220000000  0.5174160000000 1.0
C      1  0.5419120000000  0.4885400000000  0.5747060000000 1.0
C      1  0.4494800000000  0.5274020000000  0.5672840000000 1.0
C      1  0.4895880000000  0.5013420000000  0.5713410000000 1.0
C      1  0.4903170000000  0.5265210000000  0.4252270000000 1.0
C      1  0.5181480000000  0.5315590000000  0.4310100000000 1.0
C      1  0.4175300000000  0.4943750000000  0.4991810000000 1.0
C      1  0.5408880000000  0.5615730000000  0.5197060000000 1.0
C      1  0.4947030000000  0.5409500000000  0.5117080000000 1.0
C      1  0.5399330000000  0.4592380000000  0.5675920000000 1.0
C      1  0.5392650000000  0.4556360000000  0.4539500000000 1.0
C      1  0.4643180000000  0.4498410000000  0.5546000000000 1.0
C      1  0.5577880000000  0.5041970000000  0.4487110000000 1.0
C      1  0.4611480000000  0.4835860000000  0.4291190000000 1.0
C      1  0.5413970000000  0.4533850000000  0.5407930000000 1.0
C      1  0.4706340000000  0.5416850000000  0.4383740000000 1.0
C      1  0.4294320000000  0.4892850000000  0.5481790000000 1.0
C      1  0.4294820000000  0.4692920000000  0.4927280000000 1.0
C      1  0.5607840000000  0.5045380000000  0.5600940000000 1.0
C      1  0.4647210000000  0.4507930000000  0.4620560000000 1.0
C      1  0.5668450000000  0.4767250000000  0.4846290000000 1.0
C      1  0.5163150000000  0.5397580000000  0.5541440000000 1.0
C      1  0.4984260000000  0.4572650000000  0.4216420000000 1.0
C      1  0.4297120000000  0.5122130000000  0.4549960000000 1.0
C      1  0.4923520000000  0.4498240000000  0.5470570000000 1.0
C      1  0.5099370000000  0.5190600000000  0.5325880000000 1.0
C      1  0.4281000000000  0.5324590000000  0.5234270000000 1.0
C      1  0.5698250000000  0.5202410000000  0.4697460000000 1.0
C      1  0.4461320000000  0.5582910000000  0.4858750000000 1.0
C      1  0.5462110000000  0.4623420000000  0.4990030000000 1.0
C      1  0.4851250000000  0.5195740000000  0.4918580000000 1.0
C      1  0.5059940000000  0.4373160000000  0.4934930000000 1.0
C      1  0.4277760000000  0.5400760000000  0.4961120000000 1.0
C      1  0.4736670000000  0.4585610000000  0.4353300000000 1.0
C      1  0.5185480000000  0.5591320000000  0.5011680000000 1.0
C      1  0.4903470000000  0.4995400000000  0.5413580000000 1.0
C      1  0.5377350000000  0.5089850000000  0.4288450000000 1.0
C      1  0.5800360000000  0.5015060000000  0.4903370000000 1.0
C      1  0.4197950000000  0.5160770000000  0.4810670000000 1.0
C      1  0.4750400000000  0.5498140000000  0.5348350000000 1.0
C      1  0.5607060000000  0.5461340000000  0.4798050000000 1.0
C      1  0.4684730000000  0.4988310000000  0.4943170000000 1.0
C      1  0.5593490000000  0.4763650000000  0.4576730000000 1.0
C      1  0.4391830000000  0.4869040000000  0.4471580000000 1.0
C      1  0.5324200000000  0.5556900000000  0.4743270000000 1.0
C      1  0.4967150000000  0.4735680000000  0.5271920000000 1.0
C      1  0.5649630000000  0.5518870000000  0.5072140000000 1.0
C      1  0.4753320000000  0.4707650000000  0.5047260000000 1.0
C      1  0.5287510000000  0.4853350000000  0.4156150000000 1.0
C      1  0.4813830000000  0.4486060000000  0.4849880000000 1.0
C      1  0.5317510000000  0.5033350000000  0.5200840000000 1.0
C      1  0.4453100000000  0.5335450000000  0.4451850000000 1.0
END
