TITL C-140200-7313-3 56.4271360141761 125000 -419.565735463307 0 0 62 (C1) n - 1
REM
REM in /rds/project/t2_vol4/rds-t2-cs072/BORA/CARBON/from-Arr/AIRSS/Generating-Clusters/GAP-ML-2020/Only-C1/SD-CG/HFTN-CG
REM
REM
REM
REM
REM
REM ./C.cell (11c1c37f851c82e70ff6c80c92926a4b)
REM AIRSS Version 0.9.1 bugfix July 2018 build 013d7b7c2542+ Fri, 06 Jul 2018 19:26:36 +0100
REM compiler GCC version 9.3.0
REM options -cpp -mtune=generic -march=x86-64 -g -O0
REM seed -1729520690 -778580765 -2081391113 -1518203790 483069274 605882511 394536104 2012372573 1035932873 1399020800 -2009340905 966496396 -25367169 -463881001 -1638286937 704063465 -974387825 1034998264 -953684115 2133324324 1559448123 1940046626 184106223 795812890 1269417576 1646072393 2144273574 -1630861164 -1453266645 1590269933 -1992675870 -732641194 -2121017881
REM
CELL 1.54180   50.00000   50.00000   50.00000   90.00000   90.00000   90.00000
LATT -1
SFAC C  
C      1  0.4865380000000  0.5047940000000  0.5617860000000 1.0
C      1  0.4490120000000  0.5476030000000  0.4906530000000 1.0
C      1  0.5252330000000  0.4828320000000  0.5353350000000 1.0
C      1  0.5418590000000  0.4880970000000  0.4612250000000 1.0
C      1  0.4771130000000  0.5850730000000  0.4723870000000 1.0
C      1  0.5306150000000  0.5308090000000  0.5652450000000 1.0
C      1  0.4952320000000  0.5818260000000  0.4908310000000 1.0
C      1  0.5348520000000  0.4915010000000  0.5621840000000 1.0
C      1  0.4836980000000  0.5511510000000  0.5372590000000 1.0
C      1  0.4296790000000  0.4786080000000  0.4922450000000 1.0
C      1  0.5153350000000  0.5186400000000  0.4990160000000 1.0
C      1  0.4739630000000  0.5295500000000  0.5535330000000 1.0
C      1  0.4459880000000  0.4628710000000  0.5101690000000 1.0
C      1  0.4958170000000  0.4710170000000  0.4277370000000 1.0
C      1  0.5241720000000  0.5075540000000  0.4457550000000 1.0
C      1  0.5491380000000  0.5431240000000  0.5233570000000 1.0
C      1  0.5082240000000  0.5624230000000  0.5335340000000 1.0
C      1  0.4814730000000  0.4295700000000  0.5124280000000 1.0
C      1  0.4698690000000  0.4505920000000  0.4979780000000 1.0
C      1  0.5152910000000  0.5108490000000  0.5258620000000 1.0
C      1  0.5134230000000  0.5682100000000  0.5056360000000 1.0
C      1  0.5151030000000  0.4539370000000  0.4370910000000 1.0
C      1  0.5447390000000  0.4790320000000  0.5127620000000 1.0
C      1  0.5247460000000  0.4208230000000  0.5321450000000 1.0
C      1  0.4880220000000  0.4820210000000  0.4679640000000 1.0
C      1  0.5094970000000  0.4723520000000  0.4860960000000 1.0
C      1  0.5708910000000  0.4907630000000  0.4674190000000 1.0
C      1  0.4523860000000  0.5265380000000  0.5352810000000 1.0
C      1  0.5526900000000  0.5129150000000  0.5577250000000 1.0
C      1  0.4996570000000  0.4666620000000  0.5347010000000 1.0
C      1  0.4658200000000  0.5596270000000  0.4703340000000 1.0
C      1  0.5689010000000  0.4965620000000  0.5144570000000 1.0
C      1  0.4863150000000  0.5224060000000  0.4936110000000 1.0
C      1  0.4518630000000  0.4793870000000  0.5339080000000 1.0
C      1  0.5009010000000  0.4355710000000  0.5307520000000 1.0
C      1  0.5453960000000  0.4504970000000  0.5031470000000 1.0
C      1  0.5395400000000  0.5473480000000  0.4686500000000 1.0
C      1  0.4883380000000  0.4475350000000  0.4433270000000 1.0
C      1  0.4797660000000  0.5348830000000  0.4663450000000 1.0
C      1  0.5341400000000  0.5331800000000  0.4480150000000 1.0
C      1  0.4471150000000  0.4619120000000  0.4526490000000 1.0
C      1  0.4947230000000  0.4970090000000  0.4427890000000 1.0
C      1  0.5626540000000  0.5190400000000  0.5319200000000 1.0
C      1  0.4381790000000  0.5038070000000  0.5293920000000 1.0
C      1  0.4451420000000  0.5086550000000  0.4599530000000 1.0
C      1  0.4715850000000  0.4567530000000  0.4651930000000 1.0
C      1  0.5342700000000  0.4597840000000  0.4558620000000 1.0
C      1  0.4896070000000  0.4716330000000  0.5072930000000 1.0
C      1  0.4755830000000  0.4954250000000  0.4926630000000 1.0
C      1  0.4709330000000  0.5149630000000  0.4485310000000 1.0
C      1  0.4276130000000  0.5046730000000  0.5027100000000 1.0
C      1  0.4343150000000  0.4821790000000  0.4643580000000 1.0
C      1  0.5277170000000  0.4496870000000  0.4810420000000 1.0
C      1  0.5829140000000  0.4941640000000  0.4901600000000 1.0
C      1  0.4773220000000  0.4805700000000  0.5481560000000 1.0
C      1  0.4667390000000  0.5410980000000  0.5136840000000 1.0
C      1  0.5291420000000  0.4928340000000  0.4899230000000 1.0
C      1  0.5461120000000  0.4279990000000  0.5193090000000 1.0
C      1  0.5311360000000  0.5504170000000  0.5449750000000 1.0
C      1  0.4366440000000  0.5234290000000  0.4831830000000 1.0
C      1  0.5325150000000  0.5464210000000  0.4966200000000 1.0
C      1  0.5128060000000  0.5088120000000  0.5717480000000 1.0
END
