TITL C-141691-1555-4 -212.903137869811 125000 -892.472886617028 0 0 129 (C1) n - 1
REM
REM in /rds/project/t2_vol4/rds-t2-cs072/BORA/CARBON/from-Arr/AIRSS/Generating-Clusters/GAP-ML-2020/Only-C1/SD-CG/HFTN-CG
REM
REM
REM
REM
REM
REM ./C.cell (11c1c37f851c82e70ff6c80c92926a4b)
REM AIRSS Version 0.9.1 bugfix July 2018 build 013d7b7c2542+ Fri, 06 Jul 2018 19:26:36 +0100
REM compiler GCC version 9.3.0
REM options -cpp -mtune=generic -march=x86-64 -g -O0
REM seed 1516343687 -1768744968 1764850610 -862284354 -1576615601 1965033328 435680896 -1280385690 -602364179 2106356356 1212037689 1537443912 1766085215 -1033731910 1058262134 -1392468435 1911557511 -575016470 1554947617 -2014596368 -1544461570 -1504774473 -1778466818 429454718 -1047934303 -1438693905 183656653 2004706869 -2068204296 -1501312126 1031607106 -1565550720 -1218608062
REM
CELL 1.54180   50.00000   50.00000   50.00000   90.00000   90.00000   90.00000
LATT -1
SFAC C  
C      1  0.4468870000000  0.4657790000000  0.5490360000000 1.0
C      1  0.4504310000000  0.5831890000000  0.4960180000000 1.0
C      1  0.4279660000000  0.4564380000000  0.4682790000000 1.0
C      1  0.5258590000000  0.5161160000000  0.4149130000000 1.0
C      1  0.5364170000000  0.5977220000000  0.4841230000000 1.0
C      1  0.4542290000000  0.5097150000000  0.4217510000000 1.0
C      1  0.5185550000000  0.4391020000000  0.5426990000000 1.0
C      1  0.5263930000000  0.4836490000000  0.4761640000000 1.0
C      1  0.5552170000000  0.5821330000000  0.4949300000000 1.0
C      1  0.5022790000000  0.5039260000000  0.4287660000000 1.0
C      1  0.5734960000000  0.4672800000000  0.5600430000000 1.0
C      1  0.4584360000000  0.4992950000000  0.5114180000000 1.0
C      1  0.5575100000000  0.4573530000000  0.4360190000000 1.0
C      1  0.4705280000000  0.4307680000000  0.5552020000000 1.0
C      1  0.4957830000000  0.4694770000000  0.5761720000000 1.0
C      1  0.4139760000000  0.5345310000000  0.4771620000000 1.0
C      1  0.4936100000000  0.4019810000000  0.5236620000000 1.0
C      1  0.4708940000000  0.4573580000000  0.5663820000000 1.0
C      1  0.5016860000000  0.5824510000000  0.5612350000000 1.0
C      1  0.4471020000000  0.4342690000000  0.5391890000000 1.0
C      1  0.5016610000000  0.5844680000000  0.5196050000000 1.0
C      1  0.5201500000000  0.3948560000000  0.5161180000000 1.0
C      1  0.5630540000000  0.5497560000000  0.4560890000000 1.0
C      1  0.5744480000000  0.5199440000000  0.5460570000000 1.0
C      1  0.4242570000000  0.5395640000000  0.5494490000000 1.0
C      1  0.4655280000000  0.4537840000000  0.5054180000000 1.0
C      1  0.5463960000000  0.4265800000000  0.5515960000000 1.0
C      1  0.5685890000000  0.4562490000000  0.4911320000000 1.0
C      1  0.4954100000000  0.4954460000000  0.5876960000000 1.0
C      1  0.4312180000000  0.5702880000000  0.5135440000000 1.0
C      1  0.5208590000000  0.4636140000000  0.5614110000000 1.0
C      1  0.5650100000000  0.4303830000000  0.4756530000000 1.0
C      1  0.5170020000000  0.4498660000000  0.5128390000000 1.0
C      1  0.4738610000000  0.4067880000000  0.5039220000000 1.0
C      1  0.5616640000000  0.5214190000000  0.4573100000000 1.0
C      1  0.5464620000000  0.4968560000000  0.4163120000000 1.0
C      1  0.5661560000000  0.5023200000000  0.4365000000000 1.0
C      1  0.4050300000000  0.5344720000000  0.5293990000000 1.0
C      1  0.4617410000000  0.5161650000000  0.5372180000000 1.0
C      1  0.5414590000000  0.4007990000000  0.5337090000000 1.0
C      1  0.4802680000000  0.4673380000000  0.4126970000000 1.0
C      1  0.5508720000000  0.4348030000000  0.4514120000000 1.0
C      1  0.4843430000000  0.4808920000000  0.4664020000000 1.0
C      1  0.5457820000000  0.5605380000000  0.4367650000000 1.0
C      1  0.5095000000000  0.4479610000000  0.4378920000000 1.0
C      1  0.4834850000000  0.4106750000000  0.4770920000000 1.0
C      1  0.5078660000000  0.5229050000000  0.5772410000000 1.0
C      1  0.4677630000000  0.5044080000000  0.4606410000000 1.0
C      1  0.4738870000000  0.4566340000000  0.4779050000000 1.0
C      1  0.5104730000000  0.5236230000000  0.4724670000000 1.0
C      1  0.3906710000000  0.5110520000000  0.5335700000000 1.0
C      1  0.5229270000000  0.5787360000000  0.4407630000000 1.0
C      1  0.5089310000000  0.4774310000000  0.4503160000000 1.0
C      1  0.4886950000000  0.5905120000000  0.4704240000000 1.0
C      1  0.5112610000000  0.4087000000000  0.4692540000000 1.0
C      1  0.4780410000000  0.4951610000000  0.4138460000000 1.0
C      1  0.5803410000000  0.4786730000000  0.4758090000000 1.0
C      1  0.5728670000000  0.4277640000000  0.5368970000000 1.0
C      1  0.5747570000000  0.4779910000000  0.4479040000000 1.0
C      1  0.5645700000000  0.4078310000000  0.5183800000000 1.0
C      1  0.4652240000000  0.4298640000000  0.4667000000000 1.0
C      1  0.4394960000000  0.5157240000000  0.5602470000000 1.0
C      1  0.4659520000000  0.5433770000000  0.5325410000000 1.0
C      1  0.4944060000000  0.4197090000000  0.5459870000000 1.0
C      1  0.5484010000000  0.5006980000000  0.5744080000000 1.0
C      1  0.5109940000000  0.4578420000000  0.4120850000000 1.0
C      1  0.4728470000000  0.5724890000000  0.4553480000000 1.0
C      1  0.5565450000000  0.4080330000000  0.4906240000000 1.0
C      1  0.4591120000000  0.5221440000000  0.5825440000000 1.0
C      1  0.4529140000000  0.5136120000000  0.4852340000000 1.0
C      1  0.4460920000000  0.4728260000000  0.5186810000000 1.0
C      1  0.5390570000000  0.5267890000000  0.5787520000000 1.0
C      1  0.5389950000000  0.4689140000000  0.4162800000000 1.0
C      1  0.5255600000000  0.5347780000000  0.5251460000000 1.0
C      1  0.4828160000000  0.5398960000000  0.5811470000000 1.0
C      1  0.4261720000000  0.5531270000000  0.4584850000000 1.0
C      1  0.4176380000000  0.4749010000000  0.5115040000000 1.0
C      1  0.4815060000000  0.5505900000000  0.4365520000000 1.0
C      1  0.5064530000000  0.5614870000000  0.4247780000000 1.0
C      1  0.4275580000000  0.4877490000000  0.5561610000000 1.0
C      1  0.4576620000000  0.4567680000000  0.4249250000000 1.0
C      1  0.5291170000000  0.4903740000000  0.5486830000000 1.0
C      1  0.5875280000000  0.4665300000000  0.5132330000000 1.0
C      1  0.4253400000000  0.5056430000000  0.4716420000000 1.0
C      1  0.4804320000000  0.5671350000000  0.5735360000000 1.0
C      1  0.5883350000000  0.4929190000000  0.5010070000000 1.0
C      1  0.4776190000000  0.5930080000000  0.4964530000000 1.0
C      1  0.4907380000000  0.5230780000000  0.4495950000000 1.0
C      1  0.5389830000000  0.4883350000000  0.5206830000000 1.0
C      1  0.5143960000000  0.5495300000000  0.4819200000000 1.0
C      1  0.4316450000000  0.5484320000000  0.4322230000000 1.0
C      1  0.5373390000000  0.4663790000000  0.5005990000000 1.0
C      1  0.4521980000000  0.4266640000000  0.5091940000000 1.0
C      1  0.5562170000000  0.5394730000000  0.5584310000000 1.0
C      1  0.4410890000000  0.4967210000000  0.4451600000000 1.0
C      1  0.5776940000000  0.5475550000000  0.5052740000000 1.0
C      1  0.5439750000000  0.5591550000000  0.5394320000000 1.0
C      1  0.4885240000000  0.5040630000000  0.5382010000000 1.0
C      1  0.5760580000000  0.5195770000000  0.5144980000000 1.0
C      1  0.4393710000000  0.4672810000000  0.4429220000000 1.0
C      1  0.5292050000000  0.3981590000000  0.4889860000000 1.0
C      1  0.4555110000000  0.5385060000000  0.4235230000000 1.0
C      1  0.5441420000000  0.5146170000000  0.5083280000000 1.0
C      1  0.5236230000000  0.4264870000000  0.4501600000000 1.0
C      1  0.5391050000000  0.5116050000000  0.4767820000000 1.0
C      1  0.4170000000000  0.4786070000000  0.4828280000000 1.0
C      1  0.5705500000000  0.5612340000000  0.4807640000000 1.0
C      1  0.4917220000000  0.4623940000000  0.5122070000000 1.0
C      1  0.4819230000000  0.5917680000000  0.5410120000000 1.0
C      1  0.4603350000000  0.5786910000000  0.5543990000000 1.0
C      1  0.4078370000000  0.4894970000000  0.5345430000000 1.0
C      1  0.4884910000000  0.4909280000000  0.5124360000000 1.0
C      1  0.4415100000000  0.5612860000000  0.5394400000000 1.0
C      1  0.5006270000000  0.4969500000000  0.4864720000000 1.0
C      1  0.5624840000000  0.5676220000000  0.5193270000000 1.0
C      1  0.4502980000000  0.5648930000000  0.4718470000000 1.0
C      1  0.5121650000000  0.5156800000000  0.5472210000000 1.0
C      1  0.5170560000000  0.5935500000000  0.4646190000000 1.0
C      1  0.5494360000000  0.4523190000000  0.5673410000000 1.0
C      1  0.4134340000000  0.5484130000000  0.5040120000000 1.0
C      1  0.5066170000000  0.5532940000000  0.5082880000000 1.0
C      1  0.4789540000000  0.5453740000000  0.5085400000000 1.0
C      1  0.5734720000000  0.4956750000000  0.5628230000000 1.0
C      1  0.4608310000000  0.5410080000000  0.4879760000000 1.0
C      1  0.4392900000000  0.4318670000000  0.4800190000000 1.0
C      1  0.5866000000000  0.4534830000000  0.5382420000000 1.0
C      1  0.5290650000000  0.5436250000000  0.4192810000000 1.0
C      1  0.4692950000000  0.4993000000000  0.5930070000000 1.0
C      1  0.5229080000000  0.5802200000000  0.5429480000000 1.0
END
