TITL C-144795-3115-4 44.1132613140128 125000 -744.377483282422 0 0 108 (C1) n - 1
REM
REM in /rds/project/t2_vol4/rds-t2-cs072/BORA/CARBON/from-Arr/AIRSS/Generating-Clusters/GAP-ML-2020/Only-C1/SD-CG/HFTN-CG
REM
REM
REM
REM
REM
REM ./C.cell (11c1c37f851c82e70ff6c80c92926a4b)
REM AIRSS Version 0.9.1 bugfix July 2018 build 013d7b7c2542+ Fri, 06 Jul 2018 19:26:36 +0100
REM compiler GCC version 9.3.0
REM options -cpp -mtune=generic -march=x86-64 -g -O0
REM seed 154905780 -1412496993 -1196486436 142848740 -1503741170 -704228 1745622941 -477988167 767323642 -779552855 -1278860833 1040775789 -1660610055 -1223958604 -1146090765 -241815636 -1936946142 -384459281 1292539717 411659868 1312968332 -1773023619 1547655349 363382827 -1125701013 -1613183202 -1014016430 381926239 -106742525 754682990 -765056311 1873090786 1172007201
REM
CELL 1.54180   50.00000   50.00000   50.00000   90.00000   90.00000   90.00000
LATT -1
SFAC C  
C      1  0.4907340000000  0.5050850000000  0.5866300000000 1.0
C      1  0.4911680000000  0.5534480000000  0.5663930000000 1.0
C      1  0.4999590000000  0.5689580000000  0.4369630000000 1.0
C      1  0.5124680000000  0.4820420000000  0.4638640000000 1.0
C      1  0.5205530000000  0.4282930000000  0.4913340000000 1.0
C      1  0.5306730000000  0.5312500000000  0.4858910000000 1.0
C      1  0.5128610000000  0.4524640000000  0.4472420000000 1.0
C      1  0.5549390000000  0.5043390000000  0.5543540000000 1.0
C      1  0.4662880000000  0.4224650000000  0.4915000000000 1.0
C      1  0.5456150000000  0.4585140000000  0.5567550000000 1.0
C      1  0.4307570000000  0.4623430000000  0.5372290000000 1.0
C      1  0.5588370000000  0.5347160000000  0.5559620000000 1.0
C      1  0.4883380000000  0.4546020000000  0.5181090000000 1.0
C      1  0.5074920000000  0.4886210000000  0.4921980000000 1.0
C      1  0.4433160000000  0.5435470000000  0.5457200000000 1.0
C      1  0.4479950000000  0.4735530000000  0.5568010000000 1.0
C      1  0.5475800000000  0.5061600000000  0.4881140000000 1.0
C      1  0.5049060000000  0.4314990000000  0.5727840000000 1.0
C      1  0.4920110000000  0.5328860000000  0.5396580000000 1.0
C      1  0.5864650000000  0.4815540000000  0.5211190000000 1.0
C      1  0.4487160000000  0.5638220000000  0.5286290000000 1.0
C      1  0.4695760000000  0.5270490000000  0.4040790000000 1.0
C      1  0.4639360000000  0.4532680000000  0.5688540000000 1.0
C      1  0.5287150000000  0.4356180000000  0.4655550000000 1.0
C      1  0.5323990000000  0.4332570000000  0.5611670000000 1.0
C      1  0.4581270000000  0.5192870000000  0.4931280000000 1.0
C      1  0.4331660000000  0.4642170000000  0.4905110000000 1.0
C      1  0.5340650000000  0.5506290000000  0.5568930000000 1.0
C      1  0.4969120000000  0.5271020000000  0.4592250000000 1.0
C      1  0.5413420000000  0.4362880000000  0.5114800000000 1.0
C      1  0.5333330000000  0.4899930000000  0.5097920000000 1.0
C      1  0.5270330000000  0.4906810000000  0.5908190000000 1.0
C      1  0.4380270000000  0.5741740000000  0.4723180000000 1.0
C      1  0.5298440000000  0.4560700000000  0.4239320000000 1.0
C      1  0.5824640000000  0.4826980000000  0.4730050000000 1.0
C      1  0.4752270000000  0.5788290000000  0.5288950000000 1.0
C      1  0.4935360000000  0.5830540000000  0.5066410000000 1.0
C      1  0.4866890000000  0.5830630000000  0.4787170000000 1.0
C      1  0.5355900000000  0.5501330000000  0.5088110000000 1.0
C      1  0.5075920000000  0.4638930000000  0.5364680000000 1.0
C      1  0.4845600000000  0.5078140000000  0.5570470000000 1.0
C      1  0.4770980000000  0.5486220000000  0.4476970000000 1.0
C      1  0.4406740000000  0.4622380000000  0.4410670000000 1.0
C      1  0.4204840000000  0.5074490000000  0.5206320000000 1.0
C      1  0.4431300000000  0.4367940000000  0.5023780000000 1.0
C      1  0.5665340000000  0.5469830000000  0.5098140000000 1.0
C      1  0.5007270000000  0.4782270000000  0.5930410000000 1.0
C      1  0.5253210000000  0.5354240000000  0.4551920000000 1.0
C      1  0.4605030000000  0.4415070000000  0.4445800000000 1.0
C      1  0.4617910000000  0.4754560000000  0.4809550000000 1.0
C      1  0.4813740000000  0.4770470000000  0.5026250000000 1.0
C      1  0.5280310000000  0.5628280000000  0.4439090000000 1.0
C      1  0.4880630000000  0.4183940000000  0.5531600000000 1.0
C      1  0.4593620000000  0.5318100000000  0.4295390000000 1.0
C      1  0.4824410000000  0.4813620000000  0.4282830000000 1.0
C      1  0.4599330000000  0.4241860000000  0.4655190000000 1.0
C      1  0.5031390000000  0.5200280000000  0.4894640000000 1.0
C      1  0.5612510000000  0.4714980000000  0.4550700000000 1.0
C      1  0.4195410000000  0.5006600000000  0.4568500000000 1.0
C      1  0.4352620000000  0.5177730000000  0.5438860000000 1.0
C      1  0.5206900000000  0.5759090000000  0.5158180000000 1.0
C      1  0.5797330000000  0.5411830000000  0.4849180000000 1.0
C      1  0.4853810000000  0.4535670000000  0.4368450000000 1.0
C      1  0.4940700000000  0.4259420000000  0.5052330000000 1.0
C      1  0.4821290000000  0.5247790000000  0.5102250000000 1.0
C      1  0.4643440000000  0.5695330000000  0.4657220000000 1.0
C      1  0.5163340000000  0.5435560000000  0.5789790000000 1.0
C      1  0.4282140000000  0.5269000000000  0.4983170000000 1.0
C      1  0.4296020000000  0.5567270000000  0.5070750000000 1.0
C      1  0.5647380000000  0.4447740000000  0.4939770000000 1.0
C      1  0.5162600000000  0.5184420000000  0.5904630000000 1.0
C      1  0.4235800000000  0.4713340000000  0.4621360000000 1.0
C      1  0.5762980000000  0.5124300000000  0.4763590000000 1.0
C      1  0.4900140000000  0.5135800000000  0.3949550000000 1.0
C      1  0.4899890000000  0.4988270000000  0.4529360000000 1.0
C      1  0.5066840000000  0.4908320000000  0.5456330000000 1.0
C      1  0.4581210000000  0.4992970000000  0.5473270000000 1.0
C      1  0.4894220000000  0.4542960000000  0.5835420000000 1.0
C      1  0.5204590000000  0.5756280000000  0.5441350000000 1.0
C      1  0.5335700000000  0.4966620000000  0.4191440000000 1.0
C      1  0.5366420000000  0.4626090000000  0.5258150000000 1.0
C      1  0.5040570000000  0.4127080000000  0.5304440000000 1.0
C      1  0.5550180000000  0.5692910000000  0.4466280000000 1.0
C      1  0.4632270000000  0.5014900000000  0.4682030000000 1.0
C      1  0.5426130000000  0.5142500000000  0.4425180000000 1.0
C      1  0.4426040000000  0.4373490000000  0.5304180000000 1.0
C      1  0.5295310000000  0.5057770000000  0.5349510000000 1.0
C      1  0.4526620000000  0.4839930000000  0.4284540000000 1.0
C      1  0.4455820000000  0.5081420000000  0.4429690000000 1.0
C      1  0.4225020000000  0.4785810000000  0.5153070000000 1.0
C      1  0.5688890000000  0.5234600000000  0.4500830000000 1.0
C      1  0.5221170000000  0.5344470000000  0.5334370000000 1.0
C      1  0.5783650000000  0.5026170000000  0.5353000000000 1.0
C      1  0.5054090000000  0.4958480000000  0.4107710000000 1.0
C      1  0.5309940000000  0.4200920000000  0.5355220000000 1.0
C      1  0.5398760000000  0.4918980000000  0.4627280000000 1.0
C      1  0.5053550000000  0.5852200000000  0.4571560000000 1.0
C      1  0.4624690000000  0.4308490000000  0.5510050000000 1.0
C      1  0.5499290000000  0.4729520000000  0.4254830000000 1.0
C      1  0.5710280000000  0.5506980000000  0.4587260000000 1.0
C      1  0.5476180000000  0.4819900000000  0.5723130000000 1.0
C      1  0.4933690000000  0.5770050000000  0.5518720000000 1.0
C      1  0.5553380000000  0.4454880000000  0.4675260000000 1.0
C      1  0.5748570000000  0.5323580000000  0.5324110000000 1.0
C      1  0.4679280000000  0.4991860000000  0.5163970000000 1.0
C      1  0.4122680000000  0.5182920000000  0.4750010000000 1.0
C      1  0.5828410000000  0.4676620000000  0.4972230000000 1.0
C      1  0.4188110000000  0.5759860000000  0.4893530000000 1.0
END
