TITL C-142772-1187-5 -0.091011738391804 125000 -167.490863874473 0 0 26 (C1) n - 1
REM
REM in /rds/project/t2_vol4/rds-t2-cs072/BORA/CARBON/from-Arr/AIRSS/Generating-Clusters/GAP-ML-2020/Only-C1/SD-CG/HFTN-CG
REM
REM
REM
REM
REM
REM ./C.cell (11c1c37f851c82e70ff6c80c92926a4b)
REM AIRSS Version 0.9.1 bugfix July 2018 build 013d7b7c2542+ Fri, 06 Jul 2018 19:26:36 +0100
REM compiler GCC version 9.3.0
REM options -cpp -mtune=generic -march=x86-64 -g -O0
REM seed -592557912 -2124724228 -728610928 1637174806 -2050135422 -1229932984 -306372737 -403736508 877789060 1568311027 -913374963 1362589283 -937677699 1375807023 126140150 -1274114653 956435163 -1514840573 1102941902 88349617 -1619694203 -61023728 1824877786 897728003 -1886923820 2004181201 300296559 1286753823 -266620502 1376122518 -1736614820 -74904860 -409524021
REM
CELL 1.54180   50.00000   50.00000   50.00000   90.00000   90.00000   90.00000
LATT -1
SFAC C  
C      1  0.5555290000000  0.5429330000000  0.4969080000000 1.0
C      1  0.4989220000000  0.4375010000000  0.5323960000000 1.0
C      1  0.4756450000000  0.5438490000000  0.5395680000000 1.0
C      1  0.4980140000000  0.4634910000000  0.5495950000000 1.0
C      1  0.4801250000000  0.4530170000000  0.4869990000000 1.0
C      1  0.5092000000000  0.5106280000000  0.4581470000000 1.0
C      1  0.5432390000000  0.4728900000000  0.5097840000000 1.0
C      1  0.4803650000000  0.4501560000000  0.5143320000000 1.0
C      1  0.4750950000000  0.4714180000000  0.5335130000000 1.0
C      1  0.4568440000000  0.5027840000000  0.5006100000000 1.0
C      1  0.5419460000000  0.4754380000000  0.5358340000000 1.0
C      1  0.5793050000000  0.5354320000000  0.5046770000000 1.0
C      1  0.4925660000000  0.5281550000000  0.4776660000000 1.0
C      1  0.4936460000000  0.4662520000000  0.4702870000000 1.0
C      1  0.5310600000000  0.5491020000000  0.4955420000000 1.0
C      1  0.4991850000000  0.5105950000000  0.4315120000000 1.0
C      1  0.5351670000000  0.4775210000000  0.4864490000000 1.0
C      1  0.4636530000000  0.5165710000000  0.4789270000000 1.0
C      1  0.4686290000000  0.5193120000000  0.5431880000000 1.0
C      1  0.5153480000000  0.4841400000000  0.4684350000000 1.0
C      1  0.4892460000000  0.5526260000000  0.5196240000000 1.0
C      1  0.5037860000000  0.5454790000000  0.4969660000000 1.0
C      1  0.5223940000000  0.4754710000000  0.5526140000000 1.0
C      1  0.4521670000000  0.5116700000000  0.4514560000000 1.0
C      1  0.4647320000000  0.4969490000000  0.5267080000000 1.0
C      1  0.4741920000000  0.5066190000000  0.4382630000000 1.0
END
