TITL C-142158-2686-3 39.5452898457042 125000 -1251.31674444427 0 0 179 (C1) n - 1
REM
REM in /rds/project/t2_vol4/rds-t2-cs072/BORA/CARBON/from-Arr/AIRSS/Generating-Clusters/GAP-ML-2020/Only-C1/SD-CG/HFTN-CG
REM
REM
REM
REM
REM
REM ./C.cell (11c1c37f851c82e70ff6c80c92926a4b)
REM AIRSS Version 0.9.1 bugfix July 2018 build 013d7b7c2542+ Fri, 06 Jul 2018 19:26:36 +0100
REM compiler GCC version 9.3.0
REM options -cpp -mtune=generic -march=x86-64 -g -O0
REM seed -875779560 1294326816 -1788378778 -304735861 1657682685 -1049945592 1459814268 -1398721040 -559801718 -584659013 508269168 1797627694 618253223 1271557860 -1545743148 -680092838 -396987649 1502693219 -363330567 500848040 1852949519 -948459601 -744136466 -329075620 1713739477 -1238093958 1074453824 -1173369334 621701116 689678403 1702282264 -834616387 -1065493785
REM
CELL 1.54180   50.00000   50.00000   50.00000   90.00000   90.00000   90.00000
LATT -1
SFAC C  
C      1  0.4919610000000  0.5152320000000  0.5171420000000 1.0
C      1  0.5617460000000  0.5053100000000  0.5093030000000 1.0
C      1  0.3934540000000  0.4944580000000  0.4847860000000 1.0
C      1  0.4139400000000  0.5654100000000  0.4770710000000 1.0
C      1  0.4996260000000  0.4038390000000  0.4868610000000 1.0
C      1  0.4572470000000  0.4609060000000  0.6035550000000 1.0
C      1  0.4085750000000  0.5115410000000  0.5308760000000 1.0
C      1  0.5350110000000  0.4222000000000  0.5146020000000 1.0
C      1  0.5639050000000  0.5554500000000  0.5656780000000 1.0
C      1  0.4440430000000  0.5291820000000  0.5622250000000 1.0
C      1  0.5337880000000  0.5478900000000  0.5200460000000 1.0
C      1  0.5346990000000  0.5887480000000  0.5421260000000 1.0
C      1  0.5836240000000  0.4469250000000  0.4582760000000 1.0
C      1  0.4953290000000  0.4602860000000  0.4409140000000 1.0
C      1  0.5207930000000  0.4580230000000  0.5433630000000 1.0
C      1  0.4428810000000  0.4970840000000  0.4931160000000 1.0
C      1  0.5297810000000  0.4898490000000  0.4687680000000 1.0
C      1  0.4605460000000  0.5528650000000  0.5170970000000 1.0
C      1  0.4403060000000  0.5705410000000  0.4376990000000 1.0
C      1  0.4175400000000  0.4257140000000  0.5236880000000 1.0
C      1  0.5452450000000  0.5378700000000  0.4228320000000 1.0
C      1  0.4622300000000  0.6149560000000  0.5070480000000 1.0
C      1  0.5335220000000  0.5942920000000  0.5134550000000 1.0
C      1  0.5208630000000  0.4832260000000  0.4046840000000 1.0
C      1  0.4990860000000  0.5659170000000  0.5816240000000 1.0
C      1  0.4582670000000  0.4463480000000  0.5060950000000 1.0
C      1  0.6002490000000  0.5448770000000  0.4898640000000 1.0
C      1  0.5193450000000  0.4285890000000  0.5846260000000 1.0
C      1  0.4311710000000  0.5882970000000  0.4800680000000 1.0
C      1  0.5214920000000  0.5448320000000  0.4053440000000 1.0
C      1  0.5388550000000  0.5171000000000  0.5569320000000 1.0
C      1  0.5079710000000  0.5552520000000  0.5343150000000 1.0
C      1  0.4784650000000  0.5895700000000  0.4550210000000 1.0
C      1  0.5915050000000  0.4648120000000  0.4792540000000 1.0
C      1  0.5791150000000  0.4819960000000  0.5491100000000 1.0
C      1  0.5535290000000  0.4905420000000  0.5917910000000 1.0
C      1  0.4023940000000  0.5438950000000  0.4933660000000 1.0
C      1  0.4821970000000  0.5259930000000  0.4887340000000 1.0
C      1  0.4141060000000  0.4475220000000  0.5421260000000 1.0
C      1  0.5349130000000  0.4083840000000  0.4410950000000 1.0
C      1  0.5599580000000  0.5881650000000  0.5020690000000 1.0
C      1  0.6148090000000  0.5126380000000  0.5320300000000 1.0
C      1  0.5452980000000  0.4619490000000  0.4271610000000 1.0
C      1  0.5180840000000  0.5470730000000  0.5919830000000 1.0
C      1  0.5095420000000  0.4337660000000  0.5286400000000 1.0
C      1  0.4492140000000  0.5887230000000  0.4575110000000 1.0
C      1  0.4285580000000  0.4836040000000  0.5748500000000 1.0
C      1  0.5878330000000  0.5516510000000  0.4454440000000 1.0
C      1  0.5261360000000  0.4643520000000  0.4531450000000 1.0
C      1  0.5369350000000  0.4689250000000  0.5183310000000 1.0
C      1  0.5189630000000  0.5713250000000  0.3976490000000 1.0
C      1  0.5680270000000  0.5818290000000  0.4753510000000 1.0
C      1  0.4311260000000  0.4589630000000  0.4331800000000 1.0
C      1  0.5656520000000  0.5051430000000  0.5667170000000 1.0
C      1  0.4867040000000  0.4611560000000  0.6001930000000 1.0
C      1  0.5230430000000  0.5718630000000  0.4500010000000 1.0
C      1  0.5864850000000  0.5126570000000  0.4259680000000 1.0
C      1  0.4626370000000  0.5635180000000  0.4206600000000 1.0
C      1  0.4709240000000  0.5352650000000  0.4150980000000 1.0
C      1  0.5751720000000  0.4548960000000  0.5023650000000 1.0
C      1  0.5564160000000  0.4636170000000  0.5841270000000 1.0
C      1  0.5727660000000  0.4186290000000  0.4661340000000 1.0
C      1  0.4982660000000  0.4371750000000  0.4198500000000 1.0
C      1  0.4891290000000  0.3999000000000  0.4561650000000 1.0
C      1  0.5821620000000  0.4250420000000  0.5111160000000 1.0
C      1  0.5194350000000  0.5127580000000  0.5090160000000 1.0
C      1  0.4588020000000  0.4634260000000  0.5551480000000 1.0
C      1  0.4537510000000  0.5298770000000  0.4924860000000 1.0
C      1  0.5687780000000  0.4445360000000  0.4332380000000 1.0
C      1  0.4624750000000  0.5093930000000  0.6043230000000 1.0
C      1  0.5652910000000  0.4788140000000  0.5211990000000 1.0
C      1  0.4924570000000  0.4750210000000  0.5029440000000 1.0
C      1  0.4938380000000  0.4331080000000  0.5914470000000 1.0
C      1  0.4479350000000  0.4407180000000  0.5852950000000 1.0
C      1  0.5069840000000  0.5797020000000  0.5542820000000 1.0
C      1  0.5614630000000  0.4165700000000  0.4357950000000 1.0
C      1  0.4346290000000  0.5082800000000  0.4351160000000 1.0
C      1  0.4617600000000  0.4023370000000  0.5279440000000 1.0
C      1  0.5408300000000  0.5421290000000  0.5753960000000 1.0
C      1  0.4683230000000  0.4684510000000  0.4013880000000 1.0
C      1  0.5446230000000  0.5327860000000  0.4735590000000 1.0
C      1  0.4574370000000  0.5886260000000  0.5500520000000 1.0
C      1  0.4518410000000  0.4897860000000  0.3920340000000 1.0
C      1  0.5025510000000  0.5010020000000  0.4201960000000 1.0
C      1  0.5132380000000  0.5223810000000  0.6065000000000 1.0
C      1  0.3996140000000  0.5210500000000  0.4754560000000 1.0
C      1  0.4831340000000  0.4887850000000  0.5270200000000 1.0
C      1  0.6139230000000  0.4928370000000  0.5119040000000 1.0
C      1  0.4516640000000  0.4803780000000  0.4709960000000 1.0
C      1  0.4806800000000  0.4807940000000  0.4754470000000 1.0
C      1  0.5993640000000  0.5355760000000  0.5390480000000 1.0
C      1  0.4866230000000  0.6081350000000  0.5178480000000 1.0
C      1  0.4816160000000  0.4714280000000  0.5695240000000 1.0
C      1  0.4546600000000  0.4846040000000  0.5362120000000 1.0
C      1  0.4422350000000  0.4734430000000  0.5136200000000 1.0
C      1  0.4556660000000  0.5176450000000  0.3945800000000 1.0
C      1  0.4186540000000  0.5608740000000  0.5380100000000 1.0
C      1  0.5066610000000  0.5930050000000  0.5011660000000 1.0
C      1  0.5284860000000  0.4427020000000  0.4738250000000 1.0
C      1  0.5638860000000  0.5594090000000  0.4336130000000 1.0
C      1  0.6067930000000  0.4872780000000  0.5386400000000 1.0
C      1  0.5940170000000  0.5534170000000  0.5172300000000 1.0
C      1  0.5876750000000  0.4105280000000  0.4886700000000 1.0
C      1  0.4622880000000  0.3999880000000  0.4504740000000 1.0
C      1  0.5441000000000  0.4473430000000  0.4992260000000 1.0
C      1  0.4698780000000  0.4223960000000  0.5786700000000 1.0
C      1  0.3988580000000  0.4906040000000  0.5135460000000 1.0
C      1  0.5606200000000  0.5769870000000  0.5472050000000 1.0
C      1  0.6067910000000  0.4905850000000  0.4845900000000 1.0
C      1  0.4970120000000  0.4081730000000  0.5372350000000 1.0
C      1  0.5758980000000  0.4566920000000  0.5647660000000 1.0
C      1  0.4903700000000  0.5642410000000  0.5117080000000 1.0
C      1  0.4740810000000  0.4072990000000  0.5545970000000 1.0
C      1  0.4936830000000  0.5300180000000  0.5423450000000 1.0
C      1  0.5812470000000  0.5332720000000  0.5609800000000 1.0
C      1  0.4690990000000  0.4412310000000  0.4102470000000 1.0
C      1  0.5754460000000  0.5753180000000  0.5224850000000 1.0
C      1  0.5541380000000  0.5065410000000  0.4792940000000 1.0
C      1  0.4308080000000  0.4552230000000  0.5656090000000 1.0
C      1  0.4863030000000  0.3965810000000  0.5129680000000 1.0
C      1  0.5002660000000  0.4356860000000  0.4822650000000 1.0
C      1  0.4460170000000  0.4356430000000  0.4270400000000 1.0
C      1  0.5100970000000  0.5087910000000  0.5584730000000 1.0
C      1  0.4529760000000  0.4491430000000  0.4770820000000 1.0
C      1  0.5365630000000  0.4447760000000  0.5688780000000 1.0
C      1  0.4900720000000  0.4464410000000  0.5080170000000 1.0
C      1  0.4657180000000  0.5374110000000  0.5411480000000 1.0
C      1  0.4116380000000  0.4391700000000  0.4989680000000 1.0
C      1  0.5899570000000  0.5634880000000  0.4713500000000 1.0
C      1  0.5613960000000  0.4337230000000  0.5544260000000 1.0
C      1  0.4590970000000  0.5319350000000  0.5878750000000 1.0
C      1  0.5255350000000  0.5399180000000  0.4932620000000 1.0
C      1  0.4478400000000  0.4826440000000  0.4410860000000 1.0
C      1  0.5289170000000  0.4972990000000  0.6057350000000 1.0
C      1  0.4858430000000  0.5097140000000  0.4636290000000 1.0
C      1  0.4410680000000  0.5773550000000  0.5265020000000 1.0
C      1  0.5606200000000  0.4202160000000  0.5308400000000 1.0
C      1  0.5614490000000  0.5124570000000  0.4158280000000 1.0
C      1  0.5012640000000  0.5793870000000  0.4713970000000 1.0
C      1  0.4061360000000  0.5395070000000  0.5224710000000 1.0
C      1  0.5516510000000  0.5779670000000  0.4518760000000 1.0
C      1  0.4627020000000  0.5232440000000  0.4449300000000 1.0
C      1  0.4109090000000  0.4555200000000  0.4541930000000 1.0
C      1  0.4784130000000  0.4813180000000  0.4258400000000 1.0
C      1  0.5206850000000  0.4544170000000  0.4094270000000 1.0
C      1  0.6052520000000  0.5185790000000  0.4744570000000 1.0
C      1  0.4506790000000  0.5727820000000  0.5719100000000 1.0
C      1  0.4984460000000  0.5510390000000  0.4866120000000 1.0
C      1  0.4328810000000  0.5067490000000  0.4044840000000 1.0
C      1  0.3960260000000  0.4746300000000  0.4657460000000 1.0
C      1  0.4818000000000  0.4514220000000  0.4650120000000 1.0
C      1  0.5038300000000  0.4823680000000  0.6127090000000 1.0
C      1  0.4447180000000  0.4223300000000  0.5185410000000 1.0
C      1  0.5123920000000  0.5099470000000  0.4504320000000 1.0
C      1  0.4835320000000  0.5802410000000  0.4289310000000 1.0
C      1  0.5283090000000  0.4034070000000  0.4927250000000 1.0
C      1  0.5287700000000  0.5363800000000  0.4493520000000 1.0
C      1  0.5205140000000  0.4849570000000  0.4989900000000 1.0
C      1  0.4488780000000  0.5395610000000  0.4646570000000 1.0
C      1  0.4405200000000  0.5982750000000  0.5051990000000 1.0
C      1  0.5983550000000  0.5251910000000  0.4466960000000 1.0
C      1  0.4230740000000  0.5525350000000  0.4527300000000 1.0
C      1  0.5417920000000  0.4146710000000  0.4692080000000 1.0
C      1  0.4255380000000  0.4356070000000  0.4710350000000 1.0
C      1  0.4711690000000  0.5587610000000  0.5859430000000 1.0
C      1  0.5075320000000  0.4119540000000  0.4349510000000 1.0
C      1  0.4137690000000  0.4649210000000  0.5172640000000 1.0
C      1  0.4454520000000  0.4863730000000  0.5979230000000 1.0
C      1  0.5109050000000  0.5768520000000  0.4235720000000 1.0
C      1  0.4149710000000  0.5249380000000  0.4514220000000 1.0
C      1  0.4892350000000  0.5071780000000  0.6138070000000 1.0
C      1  0.4291890000000  0.5551470000000  0.5630900000000 1.0
C      1  0.4983170000000  0.5276580000000  0.4084890000000 1.0
C      1  0.5425170000000  0.5207560000000  0.5267090000000 1.0
C      1  0.5014000000000  0.4811550000000  0.5511280000000 1.0
C      1  0.4841590000000  0.5972800000000  0.5449770000000 1.0
C      1  0.5480260000000  0.4877500000000  0.4115390000000 1.0
C      1  0.4308840000000  0.5034490000000  0.5517200000000 1.0
C      1  0.4407730000000  0.4163590000000  0.4490680000000 1.0
END
