TITL C-147424-6740-9 15.5530753136917 125000 -439.60402300747 0 0 65 (C1) n - 1
REM
REM in /rds/project/t2_vol4/rds-t2-cs072/BORA/CARBON/from-Arr/AIRSS/Generating-Clusters/GAP-ML-2020/Only-C1/SD-CG/HFTN-CG
REM
REM
REM
REM
REM
REM ./C.cell (11c1c37f851c82e70ff6c80c92926a4b)
REM AIRSS Version 0.9.1 bugfix July 2018 build 013d7b7c2542+ Fri, 06 Jul 2018 19:26:36 +0100
REM compiler GCC version 9.3.0
REM options -cpp -mtune=generic -march=x86-64 -g -O0
REM seed 568131079 -1629165637 -1844481633 -2110300469 -1238307541 -874581446 -1501064938 1632522555 1854180647 -310325304 1321149172 -192322491 -1541167102 1242502675 -423958389 938957450 1148036643 1563867653 1306554693 -332249774 -908967079 154664780 940425820 269373079 313529638 881107455 1974516829 -1917146997 -1216901895 -437098800 1371258885 -1852644226 1256281011
REM
CELL 1.54180   50.00000   50.00000   50.00000   90.00000   90.00000   90.00000
LATT -1
SFAC C  
C      1  0.5469520000000  0.5070140000000  0.5487850000000 1.0
C      1  0.4425830000000  0.4918520000000  0.4603550000000 1.0
C      1  0.4776340000000  0.5019520000000  0.4892870000000 1.0
C      1  0.4518180000000  0.5202010000000  0.5446250000000 1.0
C      1  0.5022370000000  0.4642540000000  0.4424300000000 1.0
C      1  0.4303080000000  0.5016300000000  0.5075370000000 1.0
C      1  0.5226230000000  0.4773420000000  0.5803550000000 1.0
C      1  0.4879890000000  0.5350570000000  0.4345930000000 1.0
C      1  0.5027930000000  0.5025990000000  0.5282480000000 1.0
C      1  0.5575300000000  0.4530340000000  0.5050970000000 1.0
C      1  0.5379390000000  0.4352280000000  0.4978330000000 1.0
C      1  0.5629090000000  0.5200160000000  0.4913800000000 1.0
C      1  0.5294210000000  0.5209200000000  0.5302910000000 1.0
C      1  0.4781010000000  0.5594070000000  0.4641790000000 1.0
C      1  0.5227080000000  0.4916080000000  0.4878260000000 1.0
C      1  0.4415700000000  0.5215780000000  0.4585090000000 1.0
C      1  0.4999390000000  0.4299380000000  0.4807880000000 1.0
C      1  0.4746060000000  0.5135640000000  0.5593360000000 1.0
C      1  0.4343180000000  0.5294350000000  0.5030600000000 1.0
C      1  0.4775970000000  0.4497920000000  0.4825560000000 1.0
C      1  0.5449700000000  0.4837630000000  0.4680280000000 1.0
C      1  0.4526500000000  0.5398280000000  0.5233270000000 1.0
C      1  0.5179140000000  0.4321630000000  0.5191490000000 1.0
C      1  0.5158640000000  0.5254970000000  0.5762160000000 1.0
C      1  0.5254830000000  0.5510650000000  0.5298020000000 1.0
C      1  0.5711500000000  0.4962610000000  0.5064740000000 1.0
C      1  0.5209050000000  0.4582230000000  0.5339910000000 1.0
C      1  0.5556050000000  0.5477920000000  0.4899440000000 1.0
C      1  0.5372670000000  0.5634340000000  0.5063050000000 1.0
C      1  0.4932950000000  0.5577180000000  0.4898600000000 1.0
C      1  0.4636660000000  0.4755150000000  0.5293370000000 1.0
C      1  0.5087130000000  0.4785670000000  0.5107660000000 1.0
C      1  0.4997170000000  0.5591460000000  0.4446570000000 1.0
C      1  0.5256280000000  0.4383560000000  0.4724440000000 1.0
C      1  0.4433630000000  0.4962370000000  0.5315370000000 1.0
C      1  0.5652650000000  0.4744600000000  0.4886850000000 1.0
C      1  0.5317750000000  0.5033480000000  0.5729410000000 1.0
C      1  0.5149910000000  0.5310450000000  0.4819550000000 1.0
C      1  0.5278130000000  0.4615590000000  0.4549250000000 1.0
C      1  0.4617870000000  0.4783010000000  0.4452870000000 1.0
C      1  0.4633050000000  0.5376520000000  0.4502890000000 1.0
C      1  0.5341440000000  0.5159740000000  0.5013690000000 1.0
C      1  0.4986480000000  0.5528670000000  0.5390310000000 1.0
C      1  0.4665950000000  0.4323600000000  0.5065960000000 1.0
C      1  0.5073430000000  0.4695530000000  0.5587240000000 1.0
C      1  0.4809830000000  0.5482220000000  0.5162100000000 1.0
C      1  0.5542260000000  0.5125450000000  0.4629040000000 1.0
C      1  0.4276970000000  0.5359430000000  0.4778460000000 1.0
C      1  0.4769790000000  0.4556870000000  0.4546310000000 1.0
C      1  0.4802610000000  0.4750790000000  0.5017380000000 1.0
C      1  0.4487760000000  0.4498270000000  0.5203350000000 1.0
C      1  0.5619330000000  0.4889540000000  0.5334050000000 1.0
C      1  0.4300260000000  0.4584230000000  0.5010220000000 1.0
C      1  0.4849280000000  0.4872310000000  0.5494050000000 1.0
C      1  0.5179640000000  0.5732470000000  0.4870130000000 1.0
C      1  0.4986880000000  0.5098400000000  0.4419840000000 1.0
C      1  0.4950610000000  0.5337600000000  0.5611780000000 1.0
C      1  0.5393840000000  0.5410150000000  0.4636590000000 1.0
C      1  0.4867150000000  0.4867120000000  0.4321230000000 1.0
C      1  0.5244440000000  0.5646440000000  0.4568980000000 1.0
C      1  0.4325570000000  0.4817860000000  0.4867280000000 1.0
C      1  0.4842690000000  0.5183630000000  0.5120480000000 1.0
C      1  0.4934970000000  0.4218670000000  0.5083940000000 1.0
C      1  0.5012620000000  0.5069100000000  0.4724660000000 1.0
C      1  0.5509160000000  0.4628410000000  0.5313020000000 1.0
END
