TITL C-141709-1816-3 29.4141575150646 125000 -593.796574859103 0 0 86 (C1) n - 1
REM
REM in /rds/project/t2_vol4/rds-t2-cs072/BORA/CARBON/from-Arr/AIRSS/Generating-Clusters/GAP-ML-2020/Only-C1/SD-CG/HFTN-CG
REM
REM
REM
REM
REM
REM ./C.cell (11c1c37f851c82e70ff6c80c92926a4b)
REM AIRSS Version 0.9.1 bugfix July 2018 build 013d7b7c2542+ Fri, 06 Jul 2018 19:26:36 +0100
REM compiler GCC version 9.3.0
REM options -cpp -mtune=generic -march=x86-64 -g -O0
REM seed 2117904759 -803815893 -16288666 -1314993762 -992475219 1506704547 496842504 -1323958367 -637650690 484631203 -1705376653 -603611046 1791657273 1593990201 840952411 -2146272631 71316169 1762183490 1930838741 -123998179 1045265264 -1695374232 -1559478296 1241961935 -2126584430 1788616200 1005014206 -1801823063 -2114502217 -907010728 1621760098 -1304076527 840537594
REM
CELL 1.54180   50.00000   50.00000   50.00000   90.00000   90.00000   90.00000
LATT -1
SFAC C  
C      1  0.5054270000000  0.4781990000000  0.4782560000000 1.0
C      1  0.5231150000000  0.4119520000000  0.4919740000000 1.0
C      1  0.4953050000000  0.5604360000000  0.5720790000000 1.0
C      1  0.4546300000000  0.5422970000000  0.5514680000000 1.0
C      1  0.4839070000000  0.4794980000000  0.4953400000000 1.0
C      1  0.4417600000000  0.4545630000000  0.4664050000000 1.0
C      1  0.4674760000000  0.4729710000000  0.5702490000000 1.0
C      1  0.4543370000000  0.5589300000000  0.4609430000000 1.0
C      1  0.4946500000000  0.4136510000000  0.4956620000000 1.0
C      1  0.4480780000000  0.4757140000000  0.4451370000000 1.0
C      1  0.5888590000000  0.5182680000000  0.4789330000000 1.0
C      1  0.5145340000000  0.5100370000000  0.5178900000000 1.0
C      1  0.5321180000000  0.5562880000000  0.4506410000000 1.0
C      1  0.4945820000000  0.4810840000000  0.5770820000000 1.0
C      1  0.5746740000000  0.4848390000000  0.5144490000000 1.0
C      1  0.4582800000000  0.5003510000000  0.5769100000000 1.0
C      1  0.4894820000000  0.4404090000000  0.5403330000000 1.0
C      1  0.4817530000000  0.4215390000000  0.4713270000000 1.0
C      1  0.5175510000000  0.5704930000000  0.4737890000000 1.0
C      1  0.4266290000000  0.4736170000000  0.4818170000000 1.0
C      1  0.5235340000000  0.4590440000000  0.4860590000000 1.0
C      1  0.4793800000000  0.5162680000000  0.4399030000000 1.0
C      1  0.5388610000000  0.4442900000000  0.5265960000000 1.0
C      1  0.5318620000000  0.5111460000000  0.4952420000000 1.0
C      1  0.5514280000000  0.5184170000000  0.5484090000000 1.0
C      1  0.4855510000000  0.5094110000000  0.5834340000000 1.0
C      1  0.5168520000000  0.4521770000000  0.5451250000000 1.0
C      1  0.4181570000000  0.5095860000000  0.5505200000000 1.0
C      1  0.4808560000000  0.4245970000000  0.5178840000000 1.0
C      1  0.4925810000000  0.5800040000000  0.4736790000000 1.0
C      1  0.4217940000000  0.5053140000000  0.5239590000000 1.0
C      1  0.5168540000000  0.4936480000000  0.4213990000000 1.0
C      1  0.5293890000000  0.5639060000000  0.5298890000000 1.0
C      1  0.5369890000000  0.4544720000000  0.4354640000000 1.0
C      1  0.4427630000000  0.5508930000000  0.5259550000000 1.0
C      1  0.4514020000000  0.5207060000000  0.4912670000000 1.0
C      1  0.5235190000000  0.5060940000000  0.5494020000000 1.0
C      1  0.5689270000000  0.5361250000000  0.5141400000000 1.0
C      1  0.4304900000000  0.4935270000000  0.4598680000000 1.0
C      1  0.4393190000000  0.5190290000000  0.4647380000000 1.0
C      1  0.5374620000000  0.4196640000000  0.5132390000000 1.0
C      1  0.4457670000000  0.4545590000000  0.5247940000000 1.0
C      1  0.5071560000000  0.5721360000000  0.5464640000000 1.0
C      1  0.5007190000000  0.5228660000000  0.5601580000000 1.0
C      1  0.5547690000000  0.4570400000000  0.4804010000000 1.0
C      1  0.4544240000000  0.5354370000000  0.4470290000000 1.0
C      1  0.5527210000000  0.5419030000000  0.4635370000000 1.0
C      1  0.4945370000000  0.4889350000000  0.5199460000000 1.0
C      1  0.4338140000000  0.4794490000000  0.5098420000000 1.0
C      1  0.5029030000000  0.4264680000000  0.4513570000000 1.0
C      1  0.5466880000000  0.4388950000000  0.4578030000000 1.0
C      1  0.5274130000000  0.4191180000000  0.4641080000000 1.0
C      1  0.5164140000000  0.4773790000000  0.5601010000000 1.0
C      1  0.4556850000000  0.4331500000000  0.4785180000000 1.0
C      1  0.4803660000000  0.5282250000000  0.5387500000000 1.0
C      1  0.4786510000000  0.5342400000000  0.4893780000000 1.0
C      1  0.4925660000000  0.5207630000000  0.4678290000000 1.0
C      1  0.5212610000000  0.5444210000000  0.4271340000000 1.0
C      1  0.5231230000000  0.5563300000000  0.5009990000000 1.0
C      1  0.5089870000000  0.4483220000000  0.4318520000000 1.0
C      1  0.5516170000000  0.5462000000000  0.5370020000000 1.0
C      1  0.5145650000000  0.5041430000000  0.4747830000000 1.0
C      1  0.5719880000000  0.4776160000000  0.4686500000000 1.0
C      1  0.4968810000000  0.5362270000000  0.5863330000000 1.0
C      1  0.5448620000000  0.5373940000000  0.4926160000000 1.0
C      1  0.5853630000000  0.4918790000000  0.4885540000000 1.0
C      1  0.4699790000000  0.5658930000000  0.4844460000000 1.0
C      1  0.4403670000000  0.5186970000000  0.5645350000000 1.0
C      1  0.4687960000000  0.5659760000000  0.5611850000000 1.0
C      1  0.5428180000000  0.4823750000000  0.4304910000000 1.0
C      1  0.4319060000000  0.5292660000000  0.5114420000000 1.0
C      1  0.4649030000000  0.4547310000000  0.5475880000000 1.0
C      1  0.5583960000000  0.4605950000000  0.5104040000000 1.0
C      1  0.4556160000000  0.4343970000000  0.5078450000000 1.0
C      1  0.4718020000000  0.4869870000000  0.4328080000000 1.0
C      1  0.4963410000000  0.5344310000000  0.5129390000000 1.0
C      1  0.4792140000000  0.5771000000000  0.5364140000000 1.0
C      1  0.5640070000000  0.4940320000000  0.4466070000000 1.0
C      1  0.4614200000000  0.5692680000000  0.5147860000000 1.0
C      1  0.4715300000000  0.5023020000000  0.5301380000000 1.0
C      1  0.5917980000000  0.5385470000000  0.4979760000000 1.0
C      1  0.4960850000000  0.4736900000000  0.4241620000000 1.0
C      1  0.5701790000000  0.5083440000000  0.5292960000000 1.0
C      1  0.5064910000000  0.5211100000000  0.4235960000000 1.0
C      1  0.4591070000000  0.4946830000000  0.5026740000000 1.0
C      1  0.5708870000000  0.5210300000000  0.4558780000000 1.0
END
