TITL C-142784-1159-3 -111.040893107355 125000 -453.952348579173 0 0 67 (C1) n - 1
REM
REM in /rds/project/t2_vol4/rds-t2-cs072/BORA/CARBON/from-Arr/AIRSS/Generating-Clusters/GAP-ML-2020/Only-C1/SD-CG/HFTN-CG
REM
REM
REM
REM
REM
REM ./C.cell (11c1c37f851c82e70ff6c80c92926a4b)
REM AIRSS Version 0.9.1 bugfix July 2018 build 013d7b7c2542+ Fri, 06 Jul 2018 19:26:36 +0100
REM compiler GCC version 9.3.0
REM options -cpp -mtune=generic -march=x86-64 -g -O0
REM seed -1973230504 1247984493 -1304763898 830732675 -842248030 -1374872895 -76035574 -1970129313 786797390 251224552 593332403 -1717446945 -1274708741 1162672062 860607135 2033918441 -607236957 -115077126 1183815556 1019750860 1954824924 1523692425 282891743 1577027067 1525235359 -557188362 -2038304054 402003430 -318465216 -1715771163 1521146504 1953674393 -1108674279
REM
CELL 1.54180   50.00000   50.00000   50.00000   90.00000   90.00000   90.00000
LATT -1
SFAC C  
C      1  0.4864270000000  0.5272620000000  0.5044640000000 1.0
C      1  0.5320860000000  0.5334760000000  0.5553840000000 1.0
C      1  0.4235010000000  0.5189350000000  0.4870930000000 1.0
C      1  0.4991870000000  0.5604630000000  0.4708690000000 1.0
C      1  0.5167620000000  0.5555500000000  0.5469430000000 1.0
C      1  0.5184130000000  0.4963430000000  0.4824090000000 1.0
C      1  0.5009090000000  0.4387390000000  0.5049610000000 1.0
C      1  0.4612270000000  0.5453940000000  0.5047190000000 1.0
C      1  0.4211980000000  0.5126140000000  0.5151180000000 1.0
C      1  0.5397680000000  0.4523780000000  0.5325340000000 1.0
C      1  0.4760820000000  0.4945010000000  0.5885670000000 1.0
C      1  0.4616500000000  0.4425930000000  0.4754290000000 1.0
C      1  0.5489160000000  0.5373330000000  0.4742970000000 1.0
C      1  0.5513790000000  0.4686060000000  0.5102410000000 1.0
C      1  0.5380860000000  0.4931380000000  0.4370550000000 1.0
C      1  0.5164320000000  0.4542600000000  0.4500910000000 1.0
C      1  0.4595320000000  0.5315100000000  0.4579010000000 1.0
C      1  0.4873950000000  0.4934940000000  0.4359320000000 1.0
C      1  0.4950520000000  0.4351840000000  0.4534550000000 1.0
C      1  0.5461010000000  0.4469400000000  0.4902240000000 1.0
C      1  0.4704150000000  0.4485160000000  0.4487190000000 1.0
C      1  0.5077090000000  0.4709920000000  0.4738980000000 1.0
C      1  0.5651530000000  0.5177420000000  0.4886180000000 1.0
C      1  0.4435510000000  0.4704360000000  0.5142960000000 1.0
C      1  0.4847820000000  0.5256810000000  0.5543710000000 1.0
C      1  0.5062430000000  0.5403520000000  0.4518110000000 1.0
C      1  0.4627570000000  0.5119280000000  0.5704790000000 1.0
C      1  0.5342520000000  0.5437700000000  0.4977160000000 1.0
C      1  0.4894530000000  0.4656440000000  0.5147870000000 1.0
C      1  0.5291710000000  0.4936750000000  0.5090290000000 1.0
C      1  0.4871090000000  0.4298310000000  0.4819160000000 1.0
C      1  0.4882910000000  0.4759250000000  0.5720820000000 1.0
C      1  0.4458620000000  0.4917770000000  0.5560390000000 1.0
C      1  0.5743850000000  0.4822650000000  0.5212480000000 1.0
C      1  0.4647300000000  0.4612910000000  0.5300300000000 1.0
C      1  0.4636930000000  0.4688000000000  0.5569020000000 1.0
C      1  0.4461280000000  0.4852080000000  0.4610990000000 1.0
C      1  0.5126680000000  0.4854900000000  0.5582340000000 1.0
C      1  0.4658730000000  0.4758320000000  0.4424800000000 1.0
C      1  0.4393530000000  0.5123630000000  0.4641320000000 1.0
C      1  0.5527050000000  0.5194230000000  0.5408770000000 1.0
C      1  0.5345240000000  0.5342130000000  0.4492900000000 1.0
C      1  0.4306900000000  0.4907030000000  0.5303430000000 1.0
C      1  0.5121980000000  0.5159710000000  0.5651320000000 1.0
C      1  0.5448390000000  0.5207000000000  0.5127180000000 1.0
C      1  0.5393350000000  0.4722870000000  0.5532340000000 1.0
C      1  0.4859810000000  0.5189370000000  0.4523830000000 1.0
C      1  0.5058370000000  0.4885580000000  0.5277080000000 1.0
C      1  0.4892990000000  0.5551690000000  0.5455340000000 1.0
C      1  0.4816610000000  0.4779510000000  0.4882300000000 1.0
C      1  0.5426590000000  0.4541920000000  0.4630620000000 1.0
C      1  0.5827690000000  0.4969530000000  0.4975940000000 1.0
C      1  0.4904730000000  0.5074820000000  0.4831790000000 1.0
C      1  0.4623620000000  0.5539890000000  0.4757410000000 1.0
C      1  0.5715600000000  0.4935170000000  0.4725340000000 1.0
C      1  0.5281880000000  0.4362080000000  0.5110480000000 1.0
C      1  0.5078920000000  0.5505820000000  0.4964510000000 1.0
C      1  0.4779740000000  0.5863480000000  0.5048860000000 1.0
C      1  0.4517040000000  0.4681270000000  0.4852480000000 1.0
C      1  0.5552160000000  0.4786630000000  0.4555410000000 1.0
C      1  0.4728920000000  0.5673780000000  0.5231320000000 1.0
C      1  0.4332340000000  0.5362610000000  0.5067270000000 1.0
C      1  0.5125220000000  0.4799070000000  0.4357330000000 1.0
C      1  0.4775570000000  0.5773470000000  0.4753330000000 1.0
C      1  0.5446560000000  0.5184230000000  0.4292090000000 1.0
C      1  0.5602660000000  0.4923390000000  0.5454210000000 1.0
C      1  0.4893190000000  0.5121410000000  0.5281410000000 1.0
END
