TITL C-144815-3187-3 -0.127947747498669 125000 -352.029951982694 0 0 52 (C1) n - 1
REM
REM in /rds/project/t2_vol4/rds-t2-cs072/BORA/CARBON/from-Arr/AIRSS/Generating-Clusters/GAP-ML-2020/Only-C1/SD-CG/HFTN-CG
REM
REM
REM
REM
REM
REM ./C.cell (11c1c37f851c82e70ff6c80c92926a4b)
REM AIRSS Version 0.9.1 bugfix July 2018 build 013d7b7c2542+ Fri, 06 Jul 2018 19:26:36 +0100
REM compiler GCC version 9.3.0
REM options -cpp -mtune=generic -march=x86-64 -g -O0
REM seed -1029458191 -1557227956 -1374089148 1958870242 433693869 288947628 1474713992 -991022193 -1215758982 1786150217 -299293182 -1498613945 1505573418 205235054 997339796 1658893458 55635844 899143768 411454100 -1067341220 1597892256 -739134296 76175348 -1023755095 -401802130 51510060 1449024628 -1369090074 -1895095957 -1693272673 392660285 2105355196 192199500
REM
CELL 1.54180   50.00000   50.00000   50.00000   90.00000   90.00000   90.00000
LATT -1
SFAC C  
C      1  0.4634560000000  0.4858280000000  0.4662750000000 1.0
C      1  0.5412960000000  0.4855340000000  0.4608940000000 1.0
C      1  0.4360850000000  0.5180340000000  0.4893450000000 1.0
C      1  0.5176860000000  0.4408400000000  0.4690530000000 1.0
C      1  0.4463400000000  0.5080890000000  0.4627170000000 1.0
C      1  0.4789650000000  0.4642590000000  0.4556720000000 1.0
C      1  0.5054600000000  0.5006690000000  0.4334440000000 1.0
C      1  0.4954010000000  0.4827080000000  0.4992400000000 1.0
C      1  0.5546000000000  0.5375000000000  0.5001490000000 1.0
C      1  0.4627040000000  0.4976150000000  0.5439040000000 1.0
C      1  0.5101640000000  0.4418430000000  0.5205680000000 1.0
C      1  0.4191620000000  0.4842420000000  0.5229290000000 1.0
C      1  0.5012500000000  0.4728450000000  0.4396770000000 1.0
C      1  0.5360260000000  0.4936080000000  0.5535470000000 1.0
C      1  0.5689160000000  0.5077480000000  0.5248220000000 1.0
C      1  0.5254040000000  0.4630820000000  0.4520000000000 1.0
C      1  0.5308000000000  0.5235560000000  0.5465920000000 1.0
C      1  0.5056590000000  0.5405270000000  0.5038900000000 1.0
C      1  0.4748860000000  0.5480570000000  0.4655440000000 1.0
C      1  0.5362150000000  0.4265770000000  0.4830970000000 1.0
C      1  0.4565210000000  0.5325660000000  0.5062270000000 1.0
C      1  0.4829820000000  0.5434620000000  0.5434400000000 1.0
C      1  0.5348660000000  0.4437210000000  0.5050550000000 1.0
C      1  0.5023340000000  0.4946640000000  0.5227370000000 1.0
C      1  0.4609990000000  0.5268810000000  0.4476040000000 1.0
C      1  0.5065650000000  0.5359490000000  0.5556770000000 1.0
C      1  0.4621410000000  0.5247420000000  0.5345310000000 1.0
C      1  0.4636720000000  0.5645210000000  0.5057720000000 1.0
C      1  0.4865690000000  0.5215100000000  0.4348650000000 1.0
C      1  0.5154570000000  0.5189550000000  0.5216230000000 1.0
C      1  0.5159370000000  0.4519740000000  0.5711060000000 1.0
C      1  0.5671580000000  0.5111050000000  0.4961470000000 1.0
C      1  0.4468250000000  0.4763490000000  0.5303230000000 1.0
C      1  0.4637830000000  0.5704190000000  0.4791830000000 1.0
C      1  0.5293510000000  0.5090530000000  0.4487320000000 1.0
C      1  0.4202770000000  0.5020850000000  0.5049440000000 1.0
C      1  0.4900000000000  0.4893420000000  0.5488030000000 1.0
C      1  0.4890990000000  0.4456000000000  0.4749500000000 1.0
C      1  0.5128950000000  0.4793460000000  0.5641970000000 1.0
C      1  0.4852000000000  0.4527500000000  0.5042660000000 1.0
C      1  0.5547510000000  0.4862630000000  0.4861350000000 1.0
C      1  0.5551260000000  0.5322760000000  0.5298920000000 1.0
C      1  0.5540270000000  0.4841240000000  0.5327030000000 1.0
C      1  0.5505870000000  0.4681540000000  0.5082960000000 1.0
C      1  0.4878650000000  0.5606140000000  0.5206130000000 1.0
C      1  0.4844610000000  0.4999750000000  0.4809790000000 1.0
C      1  0.4602810000000  0.4570000000000  0.5167750000000 1.0
C      1  0.4818880000000  0.5281150000000  0.4890740000000 1.0
C      1  0.5301410000000  0.5439100000000  0.4867430000000 1.0
C      1  0.4994250000000  0.5436190000000  0.4484410000000 1.0
C      1  0.5141360000000  0.4422760000000  0.5471450000000 1.0
C      1  0.5242050000000  0.5355230000000  0.4596580000000 1.0
END
