TITL C-144795-3115-6 -175.587744377864 125000 -399.963871150937 0 0 58 (C1) n - 1
REM
REM in /rds/project/t2_vol4/rds-t2-cs072/BORA/CARBON/from-Arr/AIRSS/Generating-Clusters/GAP-ML-2020/Only-C1/SD-CG/HFTN-CG
REM
REM
REM
REM
REM
REM ./C.cell (11c1c37f851c82e70ff6c80c92926a4b)
REM AIRSS Version 0.9.1 bugfix July 2018 build 013d7b7c2542+ Fri, 06 Jul 2018 19:26:36 +0100
REM compiler GCC version 9.3.0
REM options -cpp -mtune=generic -march=x86-64 -g -O0
REM seed 478097172 -697243141 959240777 126603373 -1149516256 -1736160540 -813107445 -1691198093 446325619 1713014274 237152953 -99634525 1007729756 1856829101 1991911881 649192034 -1365949426 -22140030 1382313564 844760556 643462776 877885890 -1703467502 1729696857 -707581261 499102745 -1797081887 -831432212 666742858 102235534 2118611054 142803740 -1068501476
REM
CELL 1.54180   50.00000   50.00000   50.00000   90.00000   90.00000   90.00000
LATT -1
SFAC C  
C      1  0.5505040000000  0.4814100000000  0.4601220000000 1.0
C      1  0.5283290000000  0.4499240000000  0.5265440000000 1.0
C      1  0.4363980000000  0.5077930000000  0.5418050000000 1.0
C      1  0.4889350000000  0.5204210000000  0.5586730000000 1.0
C      1  0.4487200000000  0.5329960000000  0.5005980000000 1.0
C      1  0.5168460000000  0.5148710000000  0.5551120000000 1.0
C      1  0.5300160000000  0.4893940000000  0.5505380000000 1.0
C      1  0.5116000000000  0.5817840000000  0.4651370000000 1.0
C      1  0.5583180000000  0.5391760000000  0.5032060000000 1.0
C      1  0.4496720000000  0.5298150000000  0.5288140000000 1.0
C      1  0.5382230000000  0.5594960000000  0.5033430000000 1.0
C      1  0.5569210000000  0.5057220000000  0.4736250000000 1.0
C      1  0.5009560000000  0.5620800000000  0.4493820000000 1.0
C      1  0.4756590000000  0.4733360000000  0.5751600000000 1.0
C      1  0.4448160000000  0.4996790000000  0.5677720000000 1.0
C      1  0.5335340000000  0.5693860000000  0.4768700000000 1.0
C      1  0.5178280000000  0.4634090000000  0.5489580000000 1.0
C      1  0.5312010000000  0.5336390000000  0.5397620000000 1.0
C      1  0.5298490000000  0.5095820000000  0.4863620000000 1.0
C      1  0.4901660000000  0.5491550000000  0.5167340000000 1.0
C      1  0.5535010000000  0.5213120000000  0.5260280000000 1.0
C      1  0.4813820000000  0.4654940000000  0.4554320000000 1.0
C      1  0.5113520000000  0.5219970000000  0.4708990000000 1.0
C      1  0.4489900000000  0.4671360000000  0.4822600000000 1.0
C      1  0.4343880000000  0.4835370000000  0.5255670000000 1.0
C      1  0.4350070000000  0.4860190000000  0.4976340000000 1.0
C      1  0.5181790000000  0.5528110000000  0.5224690000000 1.0
C      1  0.5460310000000  0.5505730000000  0.4592970000000 1.0
C      1  0.4724890000000  0.4493730000000  0.5341290000000 1.0
C      1  0.5261130000000  0.5456360000000  0.4392860000000 1.0
C      1  0.4853090000000  0.5125020000000  0.4814870000000 1.0
C      1  0.4775010000000  0.4602190000000  0.4872890000000 1.0
C      1  0.5624110000000  0.5326950000000  0.4744140000000 1.0
C      1  0.5113890000000  0.4311630000000  0.5126590000000 1.0
C      1  0.5264660000000  0.4198970000000  0.4930310000000 1.0
C      1  0.4906380000000  0.4581570000000  0.5556960000000 1.0
C      1  0.4912000000000  0.4876380000000  0.4970040000000 1.0
C      1  0.4556640000000  0.4782150000000  0.4566850000000 1.0
C      1  0.4751540000000  0.5413480000000  0.4907030000000 1.0
C      1  0.5278780000000  0.4897660000000  0.4430720000000 1.0
C      1  0.4728420000000  0.5030300000000  0.5745590000000 1.0
C      1  0.4570590000000  0.5065190000000  0.4623170000000 1.0
C      1  0.4480280000000  0.4708470000000  0.5677770000000 1.0
C      1  0.4992010000000  0.4817890000000  0.4412820000000 1.0
C      1  0.4915070000000  0.5094280000000  0.4322890000000 1.0
C      1  0.5513720000000  0.4616020000000  0.4816710000000 1.0
C      1  0.4391100000000  0.5114100000000  0.4848060000000 1.0
C      1  0.4778600000000  0.5488830000000  0.4589160000000 1.0
C      1  0.4759170000000  0.5368030000000  0.5381170000000 1.0
C      1  0.5410310000000  0.4084760000000  0.4731880000000 1.0
C      1  0.4467580000000  0.4614500000000  0.5405490000000 1.0
C      1  0.5473300000000  0.4348670000000  0.4780880000000 1.0
C      1  0.4842610000000  0.4411110000000  0.5089610000000 1.0
C      1  0.5412530000000  0.4699150000000  0.5093940000000 1.0
C      1  0.5187820000000  0.5184230000000  0.4386640000000 1.0
C      1  0.5182490000000  0.4895340000000  0.5016400000000 1.0
C      1  0.4705370000000  0.5247210000000  0.4448140000000 1.0
C      1  0.5493710000000  0.4926350000000  0.5294080000000 1.0
END
