TITL C-141425-3340-7 -0.253071420326829 125000 -506.3822332656 0 0 74 (C1) n - 1
REM
REM in /rds/project/t2_vol4/rds-t2-cs072/BORA/CARBON/from-Arr/AIRSS/Generating-Clusters/GAP-ML-2020/Only-C1/SD-CG/HFTN-CG
REM
REM
REM
REM
REM
REM ./C.cell (11c1c37f851c82e70ff6c80c92926a4b)
REM AIRSS Version 0.9.1 bugfix July 2018 build 013d7b7c2542+ Fri, 06 Jul 2018 19:26:36 +0100
REM compiler GCC version 9.3.0
REM options -cpp -mtune=generic -march=x86-64 -g -O0
REM seed 986980105 -394293223 177685251 1602114839 -58777721 1599414683 1900538847 701296215 -764893056 104872215 -1488232067 1756589786 2094351501 480276479 352682301 1792551281 -9904657 -1667563592 -237148377 -1092489537 2127526356 -995543243 -1665525243 134777666 -974427208 -1470832432 598018845 -951315866 -1294520688 847118078 777570164 1327888996 -63686143
REM
CELL 1.54180   50.00000   50.00000   50.00000   90.00000   90.00000   90.00000
LATT -1
SFAC C  
C      1  0.4233070000000  0.5049000000000  0.5051730000000 1.0
C      1  0.5233970000000  0.5024690000000  0.5571630000000 1.0
C      1  0.4879590000000  0.5667190000000  0.4803020000000 1.0
C      1  0.5637540000000  0.4821770000000  0.5396720000000 1.0
C      1  0.4406800000000  0.4627480000000  0.4987100000000 1.0
C      1  0.5368870000000  0.5283980000000  0.5541480000000 1.0
C      1  0.4380300000000  0.4755050000000  0.4721400000000 1.0
C      1  0.4774970000000  0.4433040000000  0.5452500000000 1.0
C      1  0.5289080000000  0.5160250000000  0.4160850000000 1.0
C      1  0.5426070000000  0.5493160000000  0.5105400000000 1.0
C      1  0.4236110000000  0.5246430000000  0.4604000000000 1.0
C      1  0.5523110000000  0.4405720000000  0.5147360000000 1.0
C      1  0.4950410000000  0.5339240000000  0.5185300000000 1.0
C      1  0.4614580000000  0.5727100000000  0.5227130000000 1.0
C      1  0.5459930000000  0.5050270000000  0.4365980000000 1.0
C      1  0.5233250000000  0.4535260000000  0.4347050000000 1.0
C      1  0.4835890000000  0.5802370000000  0.5041030000000 1.0
C      1  0.4809190000000  0.5717020000000  0.5439200000000 1.0
C      1  0.5018350000000  0.5414480000000  0.4455020000000 1.0
C      1  0.5264770000000  0.4527280000000  0.5524370000000 1.0
C      1  0.5002390000000  0.4523370000000  0.5607950000000 1.0
C      1  0.5018390000000  0.5237130000000  0.4243380000000 1.0
C      1  0.5369410000000  0.5443560000000  0.4816900000000 1.0
C      1  0.5066680000000  0.4704850000000  0.5056430000000 1.0
C      1  0.5364390000000  0.4770080000000  0.4263450000000 1.0
C      1  0.5486060000000  0.5173670000000  0.4668350000000 1.0
C      1  0.4811460000000  0.5268390000000  0.4566360000000 1.0
C      1  0.4396520000000  0.5438760000000  0.4647840000000 1.0
C      1  0.4597120000000  0.4660240000000  0.4550250000000 1.0
C      1  0.5093560000000  0.4840540000000  0.4642080000000 1.0
C      1  0.5253710000000  0.5650880000000  0.5283930000000 1.0
C      1  0.5400220000000  0.4783280000000  0.5546480000000 1.0
C      1  0.5697040000000  0.4622110000000  0.5203300000000 1.0
C      1  0.4521910000000  0.5128910000000  0.5539220000000 1.0
C      1  0.5349580000000  0.4915980000000  0.4769510000000 1.0
C      1  0.4968250000000  0.4513830000000  0.4301110000000 1.0
C      1  0.4907410000000  0.5455290000000  0.5519820000000 1.0
C      1  0.5285100000000  0.4904460000000  0.5061430000000 1.0
C      1  0.5024710000000  0.5811470000000  0.5253250000000 1.0
C      1  0.4253030000000  0.5010010000000  0.4763590000000 1.0
C      1  0.5542930000000  0.5303660000000  0.5306210000000 1.0
C      1  0.4762000000000  0.4712930000000  0.4313360000000 1.0
C      1  0.4908130000000  0.4949390000000  0.4190920000000 1.0
C      1  0.5018950000000  0.4578340000000  0.4780800000000 1.0
C      1  0.5078700000000  0.4267680000000  0.5121190000000 1.0
C      1  0.4623390000000  0.4662340000000  0.5555600000000 1.0
C      1  0.5795230000000  0.5024400000000  0.5001710000000 1.0
C      1  0.5173160000000  0.4890930000000  0.4092520000000 1.0
C      1  0.4881410000000  0.5032620000000  0.4707520000000 1.0
C      1  0.4729090000000  0.5028420000000  0.4949810000000 1.0
C      1  0.5451230000000  0.4423570000000  0.4875810000000 1.0
C      1  0.4325680000000  0.4816460000000  0.5189720000000 1.0
C      1  0.5759660000000  0.4747390000000  0.4957130000000 1.0
C      1  0.5298690000000  0.4342640000000  0.5304260000000 1.0
C      1  0.5182560000000  0.4341890000000  0.4853890000000 1.0
C      1  0.5702210000000  0.5078740000000  0.5269610000000 1.0
C      1  0.4801610000000  0.4329310000000  0.5190560000000 1.0
C      1  0.4456190000000  0.4855640000000  0.5448480000000 1.0
C      1  0.5747580000000  0.5183100000000  0.4791540000000 1.0
C      1  0.4700140000000  0.5314130000000  0.5022380000000 1.0
C      1  0.4381230000000  0.5329060000000  0.5407580000000 1.0
C      1  0.4882310000000  0.4898530000000  0.5149460000000 1.0
C      1  0.4745410000000  0.4495320000000  0.4735540000000 1.0
C      1  0.5095110000000  0.5083920000000  0.5229850000000 1.0
C      1  0.4491070000000  0.5475870000000  0.5183310000000 1.0
C      1  0.4781100000000  0.5216390000000  0.5636390000000 1.0
C      1  0.4966230000000  0.5010460000000  0.5699160000000 1.0
C      1  0.5558820000000  0.4672450000000  0.4770640000000 1.0
C      1  0.5128940000000  0.5553860000000  0.4693660000000 1.0
C      1  0.4671200000000  0.5455050000000  0.4745840000000 1.0
C      1  0.4859150000000  0.4752980000000  0.5703450000000 1.0
C      1  0.4621090000000  0.4435290000000  0.4986700000000 1.0
C      1  0.4239630000000  0.5300290000000  0.5174750000000 1.0
C      1  0.5197370000000  0.5499390000000  0.5527760000000 1.0
END
