TITL C-141716-1623-4 44.4323062972156 125000 -361.018056708402 0 0 54 (C1) n - 1
REM
REM in /rds/project/t2_vol4/rds-t2-cs072/BORA/CARBON/from-Arr/AIRSS/Generating-Clusters/GAP-ML-2020/Only-C1/SD-CG/HFTN-CG
REM
REM
REM
REM
REM
REM ./C.cell (11c1c37f851c82e70ff6c80c92926a4b)
REM AIRSS Version 0.9.1 bugfix July 2018 build 013d7b7c2542+ Fri, 06 Jul 2018 19:26:36 +0100
REM compiler GCC version 9.3.0
REM options -cpp -mtune=generic -march=x86-64 -g -O0
REM seed -1403073752 -1831240220 -800016358 -1005448938 -1974648904 -1826378061 -1170041295 -1699441107 -814092507 80177621 -1260844679 1072438137 1444181700 -684322772 -2048015477 -1495493084 267692270 478052350 -2074785933 723929373 634250818 -139759342 438804570 1547328061 -1812621587 -450499460 -1576480870 911456963 1819978622 1776857062 328684301 1422371 1804406887
REM
CELL 1.54180   50.00000   50.00000   50.00000   90.00000   90.00000   90.00000
LATT -1
SFAC C  
C      1  0.5305600000000  0.5108830000000  0.4939940000000 1.0
C      1  0.4406630000000  0.5345120000000  0.4854330000000 1.0
C      1  0.5022870000000  0.5341630000000  0.5563060000000 1.0
C      1  0.5089760000000  0.5952380000000  0.5305320000000 1.0
C      1  0.4898350000000  0.5336570000000  0.4879010000000 1.0
C      1  0.5581970000000  0.5017670000000  0.4860850000000 1.0
C      1  0.4395590000000  0.4686630000000  0.5418820000000 1.0
C      1  0.5377010000000  0.4982890000000  0.4450980000000 1.0
C      1  0.4899940000000  0.5114520000000  0.4338860000000 1.0
C      1  0.5685390000000  0.5076140000000  0.5136300000000 1.0
C      1  0.5461940000000  0.4647680000000  0.5245920000000 1.0
C      1  0.5206070000000  0.4439470000000  0.4901340000000 1.0
C      1  0.5551300000000  0.4733100000000  0.4784660000000 1.0
C      1  0.4348240000000  0.4847990000000  0.4946260000000 1.0
C      1  0.5200590000000  0.4590460000000  0.5332460000000 1.0
C      1  0.5542710000000  0.5171280000000  0.4611840000000 1.0
C      1  0.5010750000000  0.5723010000000  0.5201920000000 1.0
C      1  0.4562540000000  0.4423200000000  0.5077390000000 1.0
C      1  0.4631040000000  0.5372760000000  0.5290110000000 1.0
C      1  0.4563110000000  0.4942220000000  0.4496060000000 1.0
C      1  0.5460450000000  0.4558100000000  0.4977580000000 1.0
C      1  0.4548740000000  0.4652970000000  0.5623110000000 1.0
C      1  0.5348080000000  0.5402710000000  0.4563570000000 1.0
C      1  0.5145460000000  0.4549750000000  0.4631390000000 1.0
C      1  0.4306780000000  0.5128110000000  0.4987360000000 1.0
C      1  0.4647460000000  0.5368210000000  0.4704750000000 1.0
C      1  0.5585360000000  0.4883570000000  0.5330890000000 1.0
C      1  0.5298920000000  0.5340190000000  0.5113120000000 1.0
C      1  0.5145230000000  0.5055040000000  0.5534210000000 1.0
C      1  0.4400290000000  0.5367240000000  0.5142200000000 1.0
C      1  0.4483550000000  0.4779270000000  0.4706600000000 1.0
C      1  0.5361650000000  0.4730220000000  0.4571980000000 1.0
C      1  0.4782830000000  0.4614430000000  0.5481480000000 1.0
C      1  0.4834330000000  0.5200140000000  0.5139500000000 1.0
C      1  0.4791710000000  0.4423580000000  0.5246010000000 1.0
C      1  0.4565740000000  0.4305240000000  0.4822030000000 1.0
C      1  0.5439020000000  0.5048230000000  0.5541530000000 1.0
C      1  0.4376270000000  0.4644680000000  0.5147670000000 1.0
C      1  0.5058530000000  0.5123510000000  0.4757770000000 1.0
C      1  0.5057190000000  0.4430350000000  0.5147640000000 1.0
C      1  0.4652250000000  0.5209930000000  0.4472400000000 1.0
C      1  0.4882960000000  0.4606970000000  0.4533300000000 1.0
C      1  0.4903330000000  0.4920220000000  0.5148080000000 1.0
C      1  0.5083320000000  0.5253300000000  0.5294200000000 1.0
C      1  0.5126540000000  0.5555640000000  0.4963380000000 1.0
C      1  0.5149890000000  0.5168400000000  0.4463620000000 1.0
C      1  0.4859090000000  0.5518970000000  0.5397670000000 1.0
C      1  0.4642090000000  0.4533160000000  0.4684840000000 1.0
C      1  0.4817520000000  0.4839090000000  0.4387460000000 1.0
C      1  0.5564560000000  0.5304120000000  0.5521630000000 1.0
C      1  0.5272010000000  0.5609960000000  0.4711750000000 1.0
C      1  0.5087570000000  0.4896260000000  0.4938000000000 1.0
C      1  0.5009840000000  0.4797740000000  0.5425610000000 1.0
C      1  0.5570030000000  0.5327140000000  0.5252260000000 1.0
END
