TITL C-147422-6663-7 296.303105663847 125000 -530.116553820037 0 0 77 (C1) n - 1
REM
REM in /rds/project/t2_vol4/rds-t2-cs072/BORA/CARBON/from-Arr/AIRSS/Generating-Clusters/GAP-ML-2020/Only-C1/SD-CG/HFTN-CG
REM
REM
REM
REM
REM
REM ./C.cell (11c1c37f851c82e70ff6c80c92926a4b)
REM AIRSS Version 0.9.1 bugfix July 2018 build 013d7b7c2542+ Fri, 06 Jul 2018 19:26:36 +0100
REM compiler GCC version 9.3.0
REM options -cpp -mtune=generic -march=x86-64 -g -O0
REM seed -1950087081 1035788483 1897408663 1153734808 2112130761 -1610357648 943488668 1321443337 -1464330766 -1271793879 1689121562 -1952843680 -601444144 -870053026 1166277510 -764923080 1911802255 843006909 639504923 -787225754 840736579 -699605116 -1611803177 -106307925 -1251337699 1244377631 -1308159501 1529981332 -1186904399 43740661 602696474 884179880 1809532593
REM
CELL 1.54180   50.00000   50.00000   50.00000   90.00000   90.00000   90.00000
LATT -1
SFAC C  
C      1  0.4803260000000  0.5685890000000  0.4740760000000 1.0
C      1  0.5793070000000  0.5307940000000  0.5003790000000 1.0
C      1  0.5398950000000  0.4490600000000  0.4798220000000 1.0
C      1  0.4401200000000  0.4747560000000  0.5499340000000 1.0
C      1  0.5097770000000  0.4651950000000  0.4793820000000 1.0
C      1  0.4518060000000  0.4504520000000  0.5562480000000 1.0
C      1  0.5166350000000  0.4299760000000  0.5142660000000 1.0
C      1  0.5025220000000  0.4482970000000  0.4533580000000 1.0
C      1  0.4810250000000  0.5558110000000  0.5421350000000 1.0
C      1  0.5047350000000  0.4192590000000  0.4891660000000 1.0
C      1  0.5236640000000  0.4632640000000  0.5455970000000 1.0
C      1  0.5269830000000  0.5578080000000  0.4599300000000 1.0
C      1  0.5188470000000  0.5133900000000  0.4079680000000 1.0
C      1  0.5550560000000  0.4682830000000  0.4617980000000 1.0
C      1  0.4944590000000  0.5298500000000  0.5021870000000 1.0
C      1  0.4489040000000  0.5575740000000  0.5077010000000 1.0
C      1  0.4771820000000  0.5024670000000  0.4342860000000 1.0
C      1  0.4334020000000  0.4788020000000  0.5226880000000 1.0
C      1  0.5413670000000  0.4672810000000  0.4382330000000 1.0
C      1  0.5197700000000  0.5252910000000  0.5118100000000 1.0
C      1  0.5709610000000  0.5530840000000  0.4845000000000 1.0
C      1  0.4575190000000  0.4714560000000  0.5088540000000 1.0
C      1  0.5497980000000  0.5166210000000  0.4564640000000 1.0
C      1  0.5261560000000  0.5096010000000  0.5645880000000 1.0
C      1  0.5208520000000  0.4289350000000  0.4677170000000 1.0
C      1  0.4973420000000  0.5146270000000  0.5706440000000 1.0
C      1  0.4754960000000  0.4967610000000  0.5759120000000 1.0
C      1  0.4615450000000  0.4791650000000  0.4346670000000 1.0
C      1  0.5060200000000  0.4959030000000  0.4304250000000 1.0
C      1  0.5432420000000  0.4404550000000  0.5081280000000 1.0
C      1  0.5003940000000  0.4561140000000  0.5057660000000 1.0
C      1  0.4610940000000  0.5233810000000  0.4469330000000 1.0
C      1  0.5494480000000  0.4546710000000  0.5307230000000 1.0
C      1  0.5081290000000  0.4788720000000  0.5222790000000 1.0
C      1  0.5117290000000  0.4357320000000  0.5440750000000 1.0
C      1  0.4743600000000  0.4404670000000  0.4602780000000 1.0
C      1  0.5142100000000  0.5391620000000  0.4430170000000 1.0
C      1  0.5583770000000  0.4984100000000  0.5178760000000 1.0
C      1  0.4990800000000  0.5413040000000  0.5590310000000 1.0
C      1  0.4866000000000  0.5057460000000  0.4909730000000 1.0
C      1  0.4705960000000  0.5738490000000  0.5004760000000 1.0
C      1  0.5147180000000  0.5764100000000  0.5052670000000 1.0
C      1  0.4388600000000  0.4812430000000  0.4522180000000 1.0
C      1  0.5124860000000  0.4944220000000  0.4797180000000 1.0
C      1  0.4251290000000  0.5067440000000  0.5214820000000 1.0
C      1  0.4544590000000  0.5458650000000  0.5339340000000 1.0
C      1  0.4743430000000  0.4496030000000  0.5749470000000 1.0
C      1  0.5092160000000  0.5720250000000  0.4768610000000 1.0
C      1  0.4538490000000  0.4571590000000  0.4505440000000 1.0
C      1  0.5146200000000  0.4664720000000  0.4330590000000 1.0
C      1  0.4807690000000  0.4894230000000  0.5132780000000 1.0
C      1  0.5391320000000  0.4855160000000  0.5589960000000 1.0
C      1  0.4876370000000  0.4308710000000  0.5561930000000 1.0
C      1  0.4767850000000  0.4269250000000  0.4854580000000 1.0
C      1  0.4379210000000  0.5089180000000  0.4577130000000 1.0
C      1  0.4414920000000  0.5459450000000  0.4824830000000 1.0
C      1  0.5750590000000  0.5032950000000  0.4932000000000 1.0
C      1  0.5268050000000  0.4977350000000  0.5080100000000 1.0
C      1  0.4618550000000  0.5487530000000  0.4623050000000 1.0
C      1  0.4421030000000  0.5209550000000  0.5415430000000 1.0
C      1  0.5632730000000  0.5752930000000  0.5002400000000 1.0
C      1  0.5408820000000  0.5700700000000  0.5154620000000 1.0
C      1  0.5601970000000  0.4792150000000  0.5392820000000 1.0
C      1  0.4698600000000  0.4444030000000  0.5095500000000 1.0
C      1  0.4508220000000  0.4996690000000  0.5598570000000 1.0
C      1  0.5518450000000  0.5442120000000  0.4644810000000 1.0
C      1  0.4803310000000  0.4712930000000  0.5893490000000 1.0
C      1  0.4906200000000  0.5736100000000  0.5204480000000 1.0
C      1  0.5651650000000  0.4950350000000  0.4679140000000 1.0
C      1  0.5401430000000  0.5430720000000  0.5285340000000 1.0
C      1  0.4095470000000  0.5157750000000  0.5013890000000 1.0
C      1  0.5644720000000  0.5271650000000  0.5244060000000 1.0
C      1  0.5174790000000  0.5382090000000  0.4146620000000 1.0
C      1  0.4253790000000  0.5227940000000  0.4794970000000 1.0
C      1  0.5209230000000  0.5107670000000  0.4531330000000 1.0
C      1  0.5278780000000  0.5368400000000  0.5539190000000 1.0
C      1  0.4652130000000  0.4337840000000  0.5363790000000 1.0
END
