TITL C-141702-1613-8 -51.9717263095364 125000 -190.423095726903 0 0 29 (C1) n - 1
REM
REM in /rds/project/t2_vol4/rds-t2-cs072/BORA/CARBON/from-Arr/AIRSS/Generating-Clusters/GAP-ML-2020/Only-C1/SD-CG/HFTN-CG
REM
REM
REM
REM
REM
REM ./C.cell (11c1c37f851c82e70ff6c80c92926a4b)
REM AIRSS Version 0.9.1 bugfix July 2018 build 013d7b7c2542+ Fri, 06 Jul 2018 19:26:36 +0100
REM compiler GCC version 9.3.0
REM options -cpp -mtune=generic -march=x86-64 -g -O0
REM seed -1714670397 -6131717 523292017 -445477473 653612372 -1524782954 195809013 -1414273970 963431913 705366317 -599804227 -2118519407 690708109 -481370201 1335863855 147877652 -609812408 840341221 -2090887736 653055210 -129066650 205469130 1341573632 1949977607 -319049726 -2089272568 561118746 -291190974 683402121 1513648262 -1859063917 -974325951 1780426794
REM
CELL 1.54180   50.00000   50.00000   50.00000   90.00000   90.00000   90.00000
LATT -1
SFAC C  
C      1  0.5399470000000  0.5352390000000  0.5213520000000 1.0
C      1  0.5359740000000  0.4515590000000  0.5047650000000 1.0
C      1  0.4697380000000  0.4672280000000  0.5340220000000 1.0
C      1  0.5556520000000  0.4887540000000  0.5296220000000 1.0
C      1  0.4479770000000  0.4682300000000  0.4688370000000 1.0
C      1  0.4855680000000  0.5521100000000  0.4639800000000 1.0
C      1  0.5277910000000  0.4849910000000  0.5377260000000 1.0
C      1  0.4918540000000  0.4981600000000  0.5077360000000 1.0
C      1  0.5263090000000  0.4876570000000  0.4771890000000 1.0
C      1  0.5172560000000  0.4616590000000  0.5245840000000 1.0
C      1  0.4558880000000  0.5174490000000  0.4821090000000 1.0
C      1  0.4895450000000  0.4689970000000  0.5130200000000 1.0
C      1  0.5516250000000  0.4943060000000  0.4894690000000 1.0
C      1  0.4866540000000  0.5418270000000  0.5153670000000 1.0
C      1  0.4678970000000  0.5315140000000  0.4603250000000 1.0
C      1  0.4479310000000  0.4930920000000  0.4751460000000 1.0
C      1  0.4684440000000  0.4514240000000  0.4713930000000 1.0
C      1  0.4957930000000  0.5254560000000  0.4619090000000 1.0
C      1  0.5540940000000  0.5139000000000  0.5123360000000 1.0
C      1  0.5128380000000  0.5332120000000  0.5269940000000 1.0
C      1  0.5578240000000  0.4714570000000  0.5065250000000 1.0
C      1  0.4834290000000  0.5755550000000  0.4791470000000 1.0
C      1  0.4537850000000  0.4780950000000  0.5493460000000 1.0
C      1  0.5200090000000  0.4591290000000  0.4809470000000 1.0
C      1  0.5048780000000  0.5055310000000  0.4791420000000 1.0
C      1  0.4904640000000  0.4541070000000  0.4858260000000 1.0
C      1  0.5086940000000  0.5054140000000  0.5304680000000 1.0
C      1  0.4803510000000  0.5651680000000  0.5033830000000 1.0
C      1  0.4717880000000  0.5187760000000  0.5073350000000 1.0
END
