TITL C-141695-2891-2 -0.0170601217417092 125000 -824.926230756549 0 0 117 (C1) n - 1
REM
REM in /rds/project/t2_vol4/rds-t2-cs072/BORA/CARBON/from-Arr/AIRSS/Generating-Clusters/GAP-ML-2020/Only-C1/SD-CG/HFTN-CG
REM
REM
REM
REM
REM
REM ./C.cell (11c1c37f851c82e70ff6c80c92926a4b)
REM AIRSS Version 0.9.1 bugfix July 2018 build 013d7b7c2542+ Fri, 06 Jul 2018 19:26:36 +0100
REM compiler GCC version 9.3.0
REM options -cpp -mtune=generic -march=x86-64 -g -O0
REM seed -1760634696 -515311828 635908554 -616177893 -1246805637 -294464869 1541935414 1473515350 -77628753 828541943 988301901 736042637 -1292365166 2129751801 -1817960252 -486046629 -353524495 -1073496114 1973616288 -1078368656 358612082 -1924965405 -1686177426 -837747454 610631207 -923744936 -1328273485 873157760 -289918897 -1350585304 -621910560 -1679978885 -287612115
REM
CELL 1.54180   50.00000   50.00000   50.00000   90.00000   90.00000   90.00000
LATT -1
SFAC C  
C      1  0.5309500000000  0.4677420000000  0.5838710000000 1.0
C      1  0.4385770000000  0.5420370000000  0.5643200000000 1.0
C      1  0.5079730000000  0.5005250000000  0.4124320000000 1.0
C      1  0.5173250000000  0.4290750000000  0.5536150000000 1.0
C      1  0.4956330000000  0.5353180000000  0.5094740000000 1.0
C      1  0.5409690000000  0.5198270000000  0.5028200000000 1.0
C      1  0.5684880000000  0.4463850000000  0.5040010000000 1.0
C      1  0.5526040000000  0.4928540000000  0.4243160000000 1.0
C      1  0.5838230000000  0.5010930000000  0.5421750000000 1.0
C      1  0.4917250000000  0.4945000000000  0.5956720000000 1.0
C      1  0.4805110000000  0.4907190000000  0.4117140000000 1.0
C      1  0.4561050000000  0.4255520000000  0.5141020000000 1.0
C      1  0.4347710000000  0.4431210000000  0.5089240000000 1.0
C      1  0.4847220000000  0.5770500000000  0.4715810000000 1.0
C      1  0.5739620000000  0.4913700000000  0.4723320000000 1.0
C      1  0.4978640000000  0.4491340000000  0.4305240000000 1.0
C      1  0.5576660000000  0.5391860000000  0.5503690000000 1.0
C      1  0.4285030000000  0.5387570000000  0.5380930000000 1.0
C      1  0.4510400000000  0.5550370000000  0.4447980000000 1.0
C      1  0.4809680000000  0.5110710000000  0.5519400000000 1.0
C      1  0.5728150000000  0.4264080000000  0.4810090000000 1.0
C      1  0.5548880000000  0.4815510000000  0.4515440000000 1.0
C      1  0.4550070000000  0.4810970000000  0.5286510000000 1.0
C      1  0.4556480000000  0.4962930000000  0.5545820000000 1.0
C      1  0.4487280000000  0.5006890000000  0.5081860000000 1.0
C      1  0.4624120000000  0.5834680000000  0.4907680000000 1.0
C      1  0.4508130000000  0.4773980000000  0.5752760000000 1.0
C      1  0.5303120000000  0.5191120000000  0.5831970000000 1.0
C      1  0.5191760000000  0.5759800000000  0.5296330000000 1.0
C      1  0.5263160000000  0.4253260000000  0.4937160000000 1.0
C      1  0.4840660000000  0.4738360000000  0.5214590000000 1.0
C      1  0.5664180000000  0.5670080000000  0.4701990000000 1.0
C      1  0.4755720000000  0.4204500000000  0.4936670000000 1.0
C      1  0.4396160000000  0.4899600000000  0.4361620000000 1.0
C      1  0.5179200000000  0.4775690000000  0.4858650000000 1.0
C      1  0.4810070000000  0.5952830000000  0.5092230000000 1.0
C      1  0.4999380000000  0.4890830000000  0.5391170000000 1.0
C      1  0.4198470000000  0.5230080000000  0.4720520000000 1.0
C      1  0.5266540000000  0.4947850000000  0.4631970000000 1.0
C      1  0.5490160000000  0.4111560000000  0.4757620000000 1.0
C      1  0.4871570000000  0.5564520000000  0.4234470000000 1.0
C      1  0.5224460000000  0.5348230000000  0.5198020000000 1.0
C      1  0.5685020000000  0.4779940000000  0.4982600000000 1.0
C      1  0.5635640000000  0.4493790000000  0.5524780000000 1.0
C      1  0.4255730000000  0.4963460000000  0.4607880000000 1.0
C      1  0.5466050000000  0.5823010000000  0.4833960000000 1.0
C      1  0.4698920000000  0.4229910000000  0.5392650000000 1.0
C      1  0.5694660000000  0.4954560000000  0.5662650000000 1.0
C      1  0.5296540000000  0.5502800000000  0.5450530000000 1.0
C      1  0.5265380000000  0.4884420000000  0.5336690000000 1.0
C      1  0.5448190000000  0.4331650000000  0.5144770000000 1.0
C      1  0.4110560000000  0.4852230000000  0.5247420000000 1.0
C      1  0.4514800000000  0.4633720000000  0.4367320000000 1.0
C      1  0.5260490000000  0.5861490000000  0.5025740000000 1.0
C      1  0.4407140000000  0.4548260000000  0.5598360000000 1.0
C      1  0.4758750000000  0.5135890000000  0.5014800000000 1.0
C      1  0.4453230000000  0.4852050000000  0.4826260000000 1.0
C      1  0.4415850000000  0.5435870000000  0.4717220000000 1.0
C      1  0.5811550000000  0.4541240000000  0.5308320000000 1.0
C      1  0.5799900000000  0.5196120000000  0.4769270000000 1.0
C      1  0.4306920000000  0.4628540000000  0.5312590000000 1.0
C      1  0.5705670000000  0.5274610000000  0.5041390000000 1.0
C      1  0.4324390000000  0.4554800000000  0.4819390000000 1.0
C      1  0.4099550000000  0.4744880000000  0.4760050000000 1.0
C      1  0.4725240000000  0.4310830000000  0.4677070000000 1.0
C      1  0.4432930000000  0.5639340000000  0.4951740000000 1.0
C      1  0.5227010000000  0.5260950000000  0.4090620000000 1.0
C      1  0.4928880000000  0.5469020000000  0.4799070000000 1.0
C      1  0.4788590000000  0.5340730000000  0.5325900000000 1.0
C      1  0.4002210000000  0.4878620000000  0.4987440000000 1.0
C      1  0.5118790000000  0.4459620000000  0.5761910000000 1.0
C      1  0.5135920000000  0.5360360000000  0.4631450000000 1.0
C      1  0.5247960000000  0.4563880000000  0.4260490000000 1.0
C      1  0.5568260000000  0.4696970000000  0.5714240000000 1.0
C      1  0.4688120000000  0.5626490000000  0.5403410000000 1.0
C      1  0.5491160000000  0.5199820000000  0.4190450000000 1.0
C      1  0.5423860000000  0.4525090000000  0.4501930000000 1.0
C      1  0.5425150000000  0.4329200000000  0.5421520000000 1.0
C      1  0.5555460000000  0.5199350000000  0.5712670000000 1.0
C      1  0.5149980000000  0.5414370000000  0.5720780000000 1.0
C      1  0.5292620000000  0.4804460000000  0.4132130000000 1.0
C      1  0.4698720000000  0.5278810000000  0.4752780000000 1.0
C      1  0.5595060000000  0.5416820000000  0.4334250000000 1.0
C      1  0.4898310000000  0.5822730000000  0.5323960000000 1.0
C      1  0.4636800000000  0.5379780000000  0.4244980000000 1.0
C      1  0.4065360000000  0.5165500000000  0.4963740000000 1.0
C      1  0.5862990000000  0.4807640000000  0.5229540000000 1.0
C      1  0.4837320000000  0.4481480000000  0.5806380000000 1.0
C      1  0.4225130000000  0.5146630000000  0.5211850000000 1.0
C      1  0.4740780000000  0.4727950000000  0.5908830000000 1.0
C      1  0.5595890000000  0.4285350000000  0.4564270000000 1.0
C      1  0.5198730000000  0.4929020000000  0.5925000000000 1.0
C      1  0.4775760000000  0.5065040000000  0.4553120000000 1.0
C      1  0.4625920000000  0.5547660000000  0.5682430000000 1.0
C      1  0.5739690000000  0.5415590000000  0.4591310000000 1.0
C      1  0.5203960000000  0.4478800000000  0.4729160000000 1.0
C      1  0.5444820000000  0.5786960000000  0.4553890000000 1.0
C      1  0.5052510000000  0.5093490000000  0.4475290000000 1.0
C      1  0.5150580000000  0.5529680000000  0.4173720000000 1.0
C      1  0.4741600000000  0.5726670000000  0.4445050000000 1.0
C      1  0.4821720000000  0.5175200000000  0.5821480000000 1.0
C      1  0.4977110000000  0.4189910000000  0.5348900000000 1.0
C      1  0.5020060000000  0.5949350000000  0.4896010000000 1.0
C      1  0.5339880000000  0.5210990000000  0.4750320000000 1.0
C      1  0.4629270000000  0.4376190000000  0.5620560000000 1.0
C      1  0.4615520000000  0.5077820000000  0.4272440000000 1.0
C      1  0.4898620000000  0.4835540000000  0.4948560000000 1.0
C      1  0.4758110000000  0.4645550000000  0.4215930000000 1.0
C      1  0.5388530000000  0.5622850000000  0.4325280000000 1.0
C      1  0.5765150000000  0.5275040000000  0.5315490000000 1.0
C      1  0.5380530000000  0.4881290000000  0.5075220000000 1.0
C      1  0.4427790000000  0.5587120000000  0.5229020000000 1.0
C      1  0.4487700000000  0.4453150000000  0.4591580000000 1.0
C      1  0.4726320000000  0.4825840000000  0.4719680000000 1.0
C      1  0.4873050000000  0.5446580000000  0.5813970000000 1.0
C      1  0.4971640000000  0.4378640000000  0.4561350000000 1.0
C      1  0.5012470000000  0.4170140000000  0.5061360000000 1.0
END
