TITL C-147418-6738-7 -119.932735715439 125000 -196.923783404406 0 0 30 (C1) n - 1
REM
REM in /rds/project/t2_vol4/rds-t2-cs072/BORA/CARBON/from-Arr/AIRSS/Generating-Clusters/GAP-ML-2020/Only-C1/SD-CG/HFTN-CG
REM
REM
REM
REM
REM
REM ./C.cell (11c1c37f851c82e70ff6c80c92926a4b)
REM AIRSS Version 0.9.1 bugfix July 2018 build 013d7b7c2542+ Fri, 06 Jul 2018 19:26:36 +0100
REM compiler GCC version 9.3.0
REM options -cpp -mtune=generic -march=x86-64 -g -O0
REM seed 2112891674 1143842928 -1324502665 685593407 -1076503505 -381660908 617517071 1799082548 -410687288 -931504042 -2091497363 1791624872 -205032469 1203244068 2020753270 134101793 770813156 -3456006 1453869150 1991474273 296309880 923318839 469340950 1117342236 -659305288 1258496933 2022888889 1950357207 842439365 -930878722 1096432293 -894262459 -1923922900
REM
CELL 1.54180   50.00000   50.00000   50.00000   90.00000   90.00000   90.00000
LATT -1
SFAC C  
C      1  0.4428100000000  0.4520140000000  0.5344020000000 1.0
C      1  0.5661520000000  0.5298560000000  0.4908100000000 1.0
C      1  0.5379350000000  0.4840960000000  0.5109280000000 1.0
C      1  0.5016340000000  0.4827100000000  0.5408410000000 1.0
C      1  0.4395940000000  0.4558540000000  0.4832190000000 1.0
C      1  0.5503010000000  0.5238430000000  0.4696760000000 1.0
C      1  0.5127720000000  0.4456710000000  0.5054890000000 1.0
C      1  0.4441840000000  0.4658400000000  0.5113510000000 1.0
C      1  0.5171340000000  0.4659180000000  0.5237160000000 1.0
C      1  0.4581760000000  0.4924140000000  0.5135910000000 1.0
C      1  0.5241810000000  0.5372580000000  0.4721180000000 1.0
C      1  0.5361880000000  0.4986460000000  0.4636210000000 1.0
C      1  0.4579060000000  0.4608560000000  0.4666860000000 1.0
C      1  0.4868480000000  0.5485520000000  0.5293750000000 1.0
C      1  0.5082660000000  0.5607090000000  0.5167770000000 1.0
C      1  0.4585720000000  0.5361350000000  0.4967760000000 1.0
C      1  0.4815120000000  0.4733210000000  0.4587610000000 1.0
C      1  0.5472850000000  0.5323230000000  0.5118360000000 1.0
C      1  0.5255230000000  0.5483900000000  0.5005140000000 1.0
C      1  0.5378130000000  0.5091280000000  0.5245150000000 1.0
C      1  0.5098330000000  0.5130960000000  0.4628830000000 1.0
C      1  0.4834480000000  0.5015150000000  0.4670320000000 1.0
C      1  0.4636460000000  0.5098640000000  0.4891750000000 1.0
C      1  0.5208800000000  0.4544110000000  0.4790650000000 1.0
C      1  0.5385730000000  0.4780240000000  0.4830510000000 1.0
C      1  0.5043940000000  0.4569060000000  0.4571450000000 1.0
C      1  0.5159270000000  0.5092010000000  0.5429780000000 1.0
C      1  0.4615830000000  0.5521550000000  0.5159260000000 1.0
C      1  0.4904960000000  0.5234620000000  0.5419720000000 1.0
C      1  0.4764340000000  0.4978320000000  0.5357680000000 1.0
END
