TITL C-140216-7225-1 0.134368101643626 125000 -196.3187109735 0 0 29 (C1) n - 1
REM
REM in /rds/project/t2_vol4/rds-t2-cs072/BORA/CARBON/from-Arr/AIRSS/Generating-Clusters/GAP-ML-2020/Only-C1/SD-CG/HFTN-CG
REM
REM
REM
REM
REM
REM ./C.cell (11c1c37f851c82e70ff6c80c92926a4b)
REM AIRSS Version 0.9.1 bugfix July 2018 build 013d7b7c2542+ Fri, 06 Jul 2018 19:26:36 +0100
REM compiler GCC version 9.3.0
REM options -cpp -mtune=generic -march=x86-64 -g -O0
REM seed 683434417 2073549428 1921945959 191296926 -1416271498 1264663894 -2105463092 -739953892 265515446 -437946502 -2043884300 -1471726871 -1768620343 1671568233 -1537828702 -2120387803 -1613149578 1581579486 -1942340018 228396932 6834822 -1601588120 1661210111 -855669095 -532060861 -170230517 -1952767135 383242730 -1410754911 377505541 -1944113195 -1756024000 2071979039
REM
CELL 1.54180   50.00000   50.00000   50.00000   90.00000   90.00000   90.00000
LATT -1
SFAC C  
C      1  0.5443560000000  0.5071950000000  0.5096120000000 1.0
C      1  0.5203620000000  0.5366100000000  0.4691050000000 1.0
C      1  0.4954520000000  0.4953460000000  0.4441810000000 1.0
C      1  0.4686310000000  0.4910510000000  0.4486590000000 1.0
C      1  0.4887160000000  0.5499200000000  0.5112830000000 1.0
C      1  0.4969920000000  0.4513000000000  0.4946820000000 1.0
C      1  0.4857860000000  0.5123000000000  0.5472140000000 1.0
C      1  0.4911960000000  0.5387620000000  0.5383890000000 1.0
C      1  0.5539400000000  0.5276900000000  0.4938130000000 1.0
C      1  0.5202610000000  0.5427970000000  0.5359600000000 1.0
C      1  0.5072010000000  0.4728860000000  0.5345290000000 1.0
C      1  0.4410740000000  0.4965310000000  0.5252640000000 1.0
C      1  0.5357080000000  0.4830400000000  0.4955460000000 1.0
C      1  0.4647760000000  0.4685220000000  0.4651500000000 1.0
C      1  0.5099040000000  0.4710100000000  0.4534070000000 1.0
C      1  0.5495140000000  0.5431010000000  0.4740790000000 1.0
C      1  0.5290240000000  0.4871400000000  0.4676210000000 1.0
C      1  0.5116240000000  0.4986910000000  0.5446540000000 1.0
C      1  0.4915640000000  0.4552810000000  0.4673140000000 1.0
C      1  0.4727930000000  0.4557340000000  0.5087420000000 1.0
C      1  0.5062520000000  0.5515220000000  0.4889020000000 1.0
C      1  0.4788390000000  0.4688350000000  0.5332450000000 1.0
C      1  0.4526220000000  0.4661480000000  0.4912920000000 1.0
C      1  0.5170590000000  0.5601430000000  0.5133570000000 1.0
C      1  0.4653500000000  0.4935380000000  0.5393510000000 1.0
C      1  0.5191180000000  0.4641010000000  0.5097210000000 1.0
C      1  0.5308630000000  0.5162050000000  0.5331960000000 1.0
C      1  0.5166560000000  0.5119260000000  0.4570190000000 1.0
C      1  0.4343660000000  0.4826760000000  0.5047130000000 1.0
END
