TITL C-144819-3401-7 0.0350119930731309 125000 -690.33535931105 0 0 100 (C1) n - 1
REM
REM in /rds/project/t2_vol4/rds-t2-cs072/BORA/CARBON/from-Arr/AIRSS/Generating-Clusters/GAP-ML-2020/Only-C1/SD-CG/HFTN-CG
REM
REM
REM
REM
REM
REM ./C.cell (11c1c37f851c82e70ff6c80c92926a4b)
REM AIRSS Version 0.9.1 bugfix July 2018 build 013d7b7c2542+ Fri, 06 Jul 2018 19:26:36 +0100
REM compiler GCC version 9.3.0
REM options -cpp -mtune=generic -march=x86-64 -g -O0
REM seed -448429938 -879781687 -1596709025 -568044293 1338311453 -828408115 860977247 -285195571 1640894199 942882611 73776004 -1380793314 167966839 -542939901 -864421389 -1465415519 -1967058616 -26652982 -1375580960 -48962435 -430415409 -113274097 -1106758153 1729238843 -1341258147 33314745 1127582011 -1019507141 -706610882 2096519141 594739080 -1197679173 -597315963
REM
CELL 1.54180   50.00000   50.00000   50.00000   90.00000   90.00000   90.00000
LATT -1
SFAC C  
C      1  0.4973910000000  0.4817040000000  0.5304230000000 1.0
C      1  0.5407150000000  0.4489990000000  0.5751060000000 1.0
C      1  0.4241030000000  0.4772280000000  0.5143440000000 1.0
C      1  0.5163150000000  0.5637310000000  0.4429090000000 1.0
C      1  0.5301350000000  0.5107680000000  0.5738240000000 1.0
C      1  0.5318240000000  0.5700270000000  0.4654530000000 1.0
C      1  0.5388490000000  0.4854380000000  0.4666480000000 1.0
C      1  0.4265640000000  0.5232160000000  0.4528980000000 1.0
C      1  0.5171740000000  0.4640790000000  0.5734780000000 1.0
C      1  0.5115500000000  0.4912510000000  0.5819700000000 1.0
C      1  0.4301550000000  0.4681920000000  0.5409600000000 1.0
C      1  0.4263720000000  0.5744810000000  0.4609890000000 1.0
C      1  0.5768650000000  0.5087760000000  0.5428460000000 1.0
C      1  0.5261060000000  0.5368330000000  0.4349220000000 1.0
C      1  0.4702530000000  0.4536110000000  0.5600270000000 1.0
C      1  0.5259200000000  0.4535350000000  0.4959420000000 1.0
C      1  0.4517150000000  0.5515480000000  0.4963330000000 1.0
C      1  0.4888790000000  0.4807320000000  0.4629820000000 1.0
C      1  0.5190720000000  0.5352880000000  0.5638880000000 1.0
C      1  0.4700830000000  0.4828870000000  0.5179160000000 1.0
C      1  0.4843410000000  0.4868100000000  0.4900940000000 1.0
C      1  0.5510520000000  0.5305900000000  0.4492200000000 1.0
C      1  0.5174780000000  0.4205140000000  0.4955780000000 1.0
C      1  0.4290890000000  0.5389660000000  0.5097060000000 1.0
C      1  0.4767010000000  0.5774960000000  0.4703370000000 1.0
C      1  0.4599550000000  0.4401480000000  0.4566730000000 1.0
C      1  0.4872810000000  0.5175870000000  0.4930810000000 1.0
C      1  0.5325710000000  0.5404370000000  0.5098990000000 1.0
C      1  0.4366680000000  0.4831460000000  0.4601590000000 1.0
C      1  0.5167620000000  0.5227290000000  0.4898260000000 1.0
C      1  0.4387810000000  0.5082720000000  0.4768550000000 1.0
C      1  0.4776960000000  0.5577110000000  0.5157650000000 1.0
C      1  0.5364340000000  0.5701260000000  0.5112710000000 1.0
C      1  0.5534700000000  0.5521980000000  0.4689740000000 1.0
C      1  0.5536270000000  0.4342980000000  0.5581750000000 1.0
C      1  0.4485770000000  0.4468570000000  0.5411550000000 1.0
C      1  0.4767000000000  0.4251310000000  0.4743350000000 1.0
C      1  0.4822440000000  0.5201670000000  0.4249280000000 1.0
C      1  0.4822310000000  0.5341860000000  0.4510520000000 1.0
C      1  0.5452330000000  0.4194890000000  0.5034100000000 1.0
C      1  0.4929570000000  0.5454980000000  0.5671500000000 1.0
C      1  0.4341050000000  0.4558290000000  0.4975400000000 1.0
C      1  0.5138580000000  0.4941280000000  0.4234040000000 1.0
C      1  0.4867580000000  0.5652870000000  0.5449310000000 1.0
C      1  0.5471200000000  0.5065290000000  0.5473880000000 1.0
C      1  0.5184240000000  0.4384270000000  0.4511000000000 1.0
C      1  0.4310770000000  0.5075470000000  0.5050710000000 1.0
C      1  0.5867270000000  0.5077070000000  0.4964640000000 1.0
C      1  0.5842250000000  0.4968800000000  0.4693600000000 1.0
C      1  0.5909740000000  0.4700980000000  0.4700900000000 1.0
C      1  0.5024610000000  0.4469330000000  0.4303440000000 1.0
C      1  0.4727050000000  0.4479510000000  0.4325910000000 1.0
C      1  0.5010810000000  0.5114790000000  0.5349370000000 1.0
C      1  0.4419480000000  0.5094840000000  0.5516660000000 1.0
C      1  0.4230610000000  0.5493890000000  0.4551750000000 1.0
C      1  0.4622710000000  0.4992720000000  0.4215250000000 1.0
C      1  0.5829240000000  0.4506290000000  0.4874610000000 1.0
C      1  0.5603190000000  0.4335360000000  0.4813930000000 1.0
C      1  0.4718620000000  0.4239760000000  0.5026640000000 1.0
C      1  0.4548040000000  0.5089880000000  0.5240140000000 1.0
C      1  0.4798590000000  0.5258390000000  0.5200680000000 1.0
C      1  0.5303360000000  0.4958370000000  0.4958940000000 1.0
C      1  0.5047610000000  0.4218180000000  0.4698470000000 1.0
C      1  0.5466940000000  0.4882790000000  0.5220390000000 1.0
C      1  0.4485490000000  0.5313140000000  0.5680260000000 1.0
C      1  0.4886750000000  0.5631580000000  0.4487150000000 1.0
C      1  0.5081420000000  0.5827700000000  0.5448550000000 1.0
C      1  0.5094640000000  0.4319870000000  0.5373170000000 1.0
C      1  0.4986690000000  0.4551340000000  0.5518300000000 1.0
C      1  0.4647400000000  0.5280420000000  0.4764070000000 1.0
C      1  0.4352540000000  0.5537450000000  0.5571670000000 1.0
C      1  0.5115030000000  0.5230420000000  0.4599980000000 1.0
C      1  0.4386400000000  0.4846070000000  0.5624740000000 1.0
C      1  0.5196500000000  0.5778650000000  0.4896610000000 1.0
C      1  0.5317670000000  0.5845410000000  0.5352970000000 1.0
C      1  0.5471620000000  0.4581760000000  0.5187880000000 1.0
C      1  0.5091890000000  0.4765640000000  0.5026840000000 1.0
C      1  0.5094300000000  0.5206650000000  0.4163070000000 1.0
C      1  0.5137670000000  0.4940060000000  0.4529610000000 1.0
C      1  0.5779080000000  0.4902200000000  0.5181610000000 1.0
C      1  0.5391300000000  0.4533530000000  0.4681060000000 1.0
C      1  0.4829760000000  0.4980120000000  0.5822960000000 1.0
C      1  0.4969920000000  0.4197090000000  0.5157340000000 1.0
C      1  0.4250560000000  0.5524430000000  0.5333030000000 1.0
C      1  0.4634440000000  0.4773490000000  0.5744810000000 1.0
C      1  0.5016380000000  0.4708850000000  0.4140810000000 1.0
C      1  0.4494730000000  0.4372270000000  0.5140980000000 1.0
C      1  0.5818850000000  0.5345930000000  0.5074760000000 1.0
C      1  0.5276180000000  0.5268510000000  0.5361730000000 1.0
C      1  0.5587820000000  0.5485260000000  0.4974290000000 1.0
C      1  0.5765780000000  0.4612540000000  0.5130320000000 1.0
C      1  0.5898800000000  0.5320920000000  0.5354860000000 1.0
C      1  0.5599620000000  0.5043100000000  0.4556050000000 1.0
C      1  0.4915410000000  0.5747080000000  0.4939200000000 1.0
C      1  0.5401880000000  0.4321920000000  0.5325060000000 1.0
C      1  0.4396390000000  0.4569680000000  0.4693940000000 1.0
C      1  0.4726550000000  0.4728910000000  0.4170470000000 1.0
C      1  0.4747780000000  0.5267260000000  0.5782280000000 1.0
C      1  0.4490190000000  0.5730120000000  0.4771440000000 1.0
C      1  0.4380160000000  0.5005390000000  0.4373470000000 1.0
END
