TITL C-141439-3361-4 0.0294811703817274 125000 -390.17469245559 0 0 58 (C1) n - 1
REM
REM in /rds/project/t2_vol4/rds-t2-cs072/BORA/CARBON/from-Arr/AIRSS/Generating-Clusters/GAP-ML-2020/Only-C1/SD-CG/HFTN-CG
REM
REM
REM
REM
REM
REM ./C.cell (11c1c37f851c82e70ff6c80c92926a4b)
REM AIRSS Version 0.9.1 bugfix July 2018 build 013d7b7c2542+ Fri, 06 Jul 2018 19:26:36 +0100
REM compiler GCC version 9.3.0
REM options -cpp -mtune=generic -march=x86-64 -g -O0
REM seed -932805739 -1881806634 -1437649660 65262344 -1054595713 -987359436 1174793982 -1970039571 -1027068209 -1711832890 715399598 610410033 198055050 283298238 22487647 1502164880 -1179873230 -552227952 356861278 -1146487174 942356552 -396318053 41618457 -95254302 637676106 214352462 -1690180108 -944033982 565056580 -1585851385 -1278726504 -1791697777 -1979472991
REM
CELL 1.54180   50.00000   50.00000   50.00000   90.00000   90.00000   90.00000
LATT -1
SFAC C  
C      1  0.5310610000000  0.5430000000000  0.5092400000000 1.0
C      1  0.5651870000000  0.5109510000000  0.4507270000000 1.0
C      1  0.5128260000000  0.5185970000000  0.4352980000000 1.0
C      1  0.4859820000000  0.4351060000000  0.5350660000000 1.0
C      1  0.5247820000000  0.4596920000000  0.4601250000000 1.0
C      1  0.5465690000000  0.4891400000000  0.5208500000000 1.0
C      1  0.5173230000000  0.5596960000000  0.5284440000000 1.0
C      1  0.5000830000000  0.5055520000000  0.5682720000000 1.0
C      1  0.5148230000000  0.5202940000000  0.5003220000000 1.0
C      1  0.5262080000000  0.4416910000000  0.5144330000000 1.0
C      1  0.5525490000000  0.5060180000000  0.5469890000000 1.0
C      1  0.4479960000000  0.5470510000000  0.4788490000000 1.0
C      1  0.4443710000000  0.5331480000000  0.4542650000000 1.0
C      1  0.5583690000000  0.5080570000000  0.4971430000000 1.0
C      1  0.5257370000000  0.4754260000000  0.4844770000000 1.0
C      1  0.5323140000000  0.5044820000000  0.4809360000000 1.0
C      1  0.4579060000000  0.4429810000000  0.4988420000000 1.0
C      1  0.5128350000000  0.4430690000000  0.5396100000000 1.0
C      1  0.4935710000000  0.4852830000000  0.5216870000000 1.0
C      1  0.5244930000000  0.4782980000000  0.4393600000000 1.0
C      1  0.5013420000000  0.4920000000000  0.4314050000000 1.0
C      1  0.4767570000000  0.5459540000000  0.4843820000000 1.0
C      1  0.4376080000000  0.5504340000000  0.5047840000000 1.0
C      1  0.5236170000000  0.5138100000000  0.5514820000000 1.0
C      1  0.4947600000000  0.4777190000000  0.5699690000000 1.0
C      1  0.5362210000000  0.5071390000000  0.4498050000000 1.0
C      1  0.4870900000000  0.4442640000000  0.4520560000000 1.0
C      1  0.4705080000000  0.4633450000000  0.5696330000000 1.0
C      1  0.4514360000000  0.4849730000000  0.4848000000000 1.0
C      1  0.5116030000000  0.5422860000000  0.5504580000000 1.0
C      1  0.4793060000000  0.4953640000000  0.4780860000000 1.0
C      1  0.4951710000000  0.4757210000000  0.4944050000000 1.0
C      1  0.5063650000000  0.5801090000000  0.4685460000000 1.0
C      1  0.5082530000000  0.5894980000000  0.4930550000000 1.0
C      1  0.5161730000000  0.4635970000000  0.5572160000000 1.0
C      1  0.4921950000000  0.5354280000000  0.4432370000000 1.0
C      1  0.4862710000000  0.5301420000000  0.5598310000000 1.0
C      1  0.4706090000000  0.5060440000000  0.5205270000000 1.0
C      1  0.4763210000000  0.4912730000000  0.4466150000000 1.0
C      1  0.5758600000000  0.5073310000000  0.4744020000000 1.0
C      1  0.4850610000000  0.5201510000000  0.4948790000000 1.0
C      1  0.4505100000000  0.4599050000000  0.5219470000000 1.0
C      1  0.5075670000000  0.4302890000000  0.4945880000000 1.0
C      1  0.4819640000000  0.4294140000000  0.5074210000000 1.0
C      1  0.4661770000000  0.5201740000000  0.4437170000000 1.0
C      1  0.4647720000000  0.4514670000000  0.5457770000000 1.0
C      1  0.4489840000000  0.4864650000000  0.5126570000000 1.0
C      1  0.4674770000000  0.4623740000000  0.4508910000000 1.0
C      1  0.5096970000000  0.5843600000000  0.5185230000000 1.0
C      1  0.5086140000000  0.4370080000000  0.4664140000000 1.0
C      1  0.4524820000000  0.4586090000000  0.4751400000000 1.0
C      1  0.5564430000000  0.5324840000000  0.5143360000000 1.0
C      1  0.5408120000000  0.4639720000000  0.5073560000000 1.0
C      1  0.4452270000000  0.5444200000000  0.5283130000000 1.0
C      1  0.5181530000000  0.5009470000000  0.5237830000000 1.0
C      1  0.4636550000000  0.5282830000000  0.5412360000000 1.0
C      1  0.5659430000000  0.5295290000000  0.5400160000000 1.0
C      1  0.4940080000000  0.5561860000000  0.4633740000000 1.0
END
