TITL C-147409-6637-9 -0.0322108591995907 125000 -136.357604996051 0 0 21 (C1) n - 1
REM
REM in /rds/project/t2_vol4/rds-t2-cs072/BORA/CARBON/from-Arr/AIRSS/Generating-Clusters/GAP-ML-2020/Only-C1/SD-CG/HFTN-CG
REM
REM
REM
REM
REM
REM ./C.cell (11c1c37f851c82e70ff6c80c92926a4b)
REM AIRSS Version 0.9.1 bugfix July 2018 build 013d7b7c2542+ Fri, 06 Jul 2018 19:26:36 +0100
REM compiler GCC version 9.3.0
REM options -cpp -mtune=generic -march=x86-64 -g -O0
REM seed -459079472 190165938 2146401659 1885339395 1573696215 -1955197875 -1082373352 1798873960 2102136930 1283547773 -1268661626 -1176402445 -1921198766 -1255320705 1990714010 1334959211 663655222 1658748012 -1332960176 492358725 -376912344 -1943971353 10217534 -1789586609 -1790274708 262221577 -1621179041 1385462332 -197413373 -813556561 1726345420 1262869043 1770807391
REM
CELL 1.54180   50.00000   50.00000   50.00000   90.00000   90.00000   90.00000
LATT -1
SFAC C  
C      1  0.5010240000000  0.5217430000000  0.5007720000000 1.0
C      1  0.5215760000000  0.4941290000000  0.4692160000000 1.0
C      1  0.5366190000000  0.5015690000000  0.5189180000000 1.0
C      1  0.5129220000000  0.4841770000000  0.5484390000000 1.0
C      1  0.4748000000000  0.5018540000000  0.5317560000000 1.0
C      1  0.4642530000000  0.5006440000000  0.4796330000000 1.0
C      1  0.4785270000000  0.5044860000000  0.5029640000000 1.0
C      1  0.4874830000000  0.5066960000000  0.4413580000000 1.0
C      1  0.5067150000000  0.5348540000000  0.5253720000000 1.0
C      1  0.4683070000000  0.5173210000000  0.4573800000000 1.0
C      1  0.5189440000000  0.4996860000000  0.4968640000000 1.0
C      1  0.4851340000000  0.4781040000000  0.4476830000000 1.0
C      1  0.4971540000000  0.4819110000000  0.5061420000000 1.0
C      1  0.4639060000000  0.4768560000000  0.4641970000000 1.0
C      1  0.5139700000000  0.5104520000000  0.4478630000000 1.0
C      1  0.5108570000000  0.4724000000000  0.4551740000000 1.0
C      1  0.5338660000000  0.4780740000000  0.5325330000000 1.0
C      1  0.5135510000000  0.5112650000000  0.5577690000000 1.0
C      1  0.4896970000000  0.5222820000000  0.5454490000000 1.0
C      1  0.4903510000000  0.4780850000000  0.5339700000000 1.0
C      1  0.5303450000000  0.5234120000000  0.5365480000000 1.0
END
