TITL C-141719-1664-5 143.03740207954 125000 -804.065833472957 0 0 115 (C1) n - 1
REM
REM in /rds/project/t2_vol4/rds-t2-cs072/BORA/CARBON/from-Arr/AIRSS/Generating-Clusters/GAP-ML-2020/Only-C1/SD-CG/HFTN-CG
REM
REM
REM
REM
REM
REM ./C.cell (11c1c37f851c82e70ff6c80c92926a4b)
REM AIRSS Version 0.9.1 bugfix July 2018 build 013d7b7c2542+ Fri, 06 Jul 2018 19:26:36 +0100
REM compiler GCC version 9.3.0
REM options -cpp -mtune=generic -march=x86-64 -g -O0
REM seed -1870108979 1041769078 -1326272282 671058492 123997360 -1803669289 2038926565 2061909146 1734451548 -411404591 -1032382116 -277104300 -838430497 862266829 -1046933151 1275341938 -1899360518 -280856527 -503410316 -1118924145 -1449453258 1154672731 1395337842 1847684086 1256955955 1458029645 1463038536 -54292811 -82376725 225021484 1060937751 652389329 -141550157
REM
CELL 1.54180   50.00000   50.00000   50.00000   90.00000   90.00000   90.00000
LATT -1
SFAC C  
C      1  0.5022060000000  0.4198540000000  0.5277470000000 1.0
C      1  0.4245280000000  0.4846670000000  0.5459210000000 1.0
C      1  0.4995550000000  0.4812710000000  0.5318270000000 1.0
C      1  0.5796370000000  0.5085110000000  0.5470010000000 1.0
C      1  0.5839310000000  0.4983650000000  0.4967770000000 1.0
C      1  0.4845300000000  0.4676420000000  0.4971260000000 1.0
C      1  0.5295510000000  0.4623770000000  0.5717890000000 1.0
C      1  0.5673200000000  0.5521740000000  0.5097790000000 1.0
C      1  0.4638680000000  0.4119880000000  0.5005890000000 1.0
C      1  0.5601140000000  0.5709350000000  0.4886480000000 1.0
C      1  0.4167390000000  0.4811550000000  0.4731910000000 1.0
C      1  0.5050190000000  0.5033750000000  0.4142660000000 1.0
C      1  0.4979110000000  0.5525490000000  0.5091310000000 1.0
C      1  0.4680050000000  0.5522800000000  0.5680700000000 1.0
C      1  0.5563860000000  0.4646590000000  0.5079040000000 1.0
C      1  0.4933480000000  0.5609390000000  0.5584210000000 1.0
C      1  0.5076870000000  0.5068740000000  0.5193800000000 1.0
C      1  0.5141030000000  0.4970240000000  0.5884510000000 1.0
C      1  0.5094220000000  0.4537280000000  0.4910780000000 1.0
C      1  0.4416360000000  0.5680970000000  0.5299810000000 1.0
C      1  0.4601250000000  0.4468910000000  0.5414160000000 1.0
C      1  0.4950530000000  0.5736140000000  0.5312820000000 1.0
C      1  0.5306110000000  0.5679820000000  0.4509880000000 1.0
C      1  0.5157930000000  0.5803100000000  0.4729930000000 1.0
C      1  0.4343350000000  0.4595380000000  0.4603080000000 1.0
C      1  0.4458680000000  0.5350880000000  0.4405150000000 1.0
C      1  0.5835390000000  0.4941520000000  0.4359780000000 1.0
C      1  0.5003140000000  0.4853340000000  0.4381670000000 1.0
C      1  0.4554850000000  0.4921400000000  0.4305870000000 1.0
C      1  0.5030880000000  0.4377460000000  0.4487330000000 1.0
C      1  0.5352360000000  0.4886620000000  0.4108550000000 1.0
C      1  0.4686030000000  0.5368550000000  0.4211500000000 1.0
C      1  0.4850540000000  0.4577190000000  0.4388040000000 1.0
C      1  0.4875290000000  0.5270680000000  0.5205550000000 1.0
C      1  0.5567660000000  0.5594100000000  0.4624080000000 1.0
C      1  0.4627560000000  0.5167170000000  0.5154200000000 1.0
C      1  0.5907070000000  0.5060450000000  0.5219450000000 1.0
C      1  0.5585330000000  0.4546030000000  0.5629710000000 1.0
C      1  0.4102820000000  0.4843900000000  0.5022760000000 1.0
C      1  0.5691500000000  0.5174650000000  0.4341650000000 1.0
C      1  0.4868270000000  0.4274430000000  0.5747040000000 1.0
C      1  0.5587820000000  0.5134970000000  0.4830740000000 1.0
C      1  0.5679180000000  0.5335100000000  0.5526930000000 1.0
C      1  0.4709390000000  0.5267630000000  0.5809970000000 1.0
C      1  0.5220160000000  0.4649770000000  0.5407180000000 1.0
C      1  0.4348660000000  0.4362890000000  0.4742320000000 1.0
C      1  0.4188120000000  0.4665800000000  0.5240930000000 1.0
C      1  0.4121470000000  0.5314270000000  0.4713520000000 1.0
C      1  0.4408560000000  0.4269500000000  0.4996360000000 1.0
C      1  0.4060520000000  0.5110830000000  0.5142960000000 1.0
C      1  0.4637580000000  0.5798370000000  0.4916860000000 1.0
C      1  0.4906200000000  0.4135910000000  0.5008420000000 1.0
C      1  0.5417400000000  0.5644320000000  0.5393470000000 1.0
C      1  0.5372150000000  0.5361190000000  0.5509800000000 1.0
C      1  0.4561410000000  0.4645130000000  0.4393940000000 1.0
C      1  0.5273540000000  0.4841130000000  0.4501300000000 1.0
C      1  0.5131170000000  0.5417420000000  0.5678860000000 1.0
C      1  0.5080100000000  0.5066930000000  0.4871800000000 1.0
C      1  0.5330300000000  0.5783070000000  0.4956780000000 1.0
C      1  0.4613440000000  0.5113450000000  0.4888040000000 1.0
C      1  0.5575730000000  0.4191280000000  0.4931890000000 1.0
C      1  0.5653770000000  0.5324310000000  0.4590250000000 1.0
C      1  0.4579630000000  0.4609100000000  0.5685070000000 1.0
C      1  0.4352720000000  0.4432250000000  0.5238780000000 1.0
C      1  0.5340120000000  0.4679500000000  0.4890000000000 1.0
C      1  0.5475000000000  0.4234080000000  0.4527060000000 1.0
C      1  0.4310780000000  0.5506050000000  0.4608470000000 1.0
C      1  0.4154220000000  0.5055040000000  0.4585470000000 1.0
C      1  0.4137910000000  0.5107160000000  0.5418330000000 1.0
C      1  0.5545200000000  0.4356090000000  0.5165230000000 1.0
C      1  0.5737070000000  0.4696020000000  0.4409150000000 1.0
C      1  0.4566220000000  0.4927970000000  0.5288620000000 1.0
C      1  0.5332770000000  0.4936930000000  0.4769170000000 1.0
C      1  0.5110900000000  0.5317820000000  0.4738760000000 1.0
C      1  0.5076490000000  0.4260700000000  0.4781360000000 1.0
C      1  0.4658510000000  0.5803890000000  0.5206660000000 1.0
C      1  0.4888960000000  0.5697040000000  0.4817970000000 1.0
C      1  0.4411100000000  0.4832040000000  0.5696670000000 1.0
C      1  0.4779200000000  0.4990370000000  0.4522340000000 1.0
C      1  0.5807840000000  0.4710750000000  0.4912200000000 1.0
C      1  0.5167730000000  0.5538320000000  0.4288910000000 1.0
C      1  0.4998730000000  0.5215140000000  0.5829010000000 1.0
C      1  0.4820050000000  0.4537800000000  0.5834030000000 1.0
C      1  0.4819160000000  0.4923650000000  0.4816460000000 1.0
C      1  0.5692880000000  0.5577580000000  0.5368810000000 1.0
C      1  0.5354340000000  0.5131580000000  0.5275100000000 1.0
C      1  0.5478870000000  0.5297750000000  0.5050440000000 1.0
C      1  0.4297630000000  0.5278950000000  0.5587860000000 1.0
C      1  0.4870560000000  0.5468810000000  0.4628270000000 1.0
C      1  0.4088060000000  0.5356070000000  0.4992140000000 1.0
C      1  0.5456850000000  0.4824880000000  0.5322210000000 1.0
C      1  0.5806280000000  0.4567630000000  0.4665810000000 1.0
C      1  0.4654800000000  0.5272670000000  0.4636490000000 1.0
C      1  0.4390180000000  0.5676260000000  0.4832120000000 1.0
C      1  0.5060540000000  0.4686450000000  0.5890840000000 1.0
C      1  0.5702470000000  0.4308360000000  0.4694800000000 1.0
C      1  0.4253840000000  0.5592910000000  0.5066680000000 1.0
C      1  0.4328580000000  0.5093280000000  0.4366820000000 1.0
C      1  0.4893030000000  0.5518560000000  0.4336870000000 1.0
C      1  0.5342880000000  0.4131740000000  0.4761530000000 1.0
C      1  0.5270770000000  0.4358730000000  0.5329230000000 1.0
C      1  0.5470470000000  0.5138310000000  0.4151730000000 1.0
C      1  0.5239770000000  0.5803310000000  0.5246140000000 1.0
C      1  0.5306610000000  0.4409740000000  0.4385570000000 1.0
C      1  0.5401290000000  0.4905270000000  0.5774630000000 1.0
C      1  0.5221420000000  0.5283120000000  0.4166970000000 1.0
C      1  0.5243580000000  0.5460850000000  0.4954000000000 1.0
C      1  0.4425220000000  0.5536500000000  0.5546560000000 1.0
C      1  0.4465210000000  0.5116990000000  0.5754000000000 1.0
C      1  0.5434430000000  0.4671630000000  0.4320720000000 1.0
C      1  0.4740000000000  0.4705430000000  0.5246790000000 1.0
C      1  0.4744800000000  0.5101270000000  0.4129330000000 1.0
C      1  0.5560320000000  0.4342490000000  0.5450350000000 1.0
C      1  0.5624420000000  0.4850050000000  0.5573640000000 1.0
C      1  0.4821450000000  0.4255470000000  0.5478490000000 1.0
END
