TITL C-140199-7050-4 -5.17811133066269 125000 -249.730017992213 0 0 38 (C1) n - 1
REM
REM in /rds/project/t2_vol4/rds-t2-cs072/BORA/CARBON/from-Arr/AIRSS/Generating-Clusters/GAP-ML-2020/Only-C1/SD-CG/HFTN-CG
REM
REM
REM
REM
REM
REM ./C.cell (11c1c37f851c82e70ff6c80c92926a4b)
REM AIRSS Version 0.9.1 bugfix July 2018 build 013d7b7c2542+ Fri, 06 Jul 2018 19:26:36 +0100
REM compiler GCC version 9.3.0
REM options -cpp -mtune=generic -march=x86-64 -g -O0
REM seed 1274154860 982562162 -397067948 -117715640 1282836732 33597709 1949439224 -94549522 1689619355 153864992 1416413993 -795344687 799471051 -1234392480 -1035060577 810321977 151540518 -535694270 1781327961 720875954 1252593680 -1101730147 -1530082550 1542010685 1151559856 -103303543 -1934775021 1370564861 1791086704 -1394650703 -1508919221 -2082756180 -2024770066
REM
CELL 1.54180   50.00000   50.00000   50.00000   90.00000   90.00000   90.00000
LATT -1
SFAC C  
C      1  0.5362670000000  0.5217080000000  0.5177170000000 1.0
C      1  0.5136090000000  0.5272440000000  0.4997290000000 1.0
C      1  0.5100350000000  0.4966220000000  0.4439530000000 1.0
C      1  0.5737470000000  0.5137110000000  0.4733760000000 1.0
C      1  0.4757670000000  0.4723040000000  0.5519040000000 1.0
C      1  0.5812350000000  0.4966780000000  0.4927900000000 1.0
C      1  0.4472350000000  0.5055590000000  0.4825120000000 1.0
C      1  0.4790480000000  0.4624110000000  0.4609560000000 1.0
C      1  0.4378890000000  0.4684320000000  0.5207400000000 1.0
C      1  0.4464670000000  0.5306880000000  0.4963580000000 1.0
C      1  0.5057270000000  0.5348790000000  0.4539340000000 1.0
C      1  0.5100570000000  0.5202870000000  0.4307670000000 1.0
C      1  0.5375200000000  0.5283050000000  0.5447000000000 1.0
C      1  0.4522450000000  0.4612630000000  0.5403550000000 1.0
C      1  0.5056120000000  0.4451130000000  0.5169070000000 1.0
C      1  0.4704380000000  0.5447290000000  0.4885560000000 1.0
C      1  0.5697150000000  0.4844540000000  0.5125530000000 1.0
C      1  0.5210330000000  0.4855800000000  0.5366170000000 1.0
C      1  0.4967870000000  0.4707100000000  0.5300590000000 1.0
C      1  0.5473000000000  0.5156030000000  0.4683100000000 1.0
C      1  0.5120610000000  0.4528200000000  0.4925170000000 1.0
C      1  0.4654370000000  0.5080110000000  0.4606440000000 1.0
C      1  0.5180140000000  0.5100210000000  0.5524330000000 1.0
C      1  0.4764660000000  0.4942400000000  0.5676500000000 1.0
C      1  0.5010810000000  0.4986860000000  0.4909490000000 1.0
C      1  0.5400140000000  0.4895300000000  0.5137080000000 1.0
C      1  0.4516030000000  0.5182440000000  0.5220960000000 1.0
C      1  0.5320720000000  0.4907480000000  0.4624920000000 1.0
C      1  0.5242360000000  0.4802470000000  0.4887570000000 1.0
C      1  0.5258790000000  0.5354430000000  0.4744500000000 1.0
C      1  0.4892860000000  0.5162380000000  0.5556690000000 1.0
C      1  0.4789000000000  0.5337830000000  0.4634170000000 1.0
C      1  0.4531660000000  0.4906560000000  0.5074980000000 1.0
C      1  0.4767610000000  0.5284240000000  0.5326670000000 1.0
C      1  0.4813510000000  0.4821290000000  0.5053240000000 1.0
C      1  0.4835760000000  0.4574040000000  0.4867770000000 1.0
C      1  0.4893720000000  0.5404000000000  0.5097220000000 1.0
C      1  0.4829920000000  0.4866940000000  0.4504370000000 1.0
END
