TITL C-142782-1222-8 -0.0947515397741429 125000 -494.495304330109 0 0 71 (C1) n - 1
REM
REM in /rds/project/t2_vol4/rds-t2-cs072/BORA/CARBON/from-Arr/AIRSS/Generating-Clusters/GAP-ML-2020/Only-C1/SD-CG/HFTN-CG
REM
REM
REM
REM
REM
REM ./C.cell (11c1c37f851c82e70ff6c80c92926a4b)
REM AIRSS Version 0.9.1 bugfix July 2018 build 013d7b7c2542+ Fri, 06 Jul 2018 19:26:36 +0100
REM compiler GCC version 9.3.0
REM options -cpp -mtune=generic -march=x86-64 -g -O0
REM seed -2016148835 -528423764 1217810569 -1376101632 -1259078479 1667424394 489414957 -344196422 1023159335 153541246 1370528575 879413369 -2091591204 257517741 1835106228 -2140464802 -1412400235 -543503933 1271981580 -1678538199 858316508 -1811535438 475891343 -249534284 -1153186109 702401597 -571708651 -1803790330 -1456448767 -1316350393 1991554438 1177806051 -260109489
REM
CELL 1.54180   50.00000   50.00000   50.00000   90.00000   90.00000   90.00000
LATT -1
SFAC C  
C      1  0.5397490000000  0.5546600000000  0.4919070000000 1.0
C      1  0.4893600000000  0.5193610000000  0.5109840000000 1.0
C      1  0.5561100000000  0.4573900000000  0.5128230000000 1.0
C      1  0.4288900000000  0.4638350000000  0.4869080000000 1.0
C      1  0.4733140000000  0.4730300000000  0.4418430000000 1.0
C      1  0.5324110000000  0.5390980000000  0.5539430000000 1.0
C      1  0.5067880000000  0.5700800000000  0.5192680000000 1.0
C      1  0.4990810000000  0.5519390000000  0.4709790000000 1.0
C      1  0.4501200000000  0.5521650000000  0.4849240000000 1.0
C      1  0.4723590000000  0.4374970000000  0.4745240000000 1.0
C      1  0.5542080000000  0.5632040000000  0.5165960000000 1.0
C      1  0.5193510000000  0.4457120000000  0.4544220000000 1.0
C      1  0.5770090000000  0.5466850000000  0.4714430000000 1.0
C      1  0.5206740000000  0.4902290000000  0.5266050000000 1.0
C      1  0.4388660000000  0.5117070000000  0.4638380000000 1.0
C      1  0.5356710000000  0.4897310000000  0.4339820000000 1.0
C      1  0.4818610000000  0.4299000000000  0.5000490000000 1.0
C      1  0.4473420000000  0.5268400000000  0.5518250000000 1.0
C      1  0.5270970000000  0.4734770000000  0.5519300000000 1.0
C      1  0.5621660000000  0.4848160000000  0.5080700000000 1.0
C      1  0.5068570000000  0.5243260000000  0.4874790000000 1.0
C      1  0.4795940000000  0.5648160000000  0.5245990000000 1.0
C      1  0.4306630000000  0.4844650000000  0.4647890000000 1.0
C      1  0.4636650000000  0.5209200000000  0.4517850000000 1.0
C      1  0.4742290000000  0.5292540000000  0.5578420000000 1.0
C      1  0.4552600000000  0.4766310000000  0.5549230000000 1.0
C      1  0.4463540000000  0.4464050000000  0.4712050000000 1.0
C      1  0.5372980000000  0.4975850000000  0.5644920000000 1.0
C      1  0.5315820000000  0.5609880000000  0.5351070000000 1.0
C      1  0.5004040000000  0.4626180000000  0.5608360000000 1.0
C      1  0.4934340000000  0.4932750000000  0.5179150000000 1.0
C      1  0.5093460000000  0.5047920000000  0.4388170000000 1.0
C      1  0.4702760000000  0.5462970000000  0.4655210000000 1.0
C      1  0.5445590000000  0.5079720000000  0.4712810000000 1.0
C      1  0.5147150000000  0.5523350000000  0.4467630000000 1.0
C      1  0.5134770000000  0.5682290000000  0.4921040000000 1.0
C      1  0.4808910000000  0.4816930000000  0.5676060000000 1.0
C      1  0.5177050000000  0.5175870000000  0.5703670000000 1.0
C      1  0.5280330000000  0.4323210000000  0.4795740000000 1.0
C      1  0.5712690000000  0.5600980000000  0.4952640000000 1.0
C      1  0.4393390000000  0.4995010000000  0.5490700000000 1.0
C      1  0.4542320000000  0.5601590000000  0.5132360000000 1.0
C      1  0.5731590000000  0.5341970000000  0.4494130000000 1.0
C      1  0.4247770000000  0.5227930000000  0.5115120000000 1.0
C      1  0.5444980000000  0.5067430000000  0.5184630000000 1.0
C      1  0.5136450000000  0.5005380000000  0.4690720000000 1.0
C      1  0.4898590000000  0.5096720000000  0.5707890000000 1.0
C      1  0.4941350000000  0.4414050000000  0.5432700000000 1.0
C      1  0.4379370000000  0.5414480000000  0.5285060000000 1.0
C      1  0.5027250000000  0.4753220000000  0.4782510000000 1.0
C      1  0.4801810000000  0.5011870000000  0.4381120000000 1.0
C      1  0.5488580000000  0.5170620000000  0.5459330000000 1.0
C      1  0.5403970000000  0.4645060000000  0.4459800000000 1.0
C      1  0.4503720000000  0.4573270000000  0.5334360000000 1.0
C      1  0.4711050000000  0.4388170000000  0.5265700000000 1.0
C      1  0.5640650000000  0.4875410000000  0.4799870000000 1.0
C      1  0.5527190000000  0.4443190000000  0.4873300000000 1.0
C      1  0.4870140000000  0.5388890000000  0.5334270000000 1.0
C      1  0.5364100000000  0.5254240000000  0.4946450000000 1.0
C      1  0.5239120000000  0.5304970000000  0.4358440000000 1.0
C      1  0.4913410000000  0.4543700000000  0.4566870000000 1.0
C      1  0.4259070000000  0.4963210000000  0.5241880000000 1.0
C      1  0.5604110000000  0.4630210000000  0.4664360000000 1.0
C      1  0.4315730000000  0.5300860000000  0.4844950000000 1.0
C      1  0.5101000000000  0.4271440000000  0.5013340000000 1.0
C      1  0.5497850000000  0.5172620000000  0.4436610000000 1.0
C      1  0.5382040000000  0.4528050000000  0.5340230000000 1.0
C      1  0.4474870000000  0.4668760000000  0.4497990000000 1.0
C      1  0.4852570000000  0.4769030000000  0.4986580000000 1.0
C      1  0.4310860000000  0.4694360000000  0.5147100000000 1.0
C      1  0.5174710000000  0.4344690000000  0.5280290000000 1.0
END
