TITL C-147408-6656-3 0.00412225080913372 125000 -22.9478494942387 0 0 4 (D(inf)h) n - 1
REM
REM in /rds/project/t2_vol4/rds-t2-cs072/BORA/CARBON/from-Arr/AIRSS/Generating-Clusters/GAP-ML-2020/Only-C1/SD-CG/HFTN-CG
REM
REM
REM
REM
REM
REM ./C.cell (11c1c37f851c82e70ff6c80c92926a4b)
REM AIRSS Version 0.9.1 bugfix July 2018 build 013d7b7c2542+ Fri, 06 Jul 2018 19:26:36 +0100
REM compiler GCC version 9.3.0
REM options -cpp -mtune=generic -march=x86-64 -g -O0
REM seed -1728005631 815514286 -1154212646 -469276574 -865060695 963274792 -2076381666 299765458 848444374 -2145988784 -1059877744 1113872034 640758168 -440951834 -279622227 939395745 -955914842 1577844235 -952958759 1526946646 1302334128 -784513503 -391978609 1881530147 1003577068 313097308 415234690 -529631404 1048827737 1266945210 571832989 1869323260 -359236224
REM
CELL 1.54180   50.00000   50.00000   50.00000   90.00000   90.00000   90.00000
LATT -1
SFAC C  
C      1  0.4973190000000  0.5086980000000  0.4900760000000 1.0
C      1  0.5026810000000  0.4913020000000  0.5099240000000 1.0
C      1  0.5077370000000  0.4748960000000  0.5286400000000 1.0
C      1  0.4922630000000  0.5251040000000  0.4713600000000 1.0
END
