TITL C-140205-7080-10 -0.061259389707248 125000 -507.783916290285 0 0 74 (C1) n - 1
REM
REM in /rds/project/t2_vol4/rds-t2-cs072/BORA/CARBON/from-Arr/AIRSS/Generating-Clusters/GAP-ML-2020/Only-C1/SD-CG/HFTN-CG
REM
REM
REM
REM
REM
REM ./C.cell (11c1c37f851c82e70ff6c80c92926a4b)
REM AIRSS Version 0.9.1 bugfix July 2018 build 013d7b7c2542+ Fri, 06 Jul 2018 19:26:36 +0100
REM compiler GCC version 9.3.0
REM options -cpp -mtune=generic -march=x86-64 -g -O0
REM seed 377914883 -1257507069 -1280939668 2031959427 1601440850 386506300 -730917566 410330963 -922287369 -790777624 -68908434 144877453 634013835 -1414340839 321023256 264137947 454176339 -1512361035 -836213407 670798999 1494469190 -1468676972 -657003226 1394951680 -2022322983 399413225 739118601 698418387 -1984033106 -1262993730 -878823562 -370896406 2071490906
REM
CELL 1.54180   50.00000   50.00000   50.00000   90.00000   90.00000   90.00000
LATT -1
SFAC C  
C      1  0.5099000000000  0.4505260000000  0.5189930000000 1.0
C      1  0.4660210000000  0.5599190000000  0.4662450000000 1.0
C      1  0.4690630000000  0.4565000000000  0.5428540000000 1.0
C      1  0.4485510000000  0.4533660000000  0.4839070000000 1.0
C      1  0.4572630000000  0.5633310000000  0.5162410000000 1.0
C      1  0.4507710000000  0.4777810000000  0.5555010000000 1.0
C      1  0.4668900000000  0.5116640000000  0.4358810000000 1.0
C      1  0.5499250000000  0.5511650000000  0.5354310000000 1.0
C      1  0.4774420000000  0.5195520000000  0.5069620000000 1.0
C      1  0.4838860000000  0.5637050000000  0.5259500000000 1.0
C      1  0.5538820000000  0.5626810000000  0.5089320000000 1.0
C      1  0.5397850000000  0.5702840000000  0.4487350000000 1.0
C      1  0.5688070000000  0.5040510000000  0.4646830000000 1.0
C      1  0.5631010000000  0.4746580000000  0.4626590000000 1.0
C      1  0.5346830000000  0.5421780000000  0.4470130000000 1.0
C      1  0.5480940000000  0.5265270000000  0.4692590000000 1.0
C      1  0.4415310000000  0.5454430000000  0.5299150000000 1.0
C      1  0.4566650000000  0.4313110000000  0.4989670000000 1.0
C      1  0.4842530000000  0.4877680000000  0.4770990000000 1.0
C      1  0.5125140000000  0.4517170000000  0.5671160000000 1.0
C      1  0.4748850000000  0.5285730000000  0.5587980000000 1.0
C      1  0.5075330000000  0.5325790000000  0.4416350000000 1.0
C      1  0.5272750000000  0.5127580000000  0.5382970000000 1.0
C      1  0.4711200000000  0.4813620000000  0.5757580000000 1.0
C      1  0.5414780000000  0.4599410000000  0.4524140000000 1.0
C      1  0.4860500000000  0.4648190000000  0.4173390000000 1.0
C      1  0.4891610000000  0.5386210000000  0.4644340000000 1.0
C      1  0.5359480000000  0.5817870000000  0.4713740000000 1.0
C      1  0.4208770000000  0.4920910000000  0.4728900000000 1.0
C      1  0.5685150000000  0.5280100000000  0.5381490000000 1.0
C      1  0.4919320000000  0.4745080000000  0.5284410000000 1.0
C      1  0.5075470000000  0.4934630000000  0.5504470000000 1.0
C      1  0.5222590000000  0.4794700000000  0.4467780000000 1.0
C      1  0.5821320000000  0.5008290000000  0.4903330000000 1.0
C      1  0.5406430000000  0.5046230000000  0.5109240000000 1.0
C      1  0.5491030000000  0.4734750000000  0.5088170000000 1.0
C      1  0.5273970000000  0.4464700000000  0.5423060000000 1.0
C      1  0.5227410000000  0.4459510000000  0.4706810000000 1.0
C      1  0.4846750000000  0.4553500000000  0.5678540000000 1.0
C      1  0.4839370000000  0.4233230000000  0.4887410000000 1.0
C      1  0.5691580000000  0.5192980000000  0.5095020000000 1.0
C      1  0.4927160000000  0.4270440000000  0.5151860000000 1.0
C      1  0.4822640000000  0.4911830000000  0.5063110000000 1.0
C      1  0.4531670000000  0.5557820000000  0.4886620000000 1.0
C      1  0.5138240000000  0.4875210000000  0.4760720000000 1.0
C      1  0.4267110000000  0.4927400000000  0.5154070000000 1.0
C      1  0.4705460000000  0.5144170000000  0.4649230000000 1.0
C      1  0.4654700000000  0.4666380000000  0.4351620000000 1.0
C      1  0.4925420000000  0.5484600000000  0.5482530000000 1.0
C      1  0.5086140000000  0.5568870000000  0.5098010000000 1.0
C      1  0.4272330000000  0.5123270000000  0.4940870000000 1.0
C      1  0.4252970000000  0.4917920000000  0.4468970000000 1.0
C      1  0.4945550000000  0.5117460000000  0.4271260000000 1.0
C      1  0.5047150000000  0.4843220000000  0.4253890000000 1.0
C      1  0.4662360000000  0.4322500000000  0.5263220000000 1.0
C      1  0.4481460000000  0.5251500000000  0.5461100000000 1.0
C      1  0.5630070000000  0.5414480000000  0.4919600000000 1.0
C      1  0.4286740000000  0.4723730000000  0.4934950000000 1.0
C      1  0.5524180000000  0.4814920000000  0.5589150000000 1.0
C      1  0.5209160000000  0.5424200000000  0.5369360000000 1.0
C      1  0.4719180000000  0.4615410000000  0.4650230000000 1.0
C      1  0.4485580000000  0.4900400000000  0.4325230000000 1.0
C      1  0.4940370000000  0.4400860000000  0.4687480000000 1.0
C      1  0.5253510000000  0.5129310000000  0.4870580000000 1.0
C      1  0.4526690000000  0.5253040000000  0.4877960000000 1.0
C      1  0.4858530000000  0.5041810000000  0.5673660000000 1.0
C      1  0.5252360000000  0.4764070000000  0.5685340000000 1.0
C      1  0.5303910000000  0.5752710000000  0.4977910000000 1.0
C      1  0.5504000000000  0.4625900000000  0.5370290000000 1.0
C      1  0.4369510000000  0.4979240000000  0.5413920000000 1.0
C      1  0.5013620000000  0.5330560000000  0.4925150000000 1.0
C      1  0.5253460000000  0.4608860000000  0.4955180000000 1.0
C      1  0.5547080000000  0.5087090000000  0.5533430000000 1.0
C      1  0.5727790000000  0.4736560000000  0.4900930000000 1.0
END
