TITL C-141417-3279-5 32.9435410478635 125000 -136.008448493401 0 0 21 (C1) n - 1
REM
REM in /rds/project/t2_vol4/rds-t2-cs072/BORA/CARBON/from-Arr/AIRSS/Generating-Clusters/GAP-ML-2020/Only-C1/SD-CG/HFTN-CG
REM
REM
REM
REM
REM
REM ./C.cell (11c1c37f851c82e70ff6c80c92926a4b)
REM AIRSS Version 0.9.1 bugfix July 2018 build 013d7b7c2542+ Fri, 06 Jul 2018 19:26:36 +0100
REM compiler GCC version 9.3.0
REM options -cpp -mtune=generic -march=x86-64 -g -O0
REM seed -878327852 72491605 1241832237 910969091 -1453258050 257293250 748432381 249317504 -203461421 -1026579478 561663847 -1539477064 399526855 -996031039 691052165 778839029 -654440590 -1057908841 711403084 -928285846 1390504349 -785319155 -1627415279 -99648871 -1013563803 -1310493734 -1819099258 -799663112 236005650 442180870 -1437377776 -921404469 2018913795
REM
CELL 1.54180   50.00000   50.00000   50.00000   90.00000   90.00000   90.00000
LATT -1
SFAC C  
C      1  0.4581920000000  0.5125380000000  0.4872390000000 1.0
C      1  0.5113610000000  0.4872060000000  0.4500690000000 1.0
C      1  0.4591810000000  0.4575660000000  0.4959040000000 1.0
C      1  0.4519090000000  0.4966520000000  0.4679450000000 1.0
C      1  0.4712000000000  0.5208560000000  0.5102130000000 1.0
C      1  0.4988210000000  0.4785790000000  0.4728400000000 1.0
C      1  0.5374620000000  0.5263750000000  0.4579210000000 1.0
C      1  0.4894300000000  0.5425380000000  0.5068700000000 1.0
C      1  0.4690760000000  0.4754300000000  0.4764780000000 1.0
C      1  0.4956340000000  0.4914700000000  0.5444820000000 1.0
C      1  0.5119100000000  0.4847870000000  0.4979200000000 1.0
C      1  0.4980960000000  0.4731240000000  0.5205210000000 1.0
C      1  0.5336350000000  0.5029550000000  0.5019570000000 1.0
C      1  0.4695900000000  0.4724880000000  0.5163940000000 1.0
C      1  0.5156760000000  0.4959570000000  0.5618340000000 1.0
C      1  0.5315440000000  0.5287240000000  0.4848310000000 1.0
C      1  0.5114690000000  0.5457460000000  0.4952790000000 1.0
C      1  0.5401680000000  0.4994850000000  0.5505060000000 1.0
C      1  0.5278940000000  0.5061310000000  0.4440740000000 1.0
C      1  0.5471980000000  0.5019260000000  0.5259260000000 1.0
C      1  0.4705550000000  0.4994680000000  0.5307980000000 1.0
END
