TITL C-149873-8961-2 -0.0392414382723676 125000 -566.500149949606 0 0 83 (C1) n - 1
REM
REM in /rds/project/t2_vol4/rds-t2-cs072/BORA/CARBON/from-Arr/AIRSS/Generating-Clusters/GAP-ML-2020/Only-C1/SD-CG/HFTN-CG
REM
REM
REM
REM
REM
REM ./C.cell (11c1c37f851c82e70ff6c80c92926a4b)
REM AIRSS Version 0.9.1 bugfix July 2018 build 013d7b7c2542+ Fri, 06 Jul 2018 19:26:36 +0100
REM compiler GCC version 9.3.0
REM options -cpp -mtune=generic -march=x86-64 -g -O0
REM seed -1028564190 1055827520 410404920 531412844 1939744746 -1210255574 980754143 -1127708967 -1995267939 221863165 1010165842 -693084379 -926412925 858203796 923565168 -1755665362 1744423388 -1588696528 743240577 182243640 1753383131 1124725262 1439443678 1183847738 124392682 599163389 976763921 929229705 2009200825 -676909256 -1858427969 -488737400 -1334619121
REM
CELL 1.54180   50.00000   50.00000   50.00000   90.00000   90.00000   90.00000
LATT -1
SFAC C  
C      1  0.4419600000000  0.4585400000000  0.4494040000000 1.0
C      1  0.4583450000000  0.4956370000000  0.5127800000000 1.0
C      1  0.5010750000000  0.5094260000000  0.4909120000000 1.0
C      1  0.5834510000000  0.4651250000000  0.4829390000000 1.0
C      1  0.4762950000000  0.4915200000000  0.5718590000000 1.0
C      1  0.5478030000000  0.4927590000000  0.5087550000000 1.0
C      1  0.4335370000000  0.5203200000000  0.4624570000000 1.0
C      1  0.4432520000000  0.4824840000000  0.4343280000000 1.0
C      1  0.5015490000000  0.4841820000000  0.5096470000000 1.0
C      1  0.4785120000000  0.5093320000000  0.4499270000000 1.0
C      1  0.4136490000000  0.5109870000000  0.5082530000000 1.0
C      1  0.5589950000000  0.4499220000000  0.4818080000000 1.0
C      1  0.5351040000000  0.5290390000000  0.4417860000000 1.0
C      1  0.4247580000000  0.5438280000000  0.4751700000000 1.0
C      1  0.4377520000000  0.5211820000000  0.5504750000000 1.0
C      1  0.4716010000000  0.5655240000000  0.4776430000000 1.0
C      1  0.5738650000000  0.5345820000000  0.5051780000000 1.0
C      1  0.4594560000000  0.5107550000000  0.4719810000000 1.0
C      1  0.4544220000000  0.4828730000000  0.4850750000000 1.0
C      1  0.4949230000000  0.5611820000000  0.4972490000000 1.0
C      1  0.5037360000000  0.4362400000000  0.5332790000000 1.0
C      1  0.4728110000000  0.5186070000000  0.4990450000000 1.0
C      1  0.5440840000000  0.4640890000000  0.5643270000000 1.0
C      1  0.4867780000000  0.5360350000000  0.4385080000000 1.0
C      1  0.5941850000000  0.4943870000000  0.5224560000000 1.0
C      1  0.4172760000000  0.4583450000000  0.4944650000000 1.0
C      1  0.4409360000000  0.5481610000000  0.5400510000000 1.0
C      1  0.5776500000000  0.4963580000000  0.5473960000000 1.0
C      1  0.5031280000000  0.4975280000000  0.4639300000000 1.0
C      1  0.5180960000000  0.4698760000000  0.5694470000000 1.0
C      1  0.5945320000000  0.5147920000000  0.5032980000000 1.0
C      1  0.4659140000000  0.4457280000000  0.4581340000000 1.0
C      1  0.5399670000000  0.5385360000000  0.4683680000000 1.0
C      1  0.4274610000000  0.4715380000000  0.4723550000000 1.0
C      1  0.5423590000000  0.4623010000000  0.4614790000000 1.0
C      1  0.4753850000000  0.4761200000000  0.5254160000000 1.0
C      1  0.5041040000000  0.4963480000000  0.5725950000000 1.0
C      1  0.5153470000000  0.5000330000000  0.4203020000000 1.0
C      1  0.4983080000000  0.4580520000000  0.4385500000000 1.0
C      1  0.4719410000000  0.4564030000000  0.4853040000000 1.0
C      1  0.4610470000000  0.5149010000000  0.5669470000000 1.0
C      1  0.4286230000000  0.4727140000000  0.5368390000000 1.0
C      1  0.5808370000000  0.4870680000000  0.4644580000000 1.0
C      1  0.5298550000000  0.5685800000000  0.5272650000000 1.0
C      1  0.4826850000000  0.5421170000000  0.5180940000000 1.0
C      1  0.5174170000000  0.5375110000000  0.4893910000000 1.0
C      1  0.5908120000000  0.4681690000000  0.5105900000000 1.0
C      1  0.5412790000000  0.5014310000000  0.4331590000000 1.0
C      1  0.5102260000000  0.5810960000000  0.5124560000000 1.0
C      1  0.5270580000000  0.4780510000000  0.5204660000000 1.0
C      1  0.4135500000000  0.5373070000000  0.5018150000000 1.0
C      1  0.5391700000000  0.5624580000000  0.5526910000000 1.0
C      1  0.5226290000000  0.4473520000000  0.5133340000000 1.0
C      1  0.4236670000000  0.4958650000000  0.4531160000000 1.0
C      1  0.5285920000000  0.5387850000000  0.5166040000000 1.0
C      1  0.4834900000000  0.4356300000000  0.4397490000000 1.0
C      1  0.4790250000000  0.4290500000000  0.5251950000000 1.0
C      1  0.4689860000000  0.4926310000000  0.4280950000000 1.0
C      1  0.4632020000000  0.4490370000000  0.5133660000000 1.0
C      1  0.5662090000000  0.5342320000000  0.4773930000000 1.0
C      1  0.5392820000000  0.5356790000000  0.5622020000000 1.0
C      1  0.5509790000000  0.4423090000000  0.5079950000000 1.0
C      1  0.4686960000000  0.5511260000000  0.5429560000000 1.0
C      1  0.5665170000000  0.4692170000000  0.5505260000000 1.0
C      1  0.4327750000000  0.4551010000000  0.5171720000000 1.0
C      1  0.5091600000000  0.5238240000000  0.5612210000000 1.0
C      1  0.5055400000000  0.5299880000000  0.5320660000000 1.0
C      1  0.4985550000000  0.4522530000000  0.5576760000000 1.0
C      1  0.4803330000000  0.5349940000000  0.5639600000000 1.0
C      1  0.5717070000000  0.4537070000000  0.5258970000000 1.0
C      1  0.5567080000000  0.4828830000000  0.4484820000000 1.0
C      1  0.5857160000000  0.5122790000000  0.4756430000000 1.0
C      1  0.5593840000000  0.5194670000000  0.5482530000000 1.0
C      1  0.5019220000000  0.4599240000000  0.4895400000000 1.0
C      1  0.4321880000000  0.5564970000000  0.5141110000000 1.0
C      1  0.4306880000000  0.5009230000000  0.5293790000000 1.0
C      1  0.5519280000000  0.5225630000000  0.5202030000000 1.0
C      1  0.4755990000000  0.4688940000000  0.5548690000000 1.0
C      1  0.4943910000000  0.4810790000000  0.4206920000000 1.0
C      1  0.4767480000000  0.5563450000000  0.4526190000000 1.0
C      1  0.5132180000000  0.4673970000000  0.4633450000000 1.0
C      1  0.5109870000000  0.5290700000000  0.4260940000000 1.0
C      1  0.4443170000000  0.5618180000000  0.4877440000000 1.0
END
