TITL C-142166-2757-4 -0.10195464723968 125000 -867.841177896177 0 0 125 (C1) n - 1
REM
REM in /rds/project/t2_vol4/rds-t2-cs072/BORA/CARBON/from-Arr/AIRSS/Generating-Clusters/GAP-ML-2020/Only-C1/SD-CG/HFTN-CG
REM
REM
REM
REM
REM
REM ./C.cell (11c1c37f851c82e70ff6c80c92926a4b)
REM AIRSS Version 0.9.1 bugfix July 2018 build 013d7b7c2542+ Fri, 06 Jul 2018 19:26:36 +0100
REM compiler GCC version 9.3.0
REM options -cpp -mtune=generic -march=x86-64 -g -O0
REM seed -2110308592 -1664772120 361521913 -1331050372 -1664748402 -2085863221 -478427253 -2130467901 544079739 -1927395750 -2018527921 -714574525 1176104387 -1778243132 -1686267677 -1757777717 -1052512694 -1138201473 1927713581 725804647 218950502 1289446206 -1195222582 -635077978 -34853820 -1956394533 168250348 1601987228 16905979 -1527479306 -4229840 -987399271 -1749197776
REM
CELL 1.54180   50.00000   50.00000   50.00000   90.00000   90.00000   90.00000
LATT -1
SFAC C  
C      1  0.4995410000000  0.5220410000000  0.5873830000000 1.0
C      1  0.5767740000000  0.4788000000000  0.4491030000000 1.0
C      1  0.5225050000000  0.4189110000000  0.5275420000000 1.0
C      1  0.5013370000000  0.5098210000000  0.4765140000000 1.0
C      1  0.4486330000000  0.5435160000000  0.4471060000000 1.0
C      1  0.5448910000000  0.4350720000000  0.5334170000000 1.0
C      1  0.4521170000000  0.4979370000000  0.4246350000000 1.0
C      1  0.5965300000000  0.4925390000000  0.5054150000000 1.0
C      1  0.4543740000000  0.4986770000000  0.5745090000000 1.0
C      1  0.4632030000000  0.4851970000000  0.4606770000000 1.0
C      1  0.4694090000000  0.5626880000000  0.4534420000000 1.0
C      1  0.5169380000000  0.4444390000000  0.4200450000000 1.0
C      1  0.5262620000000  0.4250000000000  0.4394340000000 1.0
C      1  0.5196230000000  0.5910450000000  0.5380920000000 1.0
C      1  0.4602610000000  0.5248170000000  0.4271870000000 1.0
C      1  0.5145110000000  0.4871550000000  0.4660020000000 1.0
C      1  0.5444760000000  0.5506400000000  0.4537480000000 1.0
C      1  0.5484120000000  0.5243060000000  0.5764220000000 1.0
C      1  0.5788750000000  0.4997400000000  0.4304620000000 1.0
C      1  0.5422810000000  0.4971400000000  0.5798060000000 1.0
C      1  0.5417080000000  0.5431660000000  0.5318740000000 1.0
C      1  0.4579580000000  0.5240350000000  0.4858520000000 1.0
C      1  0.4505520000000  0.5503140000000  0.5710910000000 1.0
C      1  0.4490960000000  0.4140690000000  0.4940330000000 1.0
C      1  0.5221970000000  0.5405320000000  0.5783370000000 1.0
C      1  0.4251700000000  0.5498690000000  0.4954650000000 1.0
C      1  0.4659170000000  0.4669740000000  0.4831750000000 1.0
C      1  0.4934930000000  0.5561410000000  0.4388420000000 1.0
C      1  0.5825880000000  0.4920340000000  0.4789700000000 1.0
C      1  0.5371470000000  0.5242740000000  0.5060200000000 1.0
C      1  0.4534580000000  0.5724520000000  0.5531640000000 1.0
C      1  0.4942350000000  0.4039780000000  0.4915380000000 1.0
C      1  0.5106230000000  0.4504330000000  0.5610430000000 1.0
C      1  0.4898670000000  0.4341660000000  0.4247490000000 1.0
C      1  0.5894180000000  0.5386890000000  0.4952830000000 1.0
C      1  0.4936530000000  0.5896010000000  0.4941200000000 1.0
C      1  0.5062980000000  0.4729850000000  0.5142170000000 1.0
C      1  0.5624710000000  0.5707140000000  0.4669580000000 1.0
C      1  0.5398900000000  0.4994720000000  0.4673490000000 1.0
C      1  0.5569710000000  0.4772090000000  0.5652200000000 1.0
C      1  0.4240890000000  0.5370000000000  0.5245960000000 1.0
C      1  0.4031030000000  0.4911080000000  0.4800180000000 1.0
C      1  0.4591080000000  0.5052830000000  0.5087100000000 1.0
C      1  0.4091370000000  0.4627940000000  0.4775280000000 1.0
C      1  0.5197860000000  0.4135010000000  0.4994580000000 1.0
C      1  0.4117200000000  0.4498720000000  0.5034300000000 1.0
C      1  0.4340890000000  0.4883240000000  0.4468400000000 1.0
C      1  0.5592670000000  0.4356600000000  0.5083710000000 1.0
C      1  0.4147480000000  0.4618710000000  0.5302370000000 1.0
C      1  0.5467120000000  0.4974070000000  0.5127110000000 1.0
C      1  0.5222360000000  0.5910050000000  0.5662700000000 1.0
C      1  0.4455090000000  0.5686570000000  0.4949170000000 1.0
C      1  0.4489150000000  0.4195880000000  0.5496850000000 1.0
C      1  0.5151120000000  0.5050580000000  0.5499280000000 1.0
C      1  0.4389410000000  0.4427760000000  0.5360790000000 1.0
C      1  0.4459550000000  0.4382540000000  0.4482430000000 1.0
C      1  0.5185020000000  0.5362840000000  0.5487720000000 1.0
C      1  0.5839540000000  0.5251770000000  0.4441120000000 1.0
C      1  0.4993830000000  0.4286780000000  0.5428550000000 1.0
C      1  0.5317010000000  0.4982570000000  0.4120940000000 1.0
C      1  0.5940610000000  0.5190980000000  0.5164530000000 1.0
C      1  0.4732050000000  0.5277460000000  0.5480620000000 1.0
C      1  0.4311980000000  0.4296340000000  0.5086180000000 1.0
C      1  0.5070550000000  0.5207810000000  0.5021760000000 1.0
C      1  0.5586970000000  0.5820050000000  0.5045300000000 1.0
C      1  0.5778190000000  0.5646530000000  0.4916910000000 1.0
C      1  0.5893260000000  0.4731670000000  0.5256420000000 1.0
C      1  0.5182860000000  0.5830140000000  0.4751840000000 1.0
C      1  0.4871670000000  0.5027520000000  0.5431510000000 1.0
C      1  0.4994540000000  0.4135750000000  0.4428420000000 1.0
C      1  0.5557840000000  0.5120070000000  0.4166380000000 1.0
C      1  0.5035790000000  0.4845850000000  0.4365540000000 1.0
C      1  0.5549550000000  0.4607010000000  0.4428640000000 1.0
C      1  0.5548330000000  0.4853530000000  0.4879780000000 1.0
C      1  0.4626680000000  0.4626960000000  0.5345290000000 1.0
C      1  0.4477060000000  0.5191370000000  0.5334530000000 1.0
C      1  0.5792210000000  0.4871140000000  0.5492100000000 1.0
C      1  0.4751140000000  0.5106230000000  0.4677120000000 1.0
C      1  0.5287960000000  0.4838930000000  0.5310270000000 1.0
C      1  0.5628510000000  0.5324120000000  0.5530510000000 1.0
C      1  0.4137710000000  0.4884860000000  0.5410040000000 1.0
C      1  0.5380300000000  0.4582240000000  0.5508090000000 1.0
C      1  0.5248030000000  0.5699580000000  0.5808750000000 1.0
C      1  0.4721100000000  0.4057670000000  0.5096490000000 1.0
C      1  0.4938930000000  0.5934200000000  0.5235360000000 1.0
C      1  0.4733180000000  0.4769580000000  0.4329950000000 1.0
C      1  0.4831330000000  0.4067540000000  0.4645300000000 1.0
C      1  0.3944490000000  0.5040950000000  0.5023010000000 1.0
C      1  0.4320010000000  0.5319360000000  0.4711890000000 1.0
C      1  0.5307580000000  0.4696870000000  0.4237680000000 1.0
C      1  0.5461090000000  0.5897860000000  0.4794360000000 1.0
C      1  0.4666050000000  0.4486070000000  0.4304470000000 1.0
C      1  0.4694370000000  0.5755790000000  0.4801950000000 1.0
C      1  0.5475310000000  0.5270740000000  0.4756150000000 1.0
C      1  0.5126110000000  0.4959800000000  0.5802760000000 1.0
C      1  0.4685170000000  0.5492640000000  0.4964100000000 1.0
C      1  0.5061360000000  0.5095480000000  0.4198610000000 1.0
C      1  0.4555530000000  0.4162420000000  0.4656880000000 1.0
C      1  0.4182670000000  0.5070020000000  0.4619800000000 1.0
C      1  0.4266300000000  0.4592630000000  0.4547290000000 1.0
C      1  0.4734680000000  0.4124600000000  0.5378660000000 1.0
C      1  0.5828920000000  0.5156830000000  0.5431830000000 1.0
C      1  0.4351630000000  0.5010140000000  0.5543310000000 1.0
C      1  0.5177210000000  0.5649070000000  0.4517490000000 1.0
C      1  0.5130280000000  0.5681440000000  0.5022280000000 1.0
C      1  0.5805390000000  0.5217400000000  0.4728940000000 1.0
C      1  0.4921340000000  0.5481220000000  0.5382210000000 1.0
C      1  0.4971360000000  0.4711310000000  0.5746050000000 1.0
C      1  0.5608770000000  0.5368890000000  0.4315670000000 1.0
C      1  0.5378330000000  0.4348620000000  0.4861940000000 1.0
C      1  0.4880070000000  0.4511860000000  0.4811780000000 1.0
C      1  0.5362690000000  0.5722520000000  0.5217160000000 1.0
C      1  0.4892920000000  0.4989410000000  0.5145750000000 1.0
C      1  0.4562950000000  0.4774220000000  0.5077600000000 1.0
C      1  0.4897580000000  0.4528440000000  0.5289890000000 1.0
C      1  0.5128740000000  0.4625140000000  0.4859080000000 1.0
C      1  0.4948530000000  0.5460230000000  0.5089840000000 1.0
C      1  0.4319880000000  0.5549230000000  0.5492600000000 1.0
C      1  0.5446880000000  0.4373250000000  0.4570650000000 1.0
C      1  0.4883150000000  0.5318350000000  0.4230570000000 1.0
C      1  0.4788400000000  0.5755910000000  0.5400600000000 1.0
C      1  0.4688960000000  0.5256170000000  0.5775140000000 1.0
C      1  0.5804320000000  0.4493880000000  0.5169410000000 1.0
C      1  0.4723580000000  0.4811330000000  0.5593570000000 1.0
C      1  0.4052790000000  0.5123380000000  0.5250430000000 1.0
END
