TITL C-140206-7092-3 19.3168658417536 125000 -907.479896310991 0 0 130 (C1) n - 1
REM
REM in /rds/project/t2_vol4/rds-t2-cs072/BORA/CARBON/from-Arr/AIRSS/Generating-Clusters/GAP-ML-2020/Only-C1/SD-CG/HFTN-CG
REM
REM
REM
REM
REM
REM ./C.cell (11c1c37f851c82e70ff6c80c92926a4b)
REM AIRSS Version 0.9.1 bugfix July 2018 build 013d7b7c2542+ Fri, 06 Jul 2018 19:26:36 +0100
REM compiler GCC version 9.3.0
REM options -cpp -mtune=generic -march=x86-64 -g -O0
REM seed 1095401479 43547549 492327026 -503595226 564150282 153216879 1545706615 -380239584 -2110181571 -893564907 1522774685 -817774885 1709140471 -639915309 -25833673 -846637871 1515022314 -1951865574 1248830094 1141588293 -294839755 1614537304 -1511106414 276498293 -1337064975 1848318814 -1355442803 -417062836 979764804 -85683498 2136724326 -1574923956 1891235481
REM
CELL 1.54180   50.00000   50.00000   50.00000   90.00000   90.00000   90.00000
LATT -1
SFAC C  
C      1  0.5852120000000  0.5302470000000  0.5342710000000 1.0
C      1  0.4910630000000  0.5547660000000  0.5848720000000 1.0
C      1  0.4712350000000  0.5154520000000  0.5252430000000 1.0
C      1  0.4875680000000  0.4099080000000  0.4927540000000 1.0
C      1  0.5337970000000  0.5779680000000  0.5500260000000 1.0
C      1  0.4712550000000  0.4134440000000  0.4700400000000 1.0
C      1  0.5213830000000  0.5196700000000  0.5946300000000 1.0
C      1  0.4968910000000  0.4760790000000  0.4033880000000 1.0
C      1  0.5423150000000  0.4108560000000  0.5229680000000 1.0
C      1  0.4925710000000  0.5366200000000  0.5328020000000 1.0
C      1  0.4244770000000  0.4593910000000  0.5425680000000 1.0
C      1  0.5180550000000  0.4960420000000  0.4063700000000 1.0
C      1  0.5289080000000  0.5098290000000  0.5172500000000 1.0
C      1  0.4378660000000  0.4562450000000  0.4422740000000 1.0
C      1  0.4738250000000  0.5455270000000  0.4907810000000 1.0
C      1  0.5436120000000  0.4357960000000  0.5404070000000 1.0
C      1  0.5694220000000  0.4519710000000  0.5389980000000 1.0
C      1  0.5144560000000  0.4287820000000  0.5554840000000 1.0
C      1  0.4574480000000  0.5629520000000  0.4471090000000 1.0
C      1  0.3939530000000  0.5032130000000  0.4908540000000 1.0
C      1  0.4491970000000  0.5208330000000  0.5762600000000 1.0
C      1  0.4416210000000  0.4969170000000  0.4721350000000 1.0
C      1  0.5291620000000  0.4433220000000  0.4138820000000 1.0
C      1  0.4861210000000  0.4915200000000  0.5345100000000 1.0
C      1  0.4875780000000  0.4202180000000  0.4473150000000 1.0
C      1  0.5773010000000  0.5378050000000  0.4618960000000 1.0
C      1  0.4296640000000  0.4346840000000  0.5300060000000 1.0
C      1  0.5134840000000  0.4226880000000  0.4883920000000 1.0
C      1  0.4758810000000  0.4844810000000  0.5913170000000 1.0
C      1  0.5710300000000  0.4827620000000  0.5021080000000 1.0
C      1  0.5068710000000  0.4496520000000  0.5725970000000 1.0
C      1  0.4366140000000  0.4844780000000  0.4443530000000 1.0
C      1  0.4865850000000  0.5777520000000  0.5674820000000 1.0
C      1  0.4313660000000  0.5266870000000  0.4719410000000 1.0
C      1  0.5457050000000  0.5067500000000  0.5872340000000 1.0
C      1  0.5557100000000  0.5715380000000  0.5294900000000 1.0
C      1  0.3939740000000  0.4784990000000  0.4834160000000 1.0
C      1  0.4149020000000  0.4602650000000  0.4832220000000 1.0
C      1  0.4428600000000  0.5081230000000  0.5330200000000 1.0
C      1  0.4278330000000  0.4417490000000  0.4649090000000 1.0
C      1  0.4644760000000  0.5885580000000  0.5166390000000 1.0
C      1  0.5305780000000  0.5225970000000  0.4907440000000 1.0
C      1  0.5878120000000  0.5050420000000  0.4923960000000 1.0
C      1  0.5656180000000  0.4826130000000  0.5496950000000 1.0
C      1  0.5468630000000  0.4826140000000  0.5720990000000 1.0
C      1  0.5185160000000  0.5479290000000  0.5893420000000 1.0
C      1  0.4755480000000  0.5304030000000  0.5855790000000 1.0
C      1  0.5630270000000  0.5487660000000  0.5702690000000 1.0
C      1  0.4837750000000  0.4708870000000  0.4737280000000 1.0
C      1  0.4589130000000  0.5245500000000  0.4295130000000 1.0
C      1  0.5065330000000  0.5208590000000  0.4484550000000 1.0
C      1  0.5136980000000  0.4309070000000  0.4590470000000 1.0
C      1  0.5504820000000  0.4483810000000  0.4295490000000 1.0
C      1  0.5482330000000  0.4863460000000  0.5231170000000 1.0
C      1  0.4482920000000  0.4280140000000  0.4815120000000 1.0
C      1  0.5751530000000  0.4852230000000  0.4525010000000 1.0
C      1  0.5360270000000  0.5747080000000  0.4799190000000 1.0
C      1  0.4629100000000  0.4556510000000  0.4901210000000 1.0
C      1  0.4945960000000  0.5075610000000  0.5859830000000 1.0
C      1  0.5296610000000  0.4612490000000  0.5315030000000 1.0
C      1  0.5776510000000  0.5502660000000  0.4890340000000 1.0
C      1  0.5158000000000  0.5659440000000  0.4362180000000 1.0
C      1  0.4990500000000  0.4105460000000  0.5385420000000 1.0
C      1  0.5159220000000  0.5244320000000  0.4186470000000 1.0
C      1  0.5406940000000  0.5655160000000  0.4491460000000 1.0
C      1  0.4451470000000  0.4215960000000  0.5124500000000 1.0
C      1  0.4790890000000  0.4478610000000  0.5156890000000 1.0
C      1  0.4340640000000  0.5277890000000  0.5521730000000 1.0
C      1  0.5401110000000  0.4122790000000  0.4946660000000 1.0
C      1  0.4522660000000  0.4967140000000  0.4231860000000 1.0
C      1  0.5575530000000  0.5438780000000  0.4414950000000 1.0
C      1  0.4716550000000  0.4989090000000  0.4719370000000 1.0
C      1  0.5730500000000  0.5539720000000  0.5440820000000 1.0
C      1  0.5184980000000  0.5496860000000  0.4874050000000 1.0
C      1  0.4204220000000  0.5466980000000  0.5092040000000 1.0
C      1  0.4808770000000  0.5612180000000  0.4656690000000 1.0
C      1  0.5884670000000  0.5298100000000  0.5063730000000 1.0
C      1  0.4618470000000  0.4564950000000  0.5628190000000 1.0
C      1  0.4402230000000  0.5387370000000  0.4466420000000 1.0
C      1  0.4618390000000  0.5928680000000  0.4882530000000 1.0
C      1  0.4419220000000  0.5503770000000  0.4890370000000 1.0
C      1  0.5253400000000  0.5070780000000  0.4676320000000 1.0
C      1  0.5084850000000  0.4735180000000  0.4926020000000 1.0
C      1  0.5622400000000  0.4761450000000  0.4284160000000 1.0
C      1  0.5051140000000  0.4984410000000  0.5568410000000 1.0
C      1  0.4393320000000  0.4796810000000  0.5247180000000 1.0
C      1  0.4371780000000  0.4691480000000  0.5688290000000 1.0
C      1  0.4812020000000  0.4341030000000  0.4232820000000 1.0
C      1  0.4686010000000  0.4674940000000  0.5346760000000 1.0
C      1  0.4439730000000  0.5761770000000  0.4730030000000 1.0
C      1  0.5063050000000  0.5849620000000  0.5471520000000 1.0
C      1  0.4871580000000  0.5901920000000  0.4748640000000 1.0
C      1  0.4610390000000  0.5799530000000  0.5591740000000 1.0
C      1  0.4818660000000  0.4579700000000  0.5829570000000 1.0
C      1  0.5576250000000  0.4221920000000  0.4747720000000 1.0
C      1  0.5206210000000  0.3955380000000  0.5314630000000 1.0
C      1  0.5456330000000  0.5249030000000  0.4228660000000 1.0
C      1  0.5710600000000  0.4443730000000  0.4859400000000 1.0
C      1  0.4728430000000  0.5504500000000  0.4218000000000 1.0
C      1  0.4492570000000  0.4919550000000  0.5821340000000 1.0
C      1  0.5071630000000  0.4619870000000  0.4563310000000 1.0
C      1  0.5218710000000  0.4726890000000  0.5608320000000 1.0
C      1  0.4799780000000  0.5159420000000  0.4951920000000 1.0
C      1  0.5846310000000  0.5098600000000  0.4640130000000 1.0
C      1  0.4794170000000  0.5120860000000  0.4480650000000 1.0
C      1  0.5388480000000  0.5623570000000  0.5744490000000 1.0
C      1  0.5616130000000  0.4713750000000  0.4753300000000 1.0
C      1  0.5285460000000  0.4780380000000  0.4703550000000 1.0
C      1  0.5003340000000  0.5512650000000  0.4157750000000 1.0
C      1  0.4958700000000  0.5550930000000  0.5092040000000 1.0
C      1  0.5169920000000  0.5222330000000  0.5409570000000 1.0
C      1  0.4684390000000  0.4768420000000  0.4106260000000 1.0
C      1  0.4284690000000  0.5516370000000  0.5363290000000 1.0
C      1  0.4464420000000  0.5759750000000  0.5365610000000 1.0
C      1  0.5426800000000  0.4295170000000  0.4507190000000 1.0
C      1  0.4928560000000  0.5829540000000  0.5217540000000 1.0
C      1  0.5799480000000  0.5089590000000  0.5539140000000 1.0
C      1  0.4588130000000  0.4515280000000  0.4217800000000 1.0
C      1  0.4761220000000  0.4179270000000  0.5184290000000 1.0
C      1  0.5060180000000  0.5487890000000  0.4592060000000 1.0
C      1  0.5463960000000  0.4961590000000  0.4148350000000 1.0
C      1  0.5775890000000  0.4545770000000  0.5117830000000 1.0
C      1  0.5034160000000  0.4480600000000  0.4092850000000 1.0
C      1  0.5031930000000  0.4965500000000  0.5089030000000 1.0
C      1  0.5095010000000  0.4503360000000  0.5095660000000 1.0
C      1  0.5132970000000  0.5943460000000  0.4780510000000 1.0
C      1  0.4383490000000  0.4747200000000  0.4942690000000 1.0
C      1  0.5671580000000  0.5217880000000  0.5764200000000 1.0
C      1  0.4068100000000  0.5277230000000  0.4910110000000 1.0
C      1  0.5587390000000  0.5704790000000  0.4999850000000 1.0
END
