TITL C-142788-1117-2 -0.127538017103301 125000 -588.076964600791 0 0 83 (C1) n - 1
REM
REM in /rds/project/t2_vol4/rds-t2-cs072/BORA/CARBON/from-Arr/AIRSS/Generating-Clusters/GAP-ML-2020/Only-C1/SD-CG/HFTN-CG
REM
REM
REM
REM
REM
REM ./C.cell (11c1c37f851c82e70ff6c80c92926a4b)
REM AIRSS Version 0.9.1 bugfix July 2018 build 013d7b7c2542+ Fri, 06 Jul 2018 19:26:36 +0100
REM compiler GCC version 9.3.0
REM options -cpp -mtune=generic -march=x86-64 -g -O0
REM seed -1796158324 -1569665768 88741999 -751159298 1004501739 739855543 1495606481 1039959998 999191563 70220797 1474134181 1176306675 -1821122498 1077288329 721006614 88153107 417845589 291929828 -924821199 1098206603 912377837 -257834078 -103170444 -241768662 925214719 1520998851 863077685 448344209 1347179979 1112203099 902081119 2020654928 -1510485004
REM
CELL 1.54180   50.00000   50.00000   50.00000   90.00000   90.00000   90.00000
LATT -1
SFAC C  
C      1  0.5524160000000  0.5364830000000  0.5544480000000 1.0
C      1  0.4188180000000  0.5328890000000  0.5038950000000 1.0
C      1  0.4590380000000  0.5395850000000  0.4696930000000 1.0
C      1  0.5458110000000  0.5099920000000  0.5673670000000 1.0
C      1  0.4760190000000  0.5735800000000  0.5019130000000 1.0
C      1  0.5115440000000  0.4524500000000  0.5192110000000 1.0
C      1  0.5494920000000  0.4629510000000  0.5475930000000 1.0
C      1  0.5183200000000  0.5026420000000  0.5028240000000 1.0
C      1  0.4881100000000  0.4710300000000  0.4239780000000 1.0
C      1  0.5023770000000  0.4964570000000  0.4327000000000 1.0
C      1  0.4801570000000  0.5283370000000  0.4093940000000 1.0
C      1  0.4211250000000  0.4887230000000  0.4916550000000 1.0
C      1  0.5509750000000  0.4946850000000  0.4346960000000 1.0
C      1  0.5026090000000  0.5484780000000  0.4746280000000 1.0
C      1  0.5287090000000  0.4813420000000  0.4255090000000 1.0
C      1  0.4685290000000  0.5731480000000  0.5295010000000 1.0
C      1  0.4588040000000  0.5160880000000  0.4190120000000 1.0
C      1  0.4230200000000  0.5188600000000  0.5281300000000 1.0
C      1  0.5144850000000  0.4574150000000  0.4286170000000 1.0
C      1  0.5456130000000  0.4658200000000  0.4801720000000 1.0
C      1  0.5105590000000  0.4237600000000  0.5062940000000 1.0
C      1  0.5353980000000  0.4393630000000  0.4701830000000 1.0
C      1  0.4965150000000  0.4926060000000  0.5733480000000 1.0
C      1  0.4860010000000  0.4175460000000  0.4962290000000 1.0
C      1  0.5257250000000  0.5655810000000  0.5126630000000 1.0
C      1  0.5288920000000  0.5360120000000  0.4339250000000 1.0
C      1  0.5836930000000  0.4963440000000  0.5455430000000 1.0
C      1  0.4737810000000  0.4567030000000  0.5572160000000 1.0
C      1  0.5219490000000  0.4571700000000  0.5474560000000 1.0
C      1  0.4684040000000  0.4331730000000  0.4820370000000 1.0
C      1  0.4542930000000  0.4772520000000  0.5582620000000 1.0
C      1  0.4840770000000  0.5249020000000  0.4760470000000 1.0
C      1  0.5101010000000  0.5378080000000  0.5736570000000 1.0
C      1  0.5527820000000  0.5462920000000  0.4776930000000 1.0
C      1  0.5050450000000  0.5237710000000  0.4212630000000 1.0
C      1  0.4544720000000  0.5613870000000  0.4870720000000 1.0
C      1  0.4399760000000  0.5356460000000  0.5458710000000 1.0
C      1  0.5490390000000  0.4903310000000  0.4639030000000 1.0
C      1  0.5783360000000  0.4955200000000  0.5001300000000 1.0
C      1  0.5362480000000  0.4220860000000  0.4933480000000 1.0
C      1  0.4679550000000  0.4419510000000  0.5339230000000 1.0
C      1  0.5002950000000  0.4659850000000  0.5640320000000 1.0
C      1  0.5502800000000  0.5515260000000  0.5057910000000 1.0
C      1  0.5182420000000  0.5111700000000  0.5762910000000 1.0
C      1  0.5306160000000  0.5100180000000  0.5248130000000 1.0
C      1  0.4432390000000  0.4485230000000  0.5207120000000 1.0
C      1  0.5620780000000  0.4515640000000  0.5231260000000 1.0
C      1  0.4448700000000  0.4469780000000  0.4918840000000 1.0
C      1  0.4465930000000  0.4767400000000  0.4502870000000 1.0
C      1  0.4844140000000  0.4618250000000  0.5208900000000 1.0
C      1  0.4434120000000  0.5599900000000  0.5316030000000 1.0
C      1  0.4617150000000  0.5279600000000  0.5634280000000 1.0
C      1  0.5191470000000  0.4715710000000  0.4962620000000 1.0
C      1  0.4859870000000  0.5093410000000  0.5059340000000 1.0
C      1  0.5299750000000  0.5521880000000  0.5591200000000 1.0
C      1  0.4371100000000  0.5229280000000  0.4609000000000 1.0
C      1  0.5552830000000  0.4272430000000  0.5124490000000 1.0
C      1  0.4223190000000  0.4909340000000  0.5205840000000 1.0
C      1  0.4842930000000  0.4494010000000  0.4627980000000 1.0
C      1  0.4937860000000  0.4746220000000  0.4784970000000 1.0
C      1  0.4354890000000  0.4714170000000  0.5355510000000 1.0
C      1  0.4330700000000  0.5568260000000  0.5049800000000 1.0
C      1  0.4683490000000  0.4616170000000  0.4409140000000 1.0
C      1  0.5541310000000  0.5230270000000  0.4346950000000 1.0
C      1  0.4767770000000  0.4830030000000  0.5021180000000 1.0
C      1  0.4841860000000  0.5457310000000  0.5655330000000 1.0
C      1  0.5800450000000  0.5123140000000  0.5238210000000 1.0
C      1  0.4451530000000  0.5043450000000  0.4403950000000 1.0
C      1  0.4349450000000  0.4689000000000  0.4762300000000 1.0
C      1  0.5127040000000  0.4424790000000  0.4525300000000 1.0
C      1  0.5691600000000  0.5300870000000  0.4612890000000 1.0
C      1  0.5168900000000  0.5672430000000  0.5395700000000 1.0
C      1  0.5645330000000  0.5371680000000  0.5277600000000 1.0
C      1  0.5251600000000  0.5084650000000  0.4725820000000 1.0
C      1  0.5026880000000  0.5672740000000  0.4947480000000 1.0
C      1  0.5669760000000  0.4688820000000  0.5009620000000 1.0
C      1  0.5610220000000  0.4874860000000  0.5580850000000 1.0
C      1  0.5271910000000  0.5390140000000  0.4639980000000 1.0
C      1  0.4685820000000  0.5005440000000  0.5682540000000 1.0
C      1  0.4200440000000  0.5153160000000  0.4816900000000 1.0
C      1  0.4888560000000  0.5667380000000  0.5469010000000 1.0
C      1  0.4986840000000  0.4998890000000  0.4623650000000 1.0
C      1  0.5725000000000  0.5055660000000  0.4746270000000 1.0
END
