TITL C-141414-3327-2 0.152177352543504 125000 -562.334337522963 0 0 81 (C1) n - 1
REM
REM in /rds/project/t2_vol4/rds-t2-cs072/BORA/CARBON/from-Arr/AIRSS/Generating-Clusters/GAP-ML-2020/Only-C1/SD-CG/HFTN-CG
REM
REM
REM
REM
REM
REM ./C.cell (11c1c37f851c82e70ff6c80c92926a4b)
REM AIRSS Version 0.9.1 bugfix July 2018 build 013d7b7c2542+ Fri, 06 Jul 2018 19:26:36 +0100
REM compiler GCC version 9.3.0
REM options -cpp -mtune=generic -march=x86-64 -g -O0
REM seed -1764101491 642497116 -195992294 1008398798 -592607204 235222801 1447243351 -1505533009 536535992 -1515987474 -1667603773 543816379 536679245 -253212485 371396874 2078679488 862845060 1706575558 -1030802948 -1809582291 -56493562 1278816646 1002840763 1019620086 1439679521 -1455820144 -972852438 -381302022 -1911959220 -636414137 1698447193 1448305658 1392724119
REM
CELL 1.54180   50.00000   50.00000   50.00000   90.00000   90.00000   90.00000
LATT -1
SFAC C  
C      1  0.5043860000000  0.5656790000000  0.4539100000000 1.0
C      1  0.4466240000000  0.5473230000000  0.5171050000000 1.0
C      1  0.4875300000000  0.4340920000000  0.4988340000000 1.0
C      1  0.4691950000000  0.5513920000000  0.5356620000000 1.0
C      1  0.5484410000000  0.4872830000000  0.4550920000000 1.0
C      1  0.4601410000000  0.4603300000000  0.5697380000000 1.0
C      1  0.4605710000000  0.5617020000000  0.4701450000000 1.0
C      1  0.4934760000000  0.5671260000000  0.5294210000000 1.0
C      1  0.5236010000000  0.5014130000000  0.5770670000000 1.0
C      1  0.4871650000000  0.5708620000000  0.4765110000000 1.0
C      1  0.5283040000000  0.5173770000000  0.4954000000000 1.0
C      1  0.5282280000000  0.4548060000000  0.5565040000000 1.0
C      1  0.5028630000000  0.5698640000000  0.5009770000000 1.0
C      1  0.5146230000000  0.5225710000000  0.4705000000000 1.0
C      1  0.4495210000000  0.5089070000000  0.5412600000000 1.0
C      1  0.4962290000000  0.5004540000000  0.5860270000000 1.0
C      1  0.4762230000000  0.4379850000000  0.5592100000000 1.0
C      1  0.4627050000000  0.4399240000000  0.5124100000000 1.0
C      1  0.4999780000000  0.4853490000000  0.4911370000000 1.0
C      1  0.4649430000000  0.4878350000000  0.5264050000000 1.0
C      1  0.5432170000000  0.5344620000000  0.5406770000000 1.0
C      1  0.5230250000000  0.5169380000000  0.5530250000000 1.0
C      1  0.4569290000000  0.5061000000000  0.4235420000000 1.0
C      1  0.4556060000000  0.4643840000000  0.4512070000000 1.0
C      1  0.5261810000000  0.5194890000000  0.4288490000000 1.0
C      1  0.4620510000000  0.5503260000000  0.4437250000000 1.0
C      1  0.5300230000000  0.5582440000000  0.4633010000000 1.0
C      1  0.5001550000000  0.5272830000000  0.4225590000000 1.0
C      1  0.5649540000000  0.5137360000000  0.5420640000000 1.0
C      1  0.4833750000000  0.4576800000000  0.4509920000000 1.0
C      1  0.4984010000000  0.4829390000000  0.4386020000000 1.0
C      1  0.4249180000000  0.5287110000000  0.4805850000000 1.0
C      1  0.4953460000000  0.5008720000000  0.4646320000000 1.0
C      1  0.5264150000000  0.4471220000000  0.4737260000000 1.0
C      1  0.4332790000000  0.5226230000000  0.5234990000000 1.0
C      1  0.5528530000000  0.4591820000000  0.4617540000000 1.0
C      1  0.5438170000000  0.4920630000000  0.4889850000000 1.0
C      1  0.5346250000000  0.4297310000000  0.5171560000000 1.0
C      1  0.5367760000000  0.5605430000000  0.5556570000000 1.0
C      1  0.5268020000000  0.4914230000000  0.4360350000000 1.0
C      1  0.5723720000000  0.5350070000000  0.4999960000000 1.0
C      1  0.4421600000000  0.4544990000000  0.5468720000000 1.0
C      1  0.5401450000000  0.5331050000000  0.4498390000000 1.0
C      1  0.5075160000000  0.5013280000000  0.5364320000000 1.0
C      1  0.5291380000000  0.5619720000000  0.4928040000000 1.0
C      1  0.4894980000000  0.5506570000000  0.4346570000000 1.0
C      1  0.5788790000000  0.5142790000000  0.5184920000000 1.0
C      1  0.5784470000000  0.5171940000000  0.4781470000000 1.0
C      1  0.4236060000000  0.4916040000000  0.4513810000000 1.0
C      1  0.5446750000000  0.4313210000000  0.4911350000000 1.0
C      1  0.4250990000000  0.5195190000000  0.4542420000000 1.0
C      1  0.4759400000000  0.5156880000000  0.5768690000000 1.0
C      1  0.5150270000000  0.5721870000000  0.5485600000000 1.0
C      1  0.5610010000000  0.4862440000000  0.5505300000000 1.0
C      1  0.5440840000000  0.5406610000000  0.5078330000000 1.0
C      1  0.4462490000000  0.4661610000000  0.5185000000000 1.0
C      1  0.5665150000000  0.4489480000000  0.4853030000000 1.0
C      1  0.4792990000000  0.4825570000000  0.5715230000000 1.0
C      1  0.4451860000000  0.5292500000000  0.4362420000000 1.0
C      1  0.5613890000000  0.5148270000000  0.4567780000000 1.0
C      1  0.5472810000000  0.4442310000000  0.5384120000000 1.0
C      1  0.5759240000000  0.4937450000000  0.4979810000000 1.0
C      1  0.4317650000000  0.4728250000000  0.4707480000000 1.0
C      1  0.4284100000000  0.4800170000000  0.4980440000000 1.0
C      1  0.4573560000000  0.4303790000000  0.5389510000000 1.0
C      1  0.4442850000000  0.4832080000000  0.4331510000000 1.0
C      1  0.5065050000000  0.4335690000000  0.5201280000000 1.0
C      1  0.5775120000000  0.4659800000000  0.5058170000000 1.0
C      1  0.5672480000000  0.4638460000000  0.5330600000000 1.0
C      1  0.4417500000000  0.5509050000000  0.4888970000000 1.0
C      1  0.4843740000000  0.5033350000000  0.4206200000000 1.0
C      1  0.4888560000000  0.4800650000000  0.5437180000000 1.0
C      1  0.4232790000000  0.5086890000000  0.5013140000000 1.0
C      1  0.5044990000000  0.5086650000000  0.5099510000000 1.0
C      1  0.5246870000000  0.4709640000000  0.4944050000000 1.0
C      1  0.4677200000000  0.5063250000000  0.4744870000000 1.0
C      1  0.4969980000000  0.4414410000000  0.4710900000000 1.0
C      1  0.4769860000000  0.5004430000000  0.5020160000000 1.0
C      1  0.4657500000000  0.5286370000000  0.5547400000000 1.0
C      1  0.5006680000000  0.4499880000000  0.5453930000000 1.0
C      1  0.5384260000000  0.4796110000000  0.5670550000000 1.0
END
