TITL C-141720-2962-7 15.0510238668457 125000 -273.105852140805 0 0 42 (C1) n - 1
REM
REM in /rds/project/t2_vol4/rds-t2-cs072/BORA/CARBON/from-Arr/AIRSS/Generating-Clusters/GAP-ML-2020/Only-C1/SD-CG/HFTN-CG
REM
REM
REM
REM
REM
REM ./C.cell (11c1c37f851c82e70ff6c80c92926a4b)
REM AIRSS Version 0.9.1 bugfix July 2018 build 013d7b7c2542+ Fri, 06 Jul 2018 19:26:36 +0100
REM compiler GCC version 9.3.0
REM options -cpp -mtune=generic -march=x86-64 -g -O0
REM seed 1536534615 -1530586814 -1740768355 -899398984 -1915694010 883703068 -568417137 840670275 -501394484 1490241062 1870898589 480491994 242377772 -390714636 -1045087068 -1339042386 -1009898048 -1240259344 66222219 46944912 -645309844 109437101 -902718500 798207346 986128796 1442729274 -1422876132 -771575494 287899919 180414237 -859061431 649036600 1945526468
REM
CELL 1.54180   50.00000   50.00000   50.00000   90.00000   90.00000   90.00000
LATT -1
SFAC C  
C      1  0.5435020000000  0.4984540000000  0.5379420000000 1.0
C      1  0.4497860000000  0.5323110000000  0.5154130000000 1.0
C      1  0.4879240000000  0.4682850000000  0.4912590000000 1.0
C      1  0.4656760000000  0.4879340000000  0.4979060000000 1.0
C      1  0.5143230000000  0.4936870000000  0.5253410000000 1.0
C      1  0.5492500000000  0.4947500000000  0.4627320000000 1.0
C      1  0.5661470000000  0.5049690000000  0.5211880000000 1.0
C      1  0.5414770000000  0.4517710000000  0.5227400000000 1.0
C      1  0.4550400000000  0.4893110000000  0.5260720000000 1.0
C      1  0.5274350000000  0.4904340000000  0.4436040000000 1.0
C      1  0.5186500000000  0.4663270000000  0.4559900000000 1.0
C      1  0.5134040000000  0.4454420000000  0.5258600000000 1.0
C      1  0.5359160000000  0.4723070000000  0.4810860000000 1.0
C      1  0.4945860000000  0.4457130000000  0.5069240000000 1.0
C      1  0.4803730000000  0.5306720000000  0.5192830000000 1.0
C      1  0.5057090000000  0.5105380000000  0.4801150000000 1.0
C      1  0.4727450000000  0.4908940000000  0.5472210000000 1.0
C      1  0.5343370000000  0.5149360000000  0.5626230000000 1.0
C      1  0.5142540000000  0.5398640000000  0.4771090000000 1.0
C      1  0.4522660000000  0.4953260000000  0.4445450000000 1.0
C      1  0.5136450000000  0.4870030000000  0.4963410000000 1.0
C      1  0.5105530000000  0.4678910000000  0.5450480000000 1.0
C      1  0.4360140000000  0.5078490000000  0.5160440000000 1.0
C      1  0.5156360000000  0.5569130000000  0.4992620000000 1.0
C      1  0.4775650000000  0.4881010000000  0.4485600000000 1.0
C      1  0.5750270000000  0.5083950000000  0.4977880000000 1.0
C      1  0.4930540000000  0.5122470000000  0.5389540000000 1.0
C      1  0.4922380000000  0.5545420000000  0.4675150000000 1.0
C      1  0.4385100000000  0.4948720000000  0.4881680000000 1.0
C      1  0.4446460000000  0.5477090000000  0.4929260000000 1.0
C      1  0.4372280000000  0.5090350000000  0.4640220000000 1.0
C      1  0.4702690000000  0.5389550000000  0.4737650000000 1.0
C      1  0.4797190000000  0.5153630000000  0.4918240000000 1.0
C      1  0.5514310000000  0.4568200000000  0.4983430000000 1.0
C      1  0.4908670000000  0.4659540000000  0.4618120000000 1.0
C      1  0.5028110000000  0.5028510000000  0.4512750000000 1.0
C      1  0.5404900000000  0.4699820000000  0.5459730000000 1.0
C      1  0.4964430000000  0.5537190000000  0.5160830000000 1.0
C      1  0.5712440000000  0.5067430000000  0.4710820000000 1.0
C      1  0.5101120000000  0.5221270000000  0.5622910000000 1.0
C      1  0.4418540000000  0.5375970000000  0.4677160000000 1.0
C      1  0.4878420000000  0.4714050000000  0.5602550000000 1.0
END
