TITL C-144807-3167-5 -0.0281100880314612 125000 -592.425159595813 0 0 85 (C1) n - 1
REM
REM in /rds/project/t2_vol4/rds-t2-cs072/BORA/CARBON/from-Arr/AIRSS/Generating-Clusters/GAP-ML-2020/Only-C1/SD-CG/HFTN-CG
REM
REM
REM
REM
REM
REM ./C.cell (11c1c37f851c82e70ff6c80c92926a4b)
REM AIRSS Version 0.9.1 bugfix July 2018 build 013d7b7c2542+ Fri, 06 Jul 2018 19:26:36 +0100
REM compiler GCC version 9.3.0
REM options -cpp -mtune=generic -march=x86-64 -g -O0
REM seed -1807994187 -315031875 -898305530 1103551149 -938424604 1678633468 467910653 -455478699 -163936487 493461274 -1310320777 1908233218 1567620921 1549611289 2079790928 1061481499 2133602273 447009320 -1484484857 -2096164703 504092810 -1646994425 99196406 1042417223 572737933 -614906113 -2086402148 1723773945 639778483 1912674955 -1361547844 -1175293738 -429373241
REM
CELL 1.54180   50.00000   50.00000   50.00000   90.00000   90.00000   90.00000
LATT -1
SFAC C  
C      1  0.4998580000000  0.4755270000000  0.4320680000000 1.0
C      1  0.4916880000000  0.5230920000000  0.5735630000000 1.0
C      1  0.5236610000000  0.4838930000000  0.4760860000000 1.0
C      1  0.4945850000000  0.4819280000000  0.5150640000000 1.0
C      1  0.5708170000000  0.5374780000000  0.4717100000000 1.0
C      1  0.4743710000000  0.4841350000000  0.5633630000000 1.0
C      1  0.5580650000000  0.5051850000000  0.4374240000000 1.0
C      1  0.4935840000000  0.5294600000000  0.4368320000000 1.0
C      1  0.4416870000000  0.4429200000000  0.4868890000000 1.0
C      1  0.4694210000000  0.5656820000000  0.4807530000000 1.0
C      1  0.5679220000000  0.4838750000000  0.4548780000000 1.0
C      1  0.5035530000000  0.4694390000000  0.4613820000000 1.0
C      1  0.4802770000000  0.5247050000000  0.5002500000000 1.0
C      1  0.4165800000000  0.5175850000000  0.5289910000000 1.0
C      1  0.5414930000000  0.5638360000000  0.5010550000000 1.0
C      1  0.4957160000000  0.4954450000000  0.5802910000000 1.0
C      1  0.4383160000000  0.5364180000000  0.5243170000000 1.0
C      1  0.4688480000000  0.4320750000000  0.5235400000000 1.0
C      1  0.4794060000000  0.4210320000000  0.4993720000000 1.0
C      1  0.4974920000000  0.5638820000000  0.4744350000000 1.0
C      1  0.4432990000000  0.4458120000000  0.5167100000000 1.0
C      1  0.5202480000000  0.4880150000000  0.5045910000000 1.0
C      1  0.4552310000000  0.4759830000000  0.4505610000000 1.0
C      1  0.4474300000000  0.4889700000000  0.5060320000000 1.0
C      1  0.4679630000000  0.5565390000000  0.5532650000000 1.0
C      1  0.5541760000000  0.4610670000000  0.5415640000000 1.0
C      1  0.5305940000000  0.4692010000000  0.4300390000000 1.0
C      1  0.4272360000000  0.4870670000000  0.4836400000000 1.0
C      1  0.5585350000000  0.4463970000000  0.4977440000000 1.0
C      1  0.5404500000000  0.4772980000000  0.5613530000000 1.0
C      1  0.4476160000000  0.5045630000000  0.4467130000000 1.0
C      1  0.4269120000000  0.5091220000000  0.4652820000000 1.0
C      1  0.5709110000000  0.5047680000000  0.5363460000000 1.0
C      1  0.4526070000000  0.5471450000000  0.4670100000000 1.0
C      1  0.5440930000000  0.4411940000000  0.5233940000000 1.0
C      1  0.5038840000000  0.4387810000000  0.4580720000000 1.0
C      1  0.5138370000000  0.4746140000000  0.5720310000000 1.0
C      1  0.5343460000000  0.4969240000000  0.4241650000000 1.0
C      1  0.4649120000000  0.5302430000000  0.5675240000000 1.0
C      1  0.5159850000000  0.5121880000000  0.4749710000000 1.0
C      1  0.5374400000000  0.5520080000000  0.4515900000000 1.0
C      1  0.5472300000000  0.4409970000000  0.4726060000000 1.0
C      1  0.4521410000000  0.5608770000000  0.5297590000000 1.0
C      1  0.5168910000000  0.4307390000000  0.5246890000000 1.0
C      1  0.5039760000000  0.5335160000000  0.5154700000000 1.0
C      1  0.4790970000000  0.4828080000000  0.4717980000000 1.0
C      1  0.4679220000000  0.5258940000000  0.4513550000000 1.0
C      1  0.5511650000000  0.4605090000000  0.4507050000000 1.0
C      1  0.4937870000000  0.5707440000000  0.5476530000000 1.0
C      1  0.5063490000000  0.5051180000000  0.4263810000000 1.0
C      1  0.4674000000000  0.5738280000000  0.5087440000000 1.0
C      1  0.5780660000000  0.5181470000000  0.4905860000000 1.0
C      1  0.4345100000000  0.4637270000000  0.4694020000000 1.0
C      1  0.4732190000000  0.4747400000000  0.4979160000000 1.0
C      1  0.4506060000000  0.5031880000000  0.5625310000000 1.0
C      1  0.4179580000000  0.5323670000000  0.5046830000000 1.0
C      1  0.5030070000000  0.5209150000000  0.5451200000000 1.0
C      1  0.5194450000000  0.5671420000000  0.5547760000000 1.0
C      1  0.5578590000000  0.5313220000000  0.4468090000000 1.0
C      1  0.4914550000000  0.4580330000000  0.5618350000000 1.0
C      1  0.4929340000000  0.5785850000000  0.5191240000000 1.0
C      1  0.4353370000000  0.4722390000000  0.5267790000000 1.0
C      1  0.5728990000000  0.4778910000000  0.5277040000000 1.0
C      1  0.4771490000000  0.4354930000000  0.4518270000000 1.0
C      1  0.5547320000000  0.5493850000000  0.5227270000000 1.0
C      1  0.5081530000000  0.4216120000000  0.4992730000000 1.0
C      1  0.4286320000000  0.5343680000000  0.4777570000000 1.0
C      1  0.5090610000000  0.5515970000000  0.4507080000000 1.0
C      1  0.5393200000000  0.5501860000000  0.5468920000000 1.0
C      1  0.5721000000000  0.5263840000000  0.5178300000000 1.0
C      1  0.4725390000000  0.4590620000000  0.4345180000000 1.0
C      1  0.5780600000000  0.4902650000000  0.4811590000000 1.0
C      1  0.5518600000000  0.5592280000000  0.4759910000000 1.0
C      1  0.4858900000000  0.5118860000000  0.4737930000000 1.0
C      1  0.5501460000000  0.5040900000000  0.5563400000000 1.0
C      1  0.4919090000000  0.4384580000000  0.5407500000000 1.0
C      1  0.5317090000000  0.5243090000000  0.5553480000000 1.0
C      1  0.4640570000000  0.4287490000000  0.4763150000000 1.0
C      1  0.5220980000000  0.4272750000000  0.4751750000000 1.0
C      1  0.5235960000000  0.5167670000000  0.5027580000000 1.0
C      1  0.4615690000000  0.5131160000000  0.5177050000000 1.0
C      1  0.5750900000000  0.4699370000000  0.5006760000000 1.0
C      1  0.4835610000000  0.4994350000000  0.5361190000000 1.0
C      1  0.5119160000000  0.5653440000000  0.5010190000000 1.0
C      1  0.4285540000000  0.4942370000000  0.5440340000000 1.0
END
