TITL C-144812-4207-11 -169.92097852611 125000 -643.008630067979 0 0 93 (C1) n - 1
REM
REM in /rds/project/t2_vol4/rds-t2-cs072/BORA/CARBON/from-Arr/AIRSS/Generating-Clusters/GAP-ML-2020/Only-C1/SD-CG/HFTN-CG
REM
REM
REM
REM
REM
REM ./C.cell (11c1c37f851c82e70ff6c80c92926a4b)
REM AIRSS Version 0.9.1 bugfix July 2018 build 013d7b7c2542+ Fri, 06 Jul 2018 19:26:36 +0100
REM compiler GCC version 9.3.0
REM options -cpp -mtune=generic -march=x86-64 -g -O0
REM seed 2063091827 -1358968297 -597583528 1556810653 448437277 -758288009 -125806365 -1364709037 -892378309 1581894645 553376041 -1103841854 779444864 52998599 1503529017 -156372494 547080916 -359776951 1081857216 -1900362504 -663342918 1841829082 1940818436 417473262 -1611266938 -1753103278 -707649340 503196981 -1134888034 1154976887 -899656666 -643878557 -731796151
REM
CELL 1.54180   50.00000   50.00000   50.00000   90.00000   90.00000   90.00000
LATT -1
SFAC C  
C      1  0.5540860000000  0.4300990000000  0.5096320000000 1.0
C      1  0.5062240000000  0.5592370000000  0.5292050000000 1.0
C      1  0.5774950000000  0.5131930000000  0.5300400000000 1.0
C      1  0.4887900000000  0.5559630000000  0.4553260000000 1.0
C      1  0.4302060000000  0.5197600000000  0.4682010000000 1.0
C      1  0.4853540000000  0.5357280000000  0.5297450000000 1.0
C      1  0.5438310000000  0.5569280000000  0.4642560000000 1.0
C      1  0.4863330000000  0.5893130000000  0.4901300000000 1.0
C      1  0.5712570000000  0.4881670000000  0.4738010000000 1.0
C      1  0.5275850000000  0.5415520000000  0.5154060000000 1.0
C      1  0.5405330000000  0.4860770000000  0.4350820000000 1.0
C      1  0.4835300000000  0.4629220000000  0.5591230000000 1.0
C      1  0.4342330000000  0.4578510000000  0.5180600000000 1.0
C      1  0.4178510000000  0.5324800000000  0.5046110000000 1.0
C      1  0.5288620000000  0.5076750000000  0.4523090000000 1.0
C      1  0.5392530000000  0.5270940000000  0.4709910000000 1.0
C      1  0.5158860000000  0.5310520000000  0.4904730000000 1.0
C      1  0.4605650000000  0.5131180000000  0.4279730000000 1.0
C      1  0.4637070000000  0.4823250000000  0.4973170000000 1.0
C      1  0.5516450000000  0.4401680000000  0.5356240000000 1.0
C      1  0.4765980000000  0.4925220000000  0.4138780000000 1.0
C      1  0.4384200000000  0.4876970000000  0.5180580000000 1.0
C      1  0.5009510000000  0.5361150000000  0.4103020000000 1.0
C      1  0.4788280000000  0.4998630000000  0.4829010000000 1.0
C      1  0.4546550000000  0.5131200000000  0.5626860000000 1.0
C      1  0.5522190000000  0.5527020000000  0.5435800000000 1.0
C      1  0.4791480000000  0.4380620000000  0.5446920000000 1.0
C      1  0.4762400000000  0.5132490000000  0.5818010000000 1.0
C      1  0.4803100000000  0.4851670000000  0.5376750000000 1.0
C      1  0.5424160000000  0.5073760000000  0.5611530000000 1.0
C      1  0.4447910000000  0.5560180000000  0.5362520000000 1.0
C      1  0.4877740000000  0.4213260000000  0.4884200000000 1.0
C      1  0.5289250000000  0.5137140000000  0.5309640000000 1.0
C      1  0.5560350000000  0.5524390000000  0.5120230000000 1.0
C      1  0.4609840000000  0.4434000000000  0.5213690000000 1.0
C      1  0.5116360000000  0.5430880000000  0.5725690000000 1.0
C      1  0.5009900000000  0.5108160000000  0.4412680000000 1.0
C      1  0.5260960000000  0.4597370000000  0.5682730000000 1.0
C      1  0.5020910000000  0.4707430000000  0.5781730000000 1.0
C      1  0.4188390000000  0.4783390000000  0.4782950000000 1.0
C      1  0.4440470000000  0.4394450000000  0.4776810000000 1.0
C      1  0.4829340000000  0.5408610000000  0.5751240000000 1.0
C      1  0.5585120000000  0.4725310000000  0.4528800000000 1.0
C      1  0.5312910000000  0.4195750000000  0.4966240000000 1.0
C      1  0.4593780000000  0.5671900000000  0.5124670000000 1.0
C      1  0.4213140000000  0.5439690000000  0.5289180000000 1.0
C      1  0.4869470000000  0.5798460000000  0.5152100000000 1.0
C      1  0.5779790000000  0.4718850000000  0.4961420000000 1.0
C      1  0.4988430000000  0.5090370000000  0.5282200000000 1.0
C      1  0.4803650000000  0.4669470000000  0.5141950000000 1.0
C      1  0.5189080000000  0.4847490000000  0.4688800000000 1.0
C      1  0.4393660000000  0.5051290000000  0.4451070000000 1.0
C      1  0.5003970000000  0.4987550000000  0.5859370000000 1.0
C      1  0.5271500000000  0.4369730000000  0.5498750000000 1.0
C      1  0.5181290000000  0.4807320000000  0.4172860000000 1.0
C      1  0.5037710000000  0.4249380000000  0.5375480000000 1.0
C      1  0.5246430000000  0.5593100000000  0.5527600000000 1.0
C      1  0.5215460000000  0.4836530000000  0.4971160000000 1.0
C      1  0.4488220000000  0.5667330000000  0.4851530000000 1.0
C      1  0.5564720000000  0.5673030000000  0.4860520000000 1.0
C      1  0.4223050000000  0.5037120000000  0.4952760000000 1.0
C      1  0.5593850000000  0.5125080000000  0.4868110000000 1.0
C      1  0.5725790000000  0.5287400000000  0.5071070000000 1.0
C      1  0.4295860000000  0.5453830000000  0.4806570000000 1.0
C      1  0.4815670000000  0.5344450000000  0.4340870000000 1.0
C      1  0.4825100000000  0.4554360000000  0.4489740000000 1.0
C      1  0.4526360000000  0.4542240000000  0.4547970000000 1.0
C      1  0.4995100000000  0.4337320000000  0.4649830000000 1.0
C      1  0.4911140000000  0.4862470000000  0.4597790000000 1.0
C      1  0.4638620000000  0.5399370000000  0.5515280000000 1.0
C      1  0.5066920000000  0.4160320000000  0.5096900000000 1.0
C      1  0.5219020000000  0.5171110000000  0.5794190000000 1.0
C      1  0.4351380000000  0.4779000000000  0.4545980000000 1.0
C      1  0.5194470000000  0.5540880000000  0.4201090000000 1.0
C      1  0.4906570000000  0.4667280000000  0.4220820000000 1.0
C      1  0.5628630000000  0.4658030000000  0.5425820000000 1.0
C      1  0.5469120000000  0.4782790000000  0.5621760000000 1.0
C      1  0.5194340000000  0.5613770000000  0.4462600000000 1.0
C      1  0.5030850000000  0.5049560000000  0.4103380000000 1.0
C      1  0.5089430000000  0.4624590000000  0.5092490000000 1.0
C      1  0.4528110000000  0.4940670000000  0.5423220000000 1.0
C      1  0.5025320000000  0.5066610000000  0.4985860000000 1.0
C      1  0.4241870000000  0.4539750000000  0.4924090000000 1.0
C      1  0.5624960000000  0.5259550000000  0.5506860000000 1.0
C      1  0.5677790000000  0.4462570000000  0.4904170000000 1.0
C      1  0.4617740000000  0.4272340000000  0.4961030000000 1.0
C      1  0.5531750000000  0.4461760000000  0.4655380000000 1.0
C      1  0.4922300000000  0.5444460000000  0.4824920000000 1.0
C      1  0.5439420000000  0.4971260000000  0.5103870000000 1.0
C      1  0.4728660000000  0.5414250000000  0.5039520000000 1.0
C      1  0.5282480000000  0.4307900000000  0.4701950000000 1.0
C      1  0.5704160000000  0.4845350000000  0.5222750000000 1.0
C      1  0.4714290000000  0.5765030000000  0.4693220000000 1.0
END
