TITL C-142793-1237-9 -397.241920119843 125000 -679.921852055729 0 0 95 (C1) n - 1
REM
REM in /rds/project/t2_vol4/rds-t2-cs072/BORA/CARBON/from-Arr/AIRSS/Generating-Clusters/GAP-ML-2020/Only-C1/SD-CG/HFTN-CG
REM
REM
REM
REM
REM
REM ./C.cell (11c1c37f851c82e70ff6c80c92926a4b)
REM AIRSS Version 0.9.1 bugfix July 2018 build 013d7b7c2542+ Fri, 06 Jul 2018 19:26:36 +0100
REM compiler GCC version 9.3.0
REM options -cpp -mtune=generic -march=x86-64 -g -O0
REM seed -556672456 1734513911 -112630143 1650052468 249709538 -1094762021 -117205020 -450726748 1717894721 1924710580 -1552784634 -876393237 657406303 -1680472998 381763992 452882613 -1882843351 -2041789785 1646837209 1431338123 1278461119 428096309 -1040675288 -2049879960 899785981 343759397 -712299058 1775749598 1635916853 1849549600 539186656 1454864451 -551984073
REM
CELL 1.54180   50.00000   50.00000   50.00000   90.00000   90.00000   90.00000
LATT -1
SFAC C  
C      1  0.4537300000000  0.5098210000000  0.4337130000000 1.0
C      1  0.4451770000000  0.4531980000000  0.4750670000000 1.0
C      1  0.4282360000000  0.5094640000000  0.5249740000000 1.0
C      1  0.5514130000000  0.5201590000000  0.4258850000000 1.0
C      1  0.5640430000000  0.4835760000000  0.4499820000000 1.0
C      1  0.4797210000000  0.5172740000000  0.5962360000000 1.0
C      1  0.4899610000000  0.4465030000000  0.4251550000000 1.0
C      1  0.5442350000000  0.4278460000000  0.4915620000000 1.0
C      1  0.5285820000000  0.5551350000000  0.4489660000000 1.0
C      1  0.4310770000000  0.4661520000000  0.4969960000000 1.0
C      1  0.4951010000000  0.4321010000000  0.4520390000000 1.0
C      1  0.5180280000000  0.4623010000000  0.5768770000000 1.0
C      1  0.4625690000000  0.4775870000000  0.5807400000000 1.0
C      1  0.5026870000000  0.5323360000000  0.5899220000000 1.0
C      1  0.4929850000000  0.4595910000000  0.4664920000000 1.0
C      1  0.5246760000000  0.5684360000000  0.4740770000000 1.0
C      1  0.4956540000000  0.5819910000000  0.5357340000000 1.0
C      1  0.4336290000000  0.5492730000000  0.4969140000000 1.0
C      1  0.5755150000000  0.5028780000000  0.4692160000000 1.0
C      1  0.5023770000000  0.5805330000000  0.4891670000000 1.0
C      1  0.5293370000000  0.4784480000000  0.4142080000000 1.0
C      1  0.4860960000000  0.5127010000000  0.4728790000000 1.0
C      1  0.5684620000000  0.5303250000000  0.5224080000000 1.0
C      1  0.4939280000000  0.5539290000000  0.5729640000000 1.0
C      1  0.5409280000000  0.4986190000000  0.5441820000000 1.0
C      1  0.5534650000000  0.4917340000000  0.4257110000000 1.0
C      1  0.4651170000000  0.5483590000000  0.5652730000000 1.0
C      1  0.5520860000000  0.4729860000000  0.4910840000000 1.0
C      1  0.5278260000000  0.5258850000000  0.4122220000000 1.0
C      1  0.4874290000000  0.5103130000000  0.4072830000000 1.0
C      1  0.4364730000000  0.4509710000000  0.5204230000000 1.0
C      1  0.5105880000000  0.5686530000000  0.5559690000000 1.0
C      1  0.5408570000000  0.4362830000000  0.4640180000000 1.0
C      1  0.4613470000000  0.4560390000000  0.5616400000000 1.0
C      1  0.5587710000000  0.4483840000000  0.5049690000000 1.0
C      1  0.5646860000000  0.5433260000000  0.4961070000000 1.0
C      1  0.4736970000000  0.5764400000000  0.4953740000000 1.0
C      1  0.5026940000000  0.5276950000000  0.5189520000000 1.0
C      1  0.5522970000000  0.5378680000000  0.4484830000000 1.0
C      1  0.4828840000000  0.5172270000000  0.4996390000000 1.0
C      1  0.4262730000000  0.4942560000000  0.4997880000000 1.0
C      1  0.4362680000000  0.5380320000000  0.5229480000000 1.0
C      1  0.5112750000000  0.4439870000000  0.5576830000000 1.0
C      1  0.4844950000000  0.4894210000000  0.5948400000000 1.0
C      1  0.4826570000000  0.4384510000000  0.5513290000000 1.0
C      1  0.5537080000000  0.5401180000000  0.5472060000000 1.0
C      1  0.4571680000000  0.4291190000000  0.4844810000000 1.0
C      1  0.4296900000000  0.5339220000000  0.4731000000000 1.0
C      1  0.5246800000000  0.5139350000000  0.5845680000000 1.0
C      1  0.4331520000000  0.5068480000000  0.4757610000000 1.0
C      1  0.4484810000000  0.5499150000000  0.4568880000000 1.0
C      1  0.4976840000000  0.4238460000000  0.5036580000000 1.0
C      1  0.4326640000000  0.4923930000000  0.5477800000000 1.0
C      1  0.5251070000000  0.4924360000000  0.4976960000000 1.0
C      1  0.5436200000000  0.5188550000000  0.5641440000000 1.0
C      1  0.4704270000000  0.5740890000000  0.5249380000000 1.0
C      1  0.4572550000000  0.5248320000000  0.5805220000000 1.0
C      1  0.5454220000000  0.4652820000000  0.4635040000000 1.0
C      1  0.4938890000000  0.5167240000000  0.5440330000000 1.0
C      1  0.4525860000000  0.5659040000000  0.4808330000000 1.0
C      1  0.5378060000000  0.5635580000000  0.5445910000000 1.0
C      1  0.5037950000000  0.4756840000000  0.5092380000000 1.0
C      1  0.4798570000000  0.4901500000000  0.5123200000000 1.0
C      1  0.4395010000000  0.4641010000000  0.5446750000000 1.0
C      1  0.4676540000000  0.4924510000000  0.4162600000000 1.0
C      1  0.5552820000000  0.4539480000000  0.5324900000000 1.0
C      1  0.4534980000000  0.4296110000000  0.5128090000000 1.0
C      1  0.5383730000000  0.5763800000000  0.5190000000000 1.0
C      1  0.5463800000000  0.5645820000000  0.4945360000000 1.0
C      1  0.4453290000000  0.4998820000000  0.5721670000000 1.0
C      1  0.5276820000000  0.5127220000000  0.5174590000000 1.0
C      1  0.4541540000000  0.5548820000000  0.5392030000000 1.0
C      1  0.4778860000000  0.4251970000000  0.5263450000000 1.0
C      1  0.5129560000000  0.4859600000000  0.5885970000000 1.0
C      1  0.5183410000000  0.4513100000000  0.4214170000000 1.0
C      1  0.5147200000000  0.4775550000000  0.4568250000000 1.0
C      1  0.5754470000000  0.4909040000000  0.4945770000000 1.0
C      1  0.5752800000000  0.5017000000000  0.5204170000000 1.0
C      1  0.5123330000000  0.5014810000000  0.4709410000000 1.0
C      1  0.5122270000000  0.5460300000000  0.4260270000000 1.0
C      1  0.5624910000000  0.4821590000000  0.5378150000000 1.0
C      1  0.4568560000000  0.4980650000000  0.4601850000000 1.0
C      1  0.5254520000000  0.4221650000000  0.5125950000000 1.0
C      1  0.4706280000000  0.4665980000000  0.4278080000000 1.0
C      1  0.4984970000000  0.4538670000000  0.4939870000000 1.0
C      1  0.5678100000000  0.5300290000000  0.4708650000000 1.0
C      1  0.5318630000000  0.4372550000000  0.5374480000000 1.0
C      1  0.4819080000000  0.4934220000000  0.5398730000000 1.0
C      1  0.5143660000000  0.5018070000000  0.4047510000000 1.0
C      1  0.4630250000000  0.4689550000000  0.4569230000000 1.0
C      1  0.4852710000000  0.5372740000000  0.4206740000000 1.0
C      1  0.4598090000000  0.5383380000000  0.4339620000000 1.0
C      1  0.4825640000000  0.4185760000000  0.4765620000000 1.0
C      1  0.5130260000000  0.5876000000000  0.5143020000000 1.0
C      1  0.5230690000000  0.4310970000000  0.4431610000000 1.0
END
