TITL C-140197-7347-5 -0.186522879649971 125000 -454.992875034237 0 0 66 (C1) n - 1
REM
REM in /rds/project/t2_vol4/rds-t2-cs072/BORA/CARBON/from-Arr/AIRSS/Generating-Clusters/GAP-ML-2020/Only-C1/SD-CG/HFTN-CG
REM
REM
REM
REM
REM
REM ./C.cell (11c1c37f851c82e70ff6c80c92926a4b)
REM AIRSS Version 0.9.1 bugfix July 2018 build 013d7b7c2542+ Fri, 06 Jul 2018 19:26:36 +0100
REM compiler GCC version 9.3.0
REM options -cpp -mtune=generic -march=x86-64 -g -O0
REM seed 1716486274 1390212452 362819360 -34233080 -1943714018 1829888626 2017174346 -1235660653 -1310906327 -1306060262 -1866908840 -397533261 -660008860 -494342977 -682007547 -856575817 -956005661 -1007628639 -199244457 -446246040 795275900 -1826387672 954113009 -1966889969 1956933128 921143279 -611728391 686215653 707565023 -97023006 1772901113 -448529904 751069421
REM
CELL 1.54180   50.00000   50.00000   50.00000   90.00000   90.00000   90.00000
LATT -1
SFAC C  
C      1  0.4962920000000  0.4734290000000  0.4996600000000 1.0
C      1  0.5017890000000  0.4926070000000  0.5249550000000 1.0
C      1  0.4300320000000  0.5247090000000  0.5110690000000 1.0
C      1  0.5409060000000  0.5067090000000  0.5648820000000 1.0
C      1  0.4569650000000  0.4749750000000  0.4558110000000 1.0
C      1  0.4968250000000  0.4407050000000  0.4984630000000 1.0
C      1  0.5002330000000  0.4808830000000  0.5537400000000 1.0
C      1  0.4752770000000  0.5440050000000  0.4551450000000 1.0
C      1  0.4142540000000  0.5238220000000  0.4886630000000 1.0
C      1  0.4942600000000  0.5619550000000  0.5208660000000 1.0
C      1  0.5073980000000  0.4809090000000  0.4332610000000 1.0
C      1  0.5386530000000  0.5311010000000  0.5306540000000 1.0
C      1  0.5205120000000  0.5109800000000  0.5139060000000 1.0
C      1  0.4748480000000  0.4975050000000  0.4547800000000 1.0
C      1  0.4341230000000  0.5112160000000  0.4744020000000 1.0
C      1  0.5184410000000  0.5658700000000  0.5045730000000 1.0
C      1  0.5615110000000  0.5151200000000  0.4637050000000 1.0
C      1  0.4584550000000  0.5408360000000  0.5429220000000 1.0
C      1  0.5437330000000  0.5540070000000  0.5127610000000 1.0
C      1  0.5250400000000  0.5288920000000  0.5579320000000 1.0
C      1  0.4482390000000  0.5470120000000  0.5175870000000 1.0
C      1  0.5645340000000  0.5602820000000  0.4694400000000 1.0
C      1  0.5343810000000  0.4466830000000  0.5253120000000 1.0
C      1  0.4713280000000  0.4508130000000  0.4584490000000 1.0
C      1  0.5291990000000  0.4816780000000  0.5597270000000 1.0
C      1  0.4273540000000  0.4659020000000  0.4927490000000 1.0
C      1  0.5274270000000  0.4777150000000  0.4556480000000 1.0
C      1  0.4623230000000  0.5204310000000  0.4685830000000 1.0
C      1  0.4657510000000  0.4598440000000  0.5335380000000 1.0
C      1  0.5198800000000  0.4486210000000  0.4572880000000 1.0
C      1  0.5744020000000  0.4936570000000  0.5028330000000 1.0
C      1  0.5488350000000  0.5414020000000  0.4558100000000 1.0
C      1  0.5589880000000  0.5124740000000  0.5429330000000 1.0
C      1  0.4345910000000  0.4825620000000  0.4713730000000 1.0
C      1  0.4412510000000  0.4505990000000  0.5270900000000 1.0
C      1  0.5065750000000  0.5160820000000  0.4896520000000 1.0
C      1  0.4269090000000  0.4756530000000  0.5202060000000 1.0
C      1  0.4693440000000  0.4385260000000  0.4848760000000 1.0
C      1  0.4701940000000  0.4788610000000  0.5092410000000 1.0
C      1  0.4816210000000  0.5636300000000  0.4748570000000 1.0
C      1  0.5674590000000  0.4478720000000  0.4878990000000 1.0
C      1  0.5461130000000  0.4682940000000  0.5398190000000 1.0
C      1  0.4822770000000  0.5046350000000  0.5624790000000 1.0
C      1  0.4740270000000  0.5050850000000  0.5189730000000 1.0
C      1  0.4931320000000  0.5058290000000  0.4334890000000 1.0
C      1  0.5065570000000  0.4410510000000  0.5266630000000 1.0
C      1  0.5549660000000  0.4874360000000  0.4600700000000 1.0
C      1  0.5202060000000  0.4352410000000  0.4818940000000 1.0
C      1  0.4728010000000  0.5544770000000  0.5020650000000 1.0
C      1  0.4898970000000  0.4546720000000  0.5452630000000 1.0
C      1  0.5688210000000  0.4743070000000  0.4820450000000 1.0
C      1  0.5649890000000  0.4883040000000  0.5296710000000 1.0
C      1  0.4335440000000  0.5022100000000  0.5293130000000 1.0
C      1  0.5098490000000  0.5654690000000  0.4762650000000 1.0
C      1  0.4954380000000  0.4546680000000  0.4436220000000 1.0
C      1  0.4976820000000  0.5289010000000  0.5615740000000 1.0
C      1  0.4582980000000  0.5115300000000  0.5451670000000 1.0
C      1  0.4985120000000  0.5340640000000  0.4416990000000 1.0
C      1  0.5210040000000  0.5489670000000  0.4537300000000 1.0
C      1  0.5430790000000  0.4406680000000  0.4982680000000 1.0
C      1  0.5727410000000  0.5191990000000  0.4896540000000 1.0
C      1  0.5025000000000  0.4901450000000  0.4762040000000 1.0
C      1  0.4782270000000  0.5235390000000  0.4960280000000 1.0
C      1  0.5652390000000  0.5482900000000  0.4947400000000 1.0
C      1  0.4854400000000  0.5494830000000  0.5457770000000 1.0
C      1  0.4445280000000  0.4430030000000  0.4982870000000 1.0
END
