TITL C-140213-8167-7 100.395148892568 125000 -682.598452031304 0 0 98 (C1) n - 1
REM
REM in /rds/project/t2_vol4/rds-t2-cs072/BORA/CARBON/from-Arr/AIRSS/Generating-Clusters/GAP-ML-2020/Only-C1/SD-CG/HFTN-CG
REM
REM
REM
REM
REM
REM ./C.cell (11c1c37f851c82e70ff6c80c92926a4b)
REM AIRSS Version 0.9.1 bugfix July 2018 build 013d7b7c2542+ Fri, 06 Jul 2018 19:26:36 +0100
REM compiler GCC version 9.3.0
REM options -cpp -mtune=generic -march=x86-64 -g -O0
REM seed 645148107 1351572616 -960680549 -1602633844 -172521833 688322596 338301878 1522564220 -1227207748 -1217601157 1079700795 -1807067131 -522885732 1320305032 1269291985 552189762 -585311541 -467602528 -1878237977 818219186 -351754616 -1352269915 609176951 -304842393 -692271906 868854514 -860217444 -1374551989 351222177 -156233916 -272956675 -1001637001 -386414132
REM
CELL 1.54180   50.00000   50.00000   50.00000   90.00000   90.00000   90.00000
LATT -1
SFAC C  
C      1  0.4871580000000  0.4712800000000  0.5339520000000 1.0
C      1  0.5017360000000  0.4182180000000  0.5131130000000 1.0
C      1  0.4943020000000  0.5787200000000  0.4686170000000 1.0
C      1  0.4850510000000  0.4220110000000  0.5360290000000 1.0
C      1  0.5767450000000  0.5381690000000  0.4863320000000 1.0
C      1  0.5098270000000  0.5754430000000  0.5150830000000 1.0
C      1  0.4051760000000  0.4942290000000  0.4715720000000 1.0
C      1  0.4579690000000  0.4947740000000  0.4750060000000 1.0
C      1  0.5523070000000  0.4869470000000  0.4398600000000 1.0
C      1  0.5035620000000  0.4357270000000  0.4422490000000 1.0
C      1  0.5488210000000  0.4893870000000  0.5390660000000 1.0
C      1  0.4927690000000  0.5157360000000  0.4148920000000 1.0
C      1  0.5619480000000  0.5540900000000  0.4684070000000 1.0
C      1  0.5289360000000  0.4690090000000  0.4988990000000 1.0
C      1  0.5112700000000  0.4196810000000  0.4651050000000 1.0
C      1  0.5350460000000  0.5002390000000  0.5837290000000 1.0
C      1  0.4604960000000  0.5687250000000  0.5000520000000 1.0
C      1  0.4878380000000  0.4801500000000  0.5780390000000 1.0
C      1  0.5390870000000  0.4236470000000  0.4701080000000 1.0
C      1  0.5021830000000  0.4503400000000  0.5743250000000 1.0
C      1  0.4642810000000  0.4399120000000  0.5453240000000 1.0
C      1  0.5409880000000  0.4410360000000  0.5387270000000 1.0
C      1  0.5258510000000  0.4501630000000  0.4337510000000 1.0
C      1  0.5004200000000  0.5151820000000  0.5426030000000 1.0
C      1  0.5284260000000  0.4524510000000  0.5622810000000 1.0
C      1  0.5267110000000  0.5253430000000  0.5802920000000 1.0
C      1  0.5412770000000  0.5714150000000  0.4769540000000 1.0
C      1  0.5272730000000  0.5146810000000  0.4971990000000 1.0
C      1  0.4501230000000  0.5571010000000  0.5246800000000 1.0
C      1  0.4689550000000  0.4347420000000  0.4710080000000 1.0
C      1  0.4497110000000  0.5185620000000  0.4385210000000 1.0
C      1  0.4591810000000  0.4807940000000  0.5696610000000 1.0
C      1  0.4853180000000  0.4321770000000  0.5623850000000 1.0
C      1  0.4980110000000  0.5296920000000  0.5739020000000 1.0
C      1  0.4912370000000  0.4198180000000  0.4848990000000 1.0
C      1  0.4716260000000  0.5715100000000  0.4527700000000 1.0
C      1  0.4739960000000  0.4740130000000  0.4348120000000 1.0
C      1  0.5098900000000  0.5032640000000  0.4751830000000 1.0
C      1  0.5488660000000  0.4256450000000  0.4960220000000 1.0
C      1  0.4783410000000  0.4477690000000  0.4458610000000 1.0
C      1  0.4579460000000  0.4730680000000  0.4957930000000 1.0
C      1  0.4899540000000  0.5553760000000  0.5607940000000 1.0
C      1  0.5437630000000  0.5669360000000  0.5522820000000 1.0
C      1  0.5834440000000  0.4919770000000  0.4895840000000 1.0
C      1  0.5334280000000  0.5659490000000  0.5027440000000 1.0
C      1  0.5648390000000  0.5498350000000  0.5420630000000 1.0
C      1  0.5632840000000  0.4646830000000  0.4556150000000 1.0
C      1  0.5332970000000  0.4916660000000  0.5138890000000 1.0
C      1  0.5756310000000  0.4657170000000  0.4815260000000 1.0
C      1  0.5654910000000  0.4537480000000  0.5279340000000 1.0
C      1  0.4630640000000  0.5541860000000  0.5513130000000 1.0
C      1  0.5265900000000  0.5518330000000  0.4379810000000 1.0
C      1  0.5120710000000  0.5639680000000  0.5421990000000 1.0
C      1  0.4972010000000  0.5214300000000  0.4949510000000 1.0
C      1  0.5415910000000  0.5397460000000  0.5603640000000 1.0
C      1  0.5744700000000  0.4801470000000  0.5336040000000 1.0
C      1  0.5034700000000  0.4872790000000  0.5527870000000 1.0
C      1  0.4501130000000  0.4900940000000  0.4462580000000 1.0
C      1  0.4811430000000  0.5098880000000  0.5860710000000 1.0
C      1  0.4229120000000  0.4570690000000  0.4745590000000 1.0
C      1  0.5809340000000  0.5020500000000  0.5156270000000 1.0
C      1  0.4095390000000  0.5147140000000  0.5186790000000 1.0
C      1  0.4412810000000  0.5160650000000  0.4867680000000 1.0
C      1  0.5301170000000  0.4237590000000  0.5176710000000 1.0
C      1  0.4553680000000  0.5088060000000  0.5744650000000 1.0
C      1  0.5257450000000  0.4777030000000  0.4278050000000 1.0
C      1  0.5200720000000  0.5713360000000  0.4587800000000 1.0
C      1  0.4654860000000  0.5278950000000  0.4173760000000 1.0
C      1  0.5046840000000  0.5422100000000  0.4231540000000 1.0
C      1  0.5226210000000  0.5351560000000  0.5369160000000 1.0
C      1  0.4236630000000  0.4783090000000  0.4545080000000 1.0
C      1  0.4979460000000  0.4885100000000  0.4229170000000 1.0
C      1  0.4478850000000  0.4477910000000  0.4835570000000 1.0
C      1  0.5792760000000  0.5136810000000  0.4719350000000 1.0
C      1  0.5524680000000  0.5397550000000  0.4456140000000 1.0
C      1  0.4123970000000  0.5138980000000  0.4907480000000 1.0
C      1  0.4137660000000  0.4854730000000  0.5165500000000 1.0
C      1  0.4879390000000  0.5785710000000  0.4968270000000 1.0
C      1  0.5688480000000  0.4456560000000  0.5010970000000 1.0
C      1  0.4832890000000  0.5089560000000  0.5172680000000 1.0
C      1  0.5632040000000  0.5127020000000  0.4473850000000 1.0
C      1  0.5386630000000  0.5374490000000  0.5117030000000 1.0
C      1  0.4465090000000  0.5308940000000  0.5584520000000 1.0
C      1  0.5327280000000  0.4817440000000  0.5618200000000 1.0
C      1  0.5694030000000  0.5327410000000  0.5157250000000 1.0
C      1  0.4574950000000  0.4684590000000  0.5435000000000 1.0
C      1  0.4710040000000  0.5324740000000  0.4555320000000 1.0
C      1  0.4783450000000  0.5521230000000  0.4316670000000 1.0
C      1  0.4828370000000  0.5120120000000  0.4712370000000 1.0
C      1  0.4851640000000  0.4778580000000  0.5067880000000 1.0
C      1  0.4525220000000  0.5114760000000  0.5158470000000 1.0
C      1  0.4511550000000  0.5632290000000  0.4726290000000 1.0
C      1  0.4438530000000  0.5366850000000  0.4660010000000 1.0
C      1  0.4058760000000  0.4726260000000  0.4921640000000 1.0
C      1  0.5062730000000  0.4756030000000  0.4862210000000 1.0
C      1  0.4426630000000  0.4823700000000  0.5200840000000 1.0
C      1  0.5477380000000  0.4422500000000  0.4505270000000 1.0
C      1  0.4348360000000  0.5306260000000  0.5308790000000 1.0
END
