TITL C-141704-1603-7 379.296325451159 125000 -521.45358077789 0 0 74 (C1) n - 1
REM
REM in /rds/project/t2_vol4/rds-t2-cs072/BORA/CARBON/from-Arr/AIRSS/Generating-Clusters/GAP-ML-2020/Only-C1/SD-CG/HFTN-CG
REM
REM
REM
REM
REM
REM ./C.cell (11c1c37f851c82e70ff6c80c92926a4b)
REM AIRSS Version 0.9.1 bugfix July 2018 build 013d7b7c2542+ Fri, 06 Jul 2018 19:26:36 +0100
REM compiler GCC version 9.3.0
REM options -cpp -mtune=generic -march=x86-64 -g -O0
REM seed -53576398 1030694730 -761204842 -1222305276 -755999072 673886864 -2095241124 493782695 -1440739155 501481797 1628465113 1627396324 1939622857 -1265772843 -869103542 1264110601 -1762701964 59975790 -1925903629 -969669847 704664961 -1190638851 -1759946865 -531452636 73860703 -1962395504 633268335 -1326379064 568410387 -1006898968 -788736171 1548206136 -762885842
REM
CELL 1.54180   50.00000   50.00000   50.00000   90.00000   90.00000   90.00000
LATT -1
SFAC C  
C      1  0.4813700000000  0.4789210000000  0.4992630000000 1.0
C      1  0.5261480000000  0.5174340000000  0.4309800000000 1.0
C      1  0.4707820000000  0.4718540000000  0.5676870000000 1.0
C      1  0.4574260000000  0.5401340000000  0.5395910000000 1.0
C      1  0.4270210000000  0.4739550000000  0.4678860000000 1.0
C      1  0.4597350000000  0.4989290000000  0.5663100000000 1.0
C      1  0.4974950000000  0.5300580000000  0.4870500000000 1.0
C      1  0.4522730000000  0.4649900000000  0.4556560000000 1.0
C      1  0.4682710000000  0.4499230000000  0.5495820000000 1.0
C      1  0.4492820000000  0.5518850000000  0.4646520000000 1.0
C      1  0.4530440000000  0.4239660000000  0.5151620000000 1.0
C      1  0.4981350000000  0.4713640000000  0.5772040000000 1.0
C      1  0.5118720000000  0.4302530000000  0.4699490000000 1.0
C      1  0.5568670000000  0.4849040000000  0.4591950000000 1.0
C      1  0.4603800000000  0.5509490000000  0.5125380000000 1.0
C      1  0.4914670000000  0.4862190000000  0.4307020000000 1.0
C      1  0.4908570000000  0.5132450000000  0.5316130000000 1.0
C      1  0.5105430000000  0.4923780000000  0.5370410000000 1.0
C      1  0.5370390000000  0.4918700000000  0.4392650000000 1.0
C      1  0.4949420000000  0.4390400000000  0.5438310000000 1.0
C      1  0.5254880000000  0.4502610000000  0.4574650000000 1.0
C      1  0.5728650000000  0.4746830000000  0.5130000000000 1.0
C      1  0.5446630000000  0.5242670000000  0.5486250000000 1.0
C      1  0.5320410000000  0.5423610000000  0.5298510000000 1.0
C      1  0.5321470000000  0.5665840000000  0.4877080000000 1.0
C      1  0.5052890000000  0.5759240000000  0.4874340000000 1.0
C      1  0.5373580000000  0.4532030000000  0.5501620000000 1.0
C      1  0.4421180000000  0.5397770000000  0.4903180000000 1.0
C      1  0.4473050000000  0.4478410000000  0.5306580000000 1.0
C      1  0.5489530000000  0.4775410000000  0.5569040000000 1.0
C      1  0.4704130000000  0.5253680000000  0.4947830000000 1.0
C      1  0.5698910000000  0.5432120000000  0.5012060000000 1.0
C      1  0.4624360000000  0.4568040000000  0.4831400000000 1.0
C      1  0.4988260000000  0.4256550000000  0.4936840000000 1.0
C      1  0.5166270000000  0.4725460000000  0.4389480000000 1.0
C      1  0.5068030000000  0.4981900000000  0.5791590000000 1.0
C      1  0.5690330000000  0.4850800000000  0.5397120000000 1.0
C      1  0.5041350000000  0.5075930000000  0.4732010000000 1.0
C      1  0.5226430000000  0.4985160000000  0.5117300000000 1.0
C      1  0.5122440000000  0.4509480000000  0.5624410000000 1.0
C      1  0.5695220000000  0.5139680000000  0.5397460000000 1.0
C      1  0.5812420000000  0.4978170000000  0.4982180000000 1.0
C      1  0.5018230000000  0.5557830000000  0.4406270000000 1.0
C      1  0.4389020000000  0.4995990000000  0.5186070000000 1.0
C      1  0.4831760000000  0.5360430000000  0.4309680000000 1.0
C      1  0.5470770000000  0.5574320000000  0.5109380000000 1.0
C      1  0.5644050000000  0.5344010000000  0.4743590000000 1.0
C      1  0.5491020000000  0.4602860000000  0.4726650000000 1.0
C      1  0.5074210000000  0.4860680000000  0.4909070000000 1.0
C      1  0.5805930000000  0.5211670000000  0.5149890000000 1.0
C      1  0.5371560000000  0.4435120000000  0.5224280000000 1.0
C      1  0.5434160000000  0.5515360000000  0.4644710000000 1.0
C      1  0.4933820000000  0.5742150000000  0.4600150000000 1.0
C      1  0.5713960000000  0.5055090000000  0.4726670000000 1.0
C      1  0.4482190000000  0.5082030000000  0.4467350000000 1.0
C      1  0.4287260000000  0.5017320000000  0.4682670000000 1.0
C      1  0.4441950000000  0.5137260000000  0.5440970000000 1.0
C      1  0.4323330000000  0.4698040000000  0.5182690000000 1.0
C      1  0.4572930000000  0.5343670000000  0.4429480000000 1.0
C      1  0.4765300000000  0.5720200000000  0.4984500000000 1.0
C      1  0.5296740000000  0.5010320000000  0.5604600000000 1.0
C      1  0.5105410000000  0.4319220000000  0.5197100000000 1.0
C      1  0.4817360000000  0.5328010000000  0.5533770000000 1.0
C      1  0.4987210000000  0.5128930000000  0.4244540000000 1.0
C      1  0.4698120000000  0.5024500000000  0.5121720000000 1.0
C      1  0.4640310000000  0.4847610000000  0.4394940000000 1.0
C      1  0.4821450000000  0.5148620000000  0.5754370000000 1.0
C      1  0.4279550000000  0.5149900000000  0.4936210000000 1.0
C      1  0.4696860000000  0.4302120000000  0.4940730000000 1.0
C      1  0.5550290000000  0.4548770000000  0.5018090000000 1.0
C      1  0.5109850000000  0.5268100000000  0.5146110000000 1.0
C      1  0.4674610000000  0.5715460000000  0.4712490000000 1.0
C      1  0.5279310000000  0.5442470000000  0.4418010000000 1.0
C      1  0.4321610000000  0.4607840000000  0.4920750000000 1.0
END
