TITL C-142787-1211-7 180.29992130567 125000 -452.287361684375 0 0 66 (C1) n - 1
REM
REM in /rds/project/t2_vol4/rds-t2-cs072/BORA/CARBON/from-Arr/AIRSS/Generating-Clusters/GAP-ML-2020/Only-C1/SD-CG/HFTN-CG
REM
REM
REM
REM
REM
REM ./C.cell (11c1c37f851c82e70ff6c80c92926a4b)
REM AIRSS Version 0.9.1 bugfix July 2018 build 013d7b7c2542+ Fri, 06 Jul 2018 19:26:36 +0100
REM compiler GCC version 9.3.0
REM options -cpp -mtune=generic -march=x86-64 -g -O0
REM seed 921074611 -621122691 1136835741 1433379757 -475183164 1108536560 1528917781 1956564560 1657209722 -1193695845 -1334812570 977985232 1284863997 -720528300 -1566473404 -1944286459 -838861929 -859059597 -193593335 -922853393 -84472634 1222813103 746802460 1024356233 676442624 999722144 1547922385 -816498867 2013273067 83014243 -912935758 1221102743 -132615835
REM
CELL 1.54180   50.00000   50.00000   50.00000   90.00000   90.00000   90.00000
LATT -1
SFAC C  
C      1  0.5484590000000  0.5452380000000  0.4593980000000 1.0
C      1  0.5388830000000  0.4747750000000  0.4849650000000 1.0
C      1  0.5376360000000  0.4862500000000  0.5135420000000 1.0
C      1  0.4735150000000  0.4360660000000  0.5092250000000 1.0
C      1  0.4259150000000  0.4987930000000  0.4677100000000 1.0
C      1  0.4572130000000  0.5244220000000  0.4406750000000 1.0
C      1  0.4475890000000  0.4872670000000  0.5512040000000 1.0
C      1  0.5050930000000  0.5273910000000  0.4925820000000 1.0
C      1  0.4397790000000  0.4585150000000  0.4834600000000 1.0
C      1  0.4850650000000  0.5465520000000  0.5460700000000 1.0
C      1  0.5414600000000  0.5024910000000  0.5566440000000 1.0
C      1  0.4611730000000  0.4469800000000  0.5328040000000 1.0
C      1  0.5016490000000  0.4362850000000  0.5142900000000 1.0
C      1  0.4486830000000  0.5166490000000  0.5500320000000 1.0
C      1  0.4278830000000  0.5268910000000  0.5049370000000 1.0
C      1  0.5756470000000  0.5120820000000  0.5115440000000 1.0
C      1  0.5617370000000  0.4568980000000  0.4728650000000 1.0
C      1  0.4726050000000  0.4795050000000  0.5632690000000 1.0
C      1  0.4689380000000  0.5037090000000  0.4261350000000 1.0
C      1  0.5146690000000  0.4999450000000  0.5527610000000 1.0
C      1  0.5775930000000  0.4887630000000  0.5294930000000 1.0
C      1  0.5868870000000  0.5393370000000  0.5137190000000 1.0
C      1  0.5392610000000  0.4520550000000  0.5407560000000 1.0
C      1  0.5036940000000  0.5023700000000  0.4552200000000 1.0
C      1  0.4634690000000  0.4438520000000  0.4840150000000 1.0
C      1  0.4946990000000  0.4597520000000  0.4378180000000 1.0
C      1  0.5106990000000  0.4854690000000  0.5250220000000 1.0
C      1  0.4417160000000  0.5350440000000  0.5289260000000 1.0
C      1  0.4927810000000  0.5031820000000  0.5084250000000 1.0
C      1  0.4742270000000  0.5249120000000  0.5609540000000 1.0
C      1  0.4899990000000  0.5022430000000  0.5673290000000 1.0
C      1  0.4403030000000  0.4666100000000  0.5315320000000 1.0
C      1  0.5540520000000  0.5644960000000  0.4838000000000 1.0
C      1  0.5325360000000  0.4465560000000  0.4764150000000 1.0
C      1  0.4438200000000  0.4779510000000  0.4629630000000 1.0
C      1  0.5115250000000  0.5467260000000  0.5350840000000 1.0
C      1  0.4919930000000  0.4893870000000  0.4302860000000 1.0
C      1  0.4641990000000  0.5535890000000  0.5270760000000 1.0
C      1  0.4759750000000  0.4859000000000  0.4700640000000 1.0
C      1  0.5542270000000  0.4796530000000  0.5413990000000 1.0
C      1  0.4998210000000  0.5318530000000  0.4618770000000 1.0
C      1  0.5762880000000  0.4787260000000  0.4737020000000 1.0
C      1  0.4761060000000  0.5615180000000  0.5026940000000 1.0
C      1  0.5072250000000  0.4558870000000  0.5353940000000 1.0
C      1  0.5295580000000  0.4968990000000  0.4683340000000 1.0
C      1  0.4816450000000  0.4555890000000  0.5509540000000 1.0
C      1  0.5097950000000  0.4488940000000  0.4574430000000 1.0
C      1  0.5517050000000  0.5182500000000  0.4679180000000 1.0
C      1  0.5252060000000  0.5668750000000  0.4851920000000 1.0
C      1  0.5447300000000  0.5142820000000  0.5143810000000 1.0
C      1  0.4285150000000  0.4721700000000  0.5060000000000 1.0
C      1  0.4338720000000  0.5233400000000  0.4575220000000 1.0
C      1  0.4736780000000  0.5422250000000  0.4561870000000 1.0
C      1  0.5744220000000  0.5050360000000  0.4808350000000 1.0
C      1  0.4831510000000  0.4571900000000  0.4654380000000 1.0
C      1  0.5211950000000  0.5529460000000  0.4592510000000 1.0
C      1  0.4612280000000  0.5538670000000  0.4793330000000 1.0
C      1  0.5312110000000  0.5244130000000  0.5392550000000 1.0
C      1  0.4722960000000  0.4914520000000  0.4968600000000 1.0
C      1  0.5057940000000  0.5551510000000  0.5057000000000 1.0
C      1  0.5260610000000  0.4308460000000  0.5006870000000 1.0
C      1  0.4362680000000  0.5406490000000  0.4808590000000 1.0
C      1  0.4219850000000  0.4992430000000  0.4964170000000 1.0
C      1  0.5446730000000  0.4326800000000  0.5228500000000 1.0
C      1  0.5744380000000  0.5572590000000  0.5001150000000 1.0
C      1  0.5318900000000  0.5182140000000  0.4903930000000 1.0
END
