TITL C-149874-9104-10 7.06927844064084 125000 -154.513162520682 0 0 24 (C1) n - 1
REM
REM in /rds/project/t2_vol4/rds-t2-cs072/BORA/CARBON/from-Arr/AIRSS/Generating-Clusters/GAP-ML-2020/Only-C1/SD-CG/HFTN-CG
REM
REM
REM
REM
REM
REM ./C.cell (11c1c37f851c82e70ff6c80c92926a4b)
REM AIRSS Version 0.9.1 bugfix July 2018 build 013d7b7c2542+ Fri, 06 Jul 2018 19:26:36 +0100
REM compiler GCC version 9.3.0
REM options -cpp -mtune=generic -march=x86-64 -g -O0
REM seed 1360017416 -64198603 1712438721 34523304 1754845531 389154673 -1248638380 918101161 1729563802 1949166383 649386256 -1700505393 1707481664 -1303583660 666166497 -1332013545 1108322684 1659845952 1178965113 1964770598 60780976 360701563 -209845700 1320601345 249572050 2068916685 1665016482 -1437987675 -1311063713 -1833678308 1765851806 153729171 11702363
REM
CELL 1.54180   50.00000   50.00000   50.00000   90.00000   90.00000   90.00000
LATT -1
SFAC C  
C      1  0.4645240000000  0.5320500000000  0.4782000000000 1.0
C      1  0.5559940000000  0.5007790000000  0.5331460000000 1.0
C      1  0.5366010000000  0.5340860000000  0.5320700000000 1.0
C      1  0.5089900000000  0.5261460000000  0.4559790000000 1.0
C      1  0.4673660000000  0.5302940000000  0.5165270000000 1.0
C      1  0.5147060000000  0.4760810000000  0.5171900000000 1.0
C      1  0.4545710000000  0.4729800000000  0.5038010000000 1.0
C      1  0.4881400000000  0.5384690000000  0.4642380000000 1.0
C      1  0.4657030000000  0.4507710000000  0.4890220000000 1.0
C      1  0.5239950000000  0.5043940000000  0.4538530000000 1.0
C      1  0.5119850000000  0.5339350000000  0.5385910000000 1.0
C      1  0.5349270000000  0.4804320000000  0.5349950000000 1.0
C      1  0.4578550000000  0.5046650000000  0.4768440000000 1.0
C      1  0.5177100000000  0.4553610000000  0.4995060000000 1.0
C      1  0.4532910000000  0.5460100000000  0.5014720000000 1.0
C      1  0.5289950000000  0.4795220000000  0.4574280000000 1.0
C      1  0.4867380000000  0.4635480000000  0.4774020000000 1.0
C      1  0.4790240000000  0.4888930000000  0.4906980000000 1.0
C      1  0.4920220000000  0.5201130000000  0.5244490000000 1.0
C      1  0.4375740000000  0.4909620000000  0.4900320000000 1.0
C      1  0.4969230000000  0.4960970000000  0.5112570000000 1.0
C      1  0.5478460000000  0.4873770000000  0.5571750000000 1.0
C      1  0.5144700000000  0.4613800000000  0.4733390000000 1.0
C      1  0.5600500000000  0.5256540000000  0.5227860000000 1.0
END
