TITL C-141440-3299-1 0.144782719250634 125000 -851.891712850827 0 0 123 (C1) n - 1
REM
REM in /rds/project/t2_vol4/rds-t2-cs072/BORA/CARBON/from-Arr/AIRSS/Generating-Clusters/GAP-ML-2020/Only-C1/SD-CG/HFTN-CG
REM
REM
REM
REM
REM
REM ./C.cell (11c1c37f851c82e70ff6c80c92926a4b)
REM AIRSS Version 0.9.1 bugfix July 2018 build 013d7b7c2542+ Fri, 06 Jul 2018 19:26:36 +0100
REM compiler GCC version 9.3.0
REM options -cpp -mtune=generic -march=x86-64 -g -O0
REM seed 1333462374 1807375587 -39997262 -907662125 -1398490677 -1234215560 -1547276565 2074178921 329841849 -854180588 -1197151425 920943268 -383920412 1476917578 554182685 1451088128 395550735 1691443942 -1635624562 -638287835 1370605703 436066500 1474628567 1592639932 915965669 -1552458515 -80889641 1031986947 -886393415 1164042914 -1621460984 1176075681 242381621
REM
CELL 1.54180   50.00000   50.00000   50.00000   90.00000   90.00000   90.00000
LATT -1
SFAC C  
C      1  0.5615030000000  0.5692240000000  0.5155510000000 1.0
C      1  0.4791980000000  0.5338710000000  0.4480860000000 1.0
C      1  0.4579500000000  0.5316050000000  0.4666640000000 1.0
C      1  0.4688690000000  0.5896560000000  0.4887440000000 1.0
C      1  0.5948520000000  0.5148500000000  0.4718850000000 1.0
C      1  0.5085990000000  0.5318060000000  0.4521340000000 1.0
C      1  0.5116330000000  0.4877940000000  0.5753320000000 1.0
C      1  0.4269200000000  0.4849980000000  0.4903500000000 1.0
C      1  0.4874150000000  0.5880960000000  0.5109390000000 1.0
C      1  0.5578550000000  0.5477920000000  0.5589650000000 1.0
C      1  0.5211960000000  0.5467070000000  0.4291220000000 1.0
C      1  0.4671500000000  0.5463650000000  0.5747720000000 1.0
C      1  0.5348030000000  0.5654700000000  0.5549140000000 1.0
C      1  0.4859110000000  0.5641670000000  0.5641040000000 1.0
C      1  0.5337810000000  0.5220690000000  0.5241330000000 1.0
C      1  0.4858120000000  0.4133820000000  0.4577860000000 1.0
C      1  0.4823060000000  0.4095690000000  0.5077140000000 1.0
C      1  0.5360650000000  0.5782470000000  0.5270670000000 1.0
C      1  0.4932700000000  0.4108750000000  0.5519080000000 1.0
C      1  0.5004210000000  0.5019840000000  0.4981630000000 1.0
C      1  0.5239700000000  0.4597360000000  0.4742600000000 1.0
C      1  0.5457780000000  0.5349990000000  0.4225430000000 1.0
C      1  0.5248150000000  0.4876910000000  0.4861570000000 1.0
C      1  0.5331500000000  0.4711410000000  0.5792780000000 1.0
C      1  0.5289400000000  0.4632830000000  0.5034390000000 1.0
C      1  0.5682630000000  0.4915650000000  0.5050290000000 1.0
C      1  0.5609190000000  0.4609170000000  0.5083750000000 1.0
C      1  0.4220730000000  0.4770460000000  0.5404690000000 1.0
C      1  0.5626900000000  0.4179630000000  0.4853330000000 1.0
C      1  0.4419020000000  0.4697590000000  0.4339020000000 1.0
C      1  0.4685080000000  0.5825340000000  0.4592820000000 1.0
C      1  0.4445800000000  0.4949240000000  0.4228310000000 1.0
C      1  0.5643210000000  0.4945760000000  0.4324080000000 1.0
C      1  0.4267450000000  0.5106600000000  0.5322290000000 1.0
C      1  0.4845800000000  0.4846980000000  0.4607600000000 1.0
C      1  0.5127890000000  0.5595720000000  0.5723490000000 1.0
C      1  0.4608490000000  0.4973050000000  0.5755990000000 1.0
C      1  0.4392130000000  0.4420330000000  0.5018100000000 1.0
C      1  0.4756320000000  0.5196310000000  0.5841970000000 1.0
C      1  0.5442390000000  0.4319130000000  0.5459240000000 1.0
C      1  0.5467830000000  0.5254240000000  0.5751960000000 1.0
C      1  0.4857300000000  0.5767120000000  0.4359950000000 1.0
C      1  0.5021260000000  0.4821320000000  0.5458410000000 1.0
C      1  0.4737360000000  0.5519880000000  0.4250560000000 1.0
C      1  0.4122200000000  0.5457640000000  0.5018500000000 1.0
C      1  0.5226710000000  0.5481530000000  0.5326630000000 1.0
C      1  0.5532500000000  0.4215510000000  0.4581020000000 1.0
C      1  0.5696120000000  0.4453610000000  0.4859680000000 1.0
C      1  0.4117670000000  0.5327670000000  0.4757890000000 1.0
C      1  0.4068680000000  0.5202790000000  0.5139230000000 1.0
C      1  0.4533300000000  0.4917320000000  0.5046510000000 1.0
C      1  0.4820950000000  0.5211450000000  0.5349010000000 1.0
C      1  0.4594660000000  0.4723450000000  0.5274980000000 1.0
C      1  0.5085300000000  0.4184000000000  0.4405020000000 1.0
C      1  0.5503700000000  0.4955740000000  0.5751800000000 1.0
C      1  0.4301420000000  0.5657960000000  0.5122310000000 1.0
C      1  0.5162860000000  0.5866040000000  0.5065170000000 1.0
C      1  0.4767110000000  0.5704470000000  0.5340740000000 1.0
C      1  0.5222940000000  0.3961230000000  0.4805360000000 1.0
C      1  0.4320250000000  0.5394360000000  0.4557590000000 1.0
C      1  0.4733540000000  0.4770000000000  0.5552220000000 1.0
C      1  0.4929240000000  0.5336050000000  0.4963940000000 1.0
C      1  0.4686560000000  0.5064230000000  0.4065490000000 1.0
C      1  0.4944780000000  0.5069140000000  0.4445290000000 1.0
C      1  0.5796750000000  0.5151890000000  0.4487870000000 1.0
C      1  0.4722070000000  0.4385320000000  0.4647860000000 1.0
C      1  0.5066570000000  0.5049710000000  0.5280530000000 1.0
C      1  0.4553430000000  0.4341130000000  0.5466910000000 1.0
C      1  0.4950040000000  0.5007010000000  0.4152790000000 1.0
C      1  0.4165990000000  0.4788730000000  0.5669750000000 1.0
C      1  0.5839570000000  0.5265030000000  0.5224740000000 1.0
C      1  0.4472810000000  0.5638940000000  0.5356230000000 1.0
C      1  0.5739870000000  0.5505430000000  0.5336210000000 1.0
C      1  0.4742030000000  0.4479280000000  0.5636460000000 1.0
C      1  0.4360300000000  0.5233650000000  0.4286840000000 1.0
C      1  0.5421300000000  0.4045970000000  0.5003560000000 1.0
C      1  0.4076020000000  0.5062800000000  0.4881200000000 1.0
C      1  0.5665850000000  0.5408830000000  0.4415030000000 1.0
C      1  0.5342780000000  0.4115040000000  0.5273280000000 1.0
C      1  0.5589100000000  0.5623630000000  0.4590490000000 1.0
C      1  0.5274560000000  0.4437850000000  0.5668570000000 1.0
C      1  0.4785960000000  0.4848970000000  0.4897470000000 1.0
C      1  0.5212960000000  0.4902990000000  0.4110850000000 1.0
C      1  0.5807450000000  0.4646550000000  0.5529660000000 1.0
C      1  0.5523700000000  0.4514880000000  0.4606170000000 1.0
C      1  0.4282450000000  0.5235970000000  0.5582110000000 1.0
C      1  0.5302990000000  0.4057630000000  0.4543120000000 1.0
C      1  0.5069730000000  0.4615630000000  0.5228870000000 1.0
C      1  0.5631830000000  0.5068740000000  0.5304620000000 1.0
C      1  0.5542230000000  0.5586150000000  0.4889170000000 1.0
C      1  0.4941330000000  0.5460740000000  0.5260470000000 1.0
C      1  0.4561530000000  0.5174850000000  0.5172340000000 1.0
C      1  0.5096000000000  0.4463350000000  0.4325200000000 1.0
C      1  0.5028390000000  0.5131870000000  0.5866190000000 1.0
C      1  0.4820290000000  0.4603390000000  0.5081460000000 1.0
C      1  0.5289070000000  0.4649070000000  0.4222780000000 1.0
C      1  0.5147780000000  0.5744460000000  0.4340530000000 1.0
C      1  0.5156010000000  0.5406170000000  0.4797800000000 1.0
C      1  0.4308120000000  0.4580260000000  0.4800410000000 1.0
C      1  0.5208440000000  0.5344460000000  0.5839710000000 1.0
C      1  0.4686640000000  0.4355390000000  0.4956460000000 1.0
C      1  0.5257270000000  0.5715980000000  0.4826000000000 1.0
C      1  0.4437050000000  0.5474100000000  0.5587420000000 1.0
C      1  0.4973590000000  0.4583510000000  0.4571150000000 1.0
C      1  0.5917840000000  0.5111720000000  0.4984230000000 1.0
C      1  0.5072310000000  0.4051310000000  0.5288310000000 1.0
C      1  0.4574140000000  0.5343640000000  0.4117110000000 1.0
C      1  0.4682220000000  0.4118630000000  0.5361320000000 1.0
C      1  0.5345460000000  0.5776240000000  0.4544640000000 1.0
C      1  0.5484200000000  0.5029780000000  0.4856620000000 1.0
C      1  0.5659680000000  0.4490430000000  0.5364430000000 1.0
C      1  0.4326350000000  0.5010300000000  0.5751110000000 1.0
C      1  0.4936530000000  0.3996920000000  0.4822810000000 1.0
C      1  0.4424030000000  0.5686490000000  0.4628710000000 1.0
C      1  0.5401200000000  0.5293140000000  0.4940190000000 1.0
C      1  0.4994910000000  0.4341160000000  0.5668190000000 1.0
C      1  0.4416080000000  0.5791100000000  0.4901350000000 1.0
C      1  0.4379180000000  0.4522010000000  0.5297060000000 1.0
C      1  0.5693950000000  0.4901390000000  0.5550480000000 1.0
C      1  0.4454270000000  0.4525760000000  0.4555670000000 1.0
C      1  0.5447420000000  0.5073610000000  0.4162820000000 1.0
C      1  0.5547790000000  0.4678000000000  0.4359920000000 1.0
C      1  0.4643710000000  0.5331550000000  0.4932400000000 1.0
END
