TITL C-147421-6603-3 -15.3566346871819 125000 -261.674572983488 0 0 40 (C1) n - 1
REM
REM in /rds/project/t2_vol4/rds-t2-cs072/BORA/CARBON/from-Arr/AIRSS/Generating-Clusters/GAP-ML-2020/Only-C1/SD-CG/HFTN-CG
REM
REM
REM
REM
REM
REM ./C.cell (11c1c37f851c82e70ff6c80c92926a4b)
REM AIRSS Version 0.9.1 bugfix July 2018 build 013d7b7c2542+ Fri, 06 Jul 2018 19:26:36 +0100
REM compiler GCC version 9.3.0
REM options -cpp -mtune=generic -march=x86-64 -g -O0
REM seed 390359642 1929711746 -1263124334 151026966 82309400 -1871681729 1853669842 1342435920 250208960 -2087146324 1823517737 1516961197 -1031014730 565385819 -848670488 -828609361 -1948315030 -1099281780 2105257318 1506763625 1655542627 1588179491 1060746399 -456015697 414808152 -730594930 716543481 -798824726 1064818206 -1675693464 -1227847194 -975512188 109109970
REM
CELL 1.54180   50.00000   50.00000   50.00000   90.00000   90.00000   90.00000
LATT -1
SFAC C  
C      1  0.4534730000000  0.5224080000000  0.5440510000000 1.0
C      1  0.4842950000000  0.4825690000000  0.4536500000000 1.0
C      1  0.5327050000000  0.4861730000000  0.5290150000000 1.0
C      1  0.5036220000000  0.5043570000000  0.5588170000000 1.0
C      1  0.4905030000000  0.5085490000000  0.5147550000000 1.0
C      1  0.5366250000000  0.5156030000000  0.5291490000000 1.0
C      1  0.5089990000000  0.4856060000000  0.5089190000000 1.0
C      1  0.5072530000000  0.4984070000000  0.4461650000000 1.0
C      1  0.4658920000000  0.4985710000000  0.5303840000000 1.0
C      1  0.4677730000000  0.5435390000000  0.5448590000000 1.0
C      1  0.5531190000000  0.4744590000000  0.5081600000000 1.0
C      1  0.4823440000000  0.5533050000000  0.4916230000000 1.0
C      1  0.4562990000000  0.4502000000000  0.5191180000000 1.0
C      1  0.4614050000000  0.5222810000000  0.4710500000000 1.0
C      1  0.4400350000000  0.4538350000000  0.4752050000000 1.0
C      1  0.4588390000000  0.4957670000000  0.4635830000000 1.0
C      1  0.5344460000000  0.4932140000000  0.4422260000000 1.0
C      1  0.5425100000000  0.5448950000000  0.4907520000000 1.0
C      1  0.5537760000000  0.4979120000000  0.4894450000000 1.0
C      1  0.4651110000000  0.4455150000000  0.4776000000000 1.0
C      1  0.5360320000000  0.5328510000000  0.4656610000000 1.0
C      1  0.5235130000000  0.4990860000000  0.4886250000000 1.0
C      1  0.5302810000000  0.4455190000000  0.4968630000000 1.0
C      1  0.5553120000000  0.4478940000000  0.5027530000000 1.0
C      1  0.4999760000000  0.5631640000000  0.5118150000000 1.0
C      1  0.4938460000000  0.5487880000000  0.5365030000000 1.0
C      1  0.4525900000000  0.4784360000000  0.5135020000000 1.0
C      1  0.4888660000000  0.4589940000000  0.4685750000000 1.0
C      1  0.4599640000000  0.5488760000000  0.4764820000000 1.0
C      1  0.5508590000000  0.5216250000000  0.5062170000000 1.0
C      1  0.5036660000000  0.4571290000000  0.4962880000000 1.0
C      1  0.5151730000000  0.4808740000000  0.5516440000000 1.0
C      1  0.5252840000000  0.5615450000000  0.5025500000000 1.0
C      1  0.5516850000000  0.5066410000000  0.4594090000000 1.0
C      1  0.4769510000000  0.4403100000000  0.5038490000000 1.0
C      1  0.4459890000000  0.4794630000000  0.4846140000000 1.0
C      1  0.5100820000000  0.5179640000000  0.4700700000000 1.0
C      1  0.4851480000000  0.4858310000000  0.5518110000000 1.0
C      1  0.4876810000000  0.5241000000000  0.4884950000000 1.0
C      1  0.5080760000000  0.5237440000000  0.5357460000000 1.0
END
