TITL C-149877-9008-3 -0.0987244037640258 125000 -759.446004846826 0 0 108 (C1) n - 1
REM
REM in /rds/project/t2_vol4/rds-t2-cs072/BORA/CARBON/from-Arr/AIRSS/Generating-Clusters/GAP-ML-2020/Only-C1/SD-CG/HFTN-CG
REM
REM
REM
REM
REM
REM ./C.cell (11c1c37f851c82e70ff6c80c92926a4b)
REM AIRSS Version 0.9.1 bugfix July 2018 build 013d7b7c2542+ Fri, 06 Jul 2018 19:26:36 +0100
REM compiler GCC version 9.3.0
REM options -cpp -mtune=generic -march=x86-64 -g -O0
REM seed 397252478 1290876801 -566326010 -658770780 242879880 1896021709 -1144969013 112895137 -1550661125 -536206259 -391632679 -55421576 -1048329878 1472250802 -1692694651 291479986 -673962747 -531046328 -632613675 1347775317 -1289269946 1461440546 -470207748 -689718710 1021192986 1215739588 509717922 -1458778184 -1946074650 -963113368 -352706989 754081229 -1897190146
REM
CELL 1.54180   50.00000   50.00000   50.00000   90.00000   90.00000   90.00000
LATT -1
SFAC C  
C      1  0.5089800000000  0.4234460000000  0.5548230000000 1.0
C      1  0.5637810000000  0.5593080000000  0.4845550000000 1.0
C      1  0.5365530000000  0.4799030000000  0.4950010000000 1.0
C      1  0.4842650000000  0.5440470000000  0.4782210000000 1.0
C      1  0.4719230000000  0.5884660000000  0.5151700000000 1.0
C      1  0.5552130000000  0.5385760000000  0.4194750000000 1.0
C      1  0.4355750000000  0.4589890000000  0.4889170000000 1.0
C      1  0.5305150000000  0.4703060000000  0.5521110000000 1.0
C      1  0.4381450000000  0.5574700000000  0.5030470000000 1.0
C      1  0.5082970000000  0.5096860000000  0.4606060000000 1.0
C      1  0.5342560000000  0.4392550000000  0.5533820000000 1.0
C      1  0.4563720000000  0.5357090000000  0.4408040000000 1.0
C      1  0.4912960000000  0.4301170000000  0.5742190000000 1.0
C      1  0.4668630000000  0.4423160000000  0.5728760000000 1.0
C      1  0.4948040000000  0.5347180000000  0.5046280000000 1.0
C      1  0.4767410000000  0.4879540000000  0.4186220000000 1.0
C      1  0.4426560000000  0.4839170000000  0.5095610000000 1.0
C      1  0.5047720000000  0.5382230000000  0.4590240000000 1.0
C      1  0.5750100000000  0.5409220000000  0.5278680000000 1.0
C      1  0.5621930000000  0.5620270000000  0.5135830000000 1.0
C      1  0.4157040000000  0.5245250000000  0.4665140000000 1.0
C      1  0.4737490000000  0.4692430000000  0.4609400000000 1.0
C      1  0.5547160000000  0.4280230000000  0.5395290000000 1.0
C      1  0.5103220000000  0.5543990000000  0.5651220000000 1.0
C      1  0.4363010000000  0.5325510000000  0.4874140000000 1.0
C      1  0.5006210000000  0.5041310000000  0.5382020000000 1.0
C      1  0.4912070000000  0.4665390000000  0.5068910000000 1.0
C      1  0.5100190000000  0.4153200000000  0.4574610000000 1.0
C      1  0.5218190000000  0.5254330000000  0.5041890000000 1.0
C      1  0.5052360000000  0.4811330000000  0.4197630000000 1.0
C      1  0.5010470000000  0.4775740000000  0.5515290000000 1.0
C      1  0.4266080000000  0.5269930000000  0.4409960000000 1.0
C      1  0.4368930000000  0.4730020000000  0.5372310000000 1.0
C      1  0.4354570000000  0.5505350000000  0.5301920000000 1.0
C      1  0.4988910000000  0.5927480000000  0.5064740000000 1.0
C      1  0.4633500000000  0.4708030000000  0.5778770000000 1.0
C      1  0.4442760000000  0.5142980000000  0.5567870000000 1.0
C      1  0.4896240000000  0.5697990000000  0.4259130000000 1.0
C      1  0.5163570000000  0.5854790000000  0.5288310000000 1.0
C      1  0.5444630000000  0.5133230000000  0.4231780000000 1.0
C      1  0.4601770000000  0.4706350000000  0.4349590000000 1.0
C      1  0.5649320000000  0.4795700000000  0.4797070000000 1.0
C      1  0.5915790000000  0.5221690000000  0.5111250000000 1.0
C      1  0.4266710000000  0.5093180000000  0.5063950000000 1.0
C      1  0.5315480000000  0.4313560000000  0.4947410000000 1.0
C      1  0.5583000000000  0.4328020000000  0.5125140000000 1.0
C      1  0.5409780000000  0.4490100000000  0.4450230000000 1.0
C      1  0.4457290000000  0.4860190000000  0.5606260000000 1.0
C      1  0.5581500000000  0.4703040000000  0.4517840000000 1.0
C      1  0.5689850000000  0.4910670000000  0.5356470000000 1.0
C      1  0.4354140000000  0.4452410000000  0.5360170000000 1.0
C      1  0.4585320000000  0.4473790000000  0.4743860000000 1.0
C      1  0.4217530000000  0.4762310000000  0.4681840000000 1.0
C      1  0.5256080000000  0.5047480000000  0.5872800000000 1.0
C      1  0.4991200000000  0.4353730000000  0.4419100000000 1.0
C      1  0.5614280000000  0.5343930000000  0.5525790000000 1.0
C      1  0.4684070000000  0.5641930000000  0.4414730000000 1.0
C      1  0.4624040000000  0.5253030000000  0.4696110000000 1.0
C      1  0.4742300000000  0.5721950000000  0.4717620000000 1.0
C      1  0.5797390000000  0.4469100000000  0.5035830000000 1.0
C      1  0.4559320000000  0.5776470000000  0.4947770000000 1.0
C      1  0.4937850000000  0.4103290000000  0.4807300000000 1.0
C      1  0.5386180000000  0.5533320000000  0.5548530000000 1.0
C      1  0.4115310000000  0.5002240000000  0.4801700000000 1.0
C      1  0.4325460000000  0.5031650000000  0.4272140000000 1.0
C      1  0.4291120000000  0.5229850000000  0.5335620000000 1.0
C      1  0.4880430000000  0.4588870000000  0.5324070000000 1.0
C      1  0.5209220000000  0.5800000000000  0.4625710000000 1.0
C      1  0.5417940000000  0.4843910000000  0.5255320000000 1.0
C      1  0.4968510000000  0.4115420000000  0.5304470000000 1.0
C      1  0.4623730000000  0.5363220000000  0.5657820000000 1.0
C      1  0.4675540000000  0.4214510000000  0.4824250000000 1.0
C      1  0.4535400000000  0.4167890000000  0.5065800000000 1.0
C      1  0.5768630000000  0.5339500000000  0.4766390000000 1.0
C      1  0.5868930000000  0.4724270000000  0.4981000000000 1.0
C      1  0.4883770000000  0.4839010000000  0.5782380000000 1.0
C      1  0.5478720000000  0.5696930000000  0.4634180000000 1.0
C      1  0.5632220000000  0.5066260000000  0.5591350000000 1.0
C      1  0.4996580000000  0.5878240000000  0.4783300000000 1.0
C      1  0.5160990000000  0.4550870000000  0.4298910000000 1.0
C      1  0.5556380000000  0.4968480000000  0.4424370000000 1.0
C      1  0.5193170000000  0.5021740000000  0.4319880000000 1.0
C      1  0.5134570000000  0.5603930000000  0.4401900000000 1.0
C      1  0.4747570000000  0.4911170000000  0.5013890000000 1.0
C      1  0.4541480000000  0.4296110000000  0.5508000000000 1.0
C      1  0.4680370000000  0.4133940000000  0.5310720000000 1.0
C      1  0.4785850000000  0.4986700000000  0.4728430000000 1.0
C      1  0.4897720000000  0.5354860000000  0.5760920000000 1.0
C      1  0.5144110000000  0.4595310000000  0.4896730000000 1.0
C      1  0.4327370000000  0.4784220000000  0.4405790000000 1.0
C      1  0.4994050000000  0.5755900000000  0.5499550000000 1.0
C      1  0.5348760000000  0.4271220000000  0.4644320000000 1.0
C      1  0.4603850000000  0.5117880000000  0.4199680000000 1.0
C      1  0.6023950000000  0.5298720000000  0.4865260000000 1.0
C      1  0.4988560000000  0.5096140000000  0.5866640000000 1.0
C      1  0.5896920000000  0.4944300000000  0.5175320000000 1.0
C      1  0.5259620000000  0.5096270000000  0.5279710000000 1.0
C      1  0.4997530000000  0.4582780000000  0.4623970000000 1.0
C      1  0.4544580000000  0.5583840000000  0.5496930000000 1.0
C      1  0.5411830000000  0.5712970000000  0.5322420000000 1.0
C      1  0.5424060000000  0.4917700000000  0.5714790000000 1.0
C      1  0.5299920000000  0.5075290000000  0.4824330000000 1.0
C      1  0.4820360000000  0.5136230000000  0.5183340000000 1.0
C      1  0.5437690000000  0.5563210000000  0.4365820000000 1.0
C      1  0.5587110000000  0.5094290000000  0.4697620000000 1.0
C      1  0.4335940000000  0.4368350000000  0.5091010000000 1.0
C      1  0.5091380000000  0.4126960000000  0.5043770000000 1.0
C      1  0.4723880000000  0.5781560000000  0.5418600000000 1.0
END
