TITL C-142185-2880-4 -0.0152966958522769 125000 -800.579533475536 0 0 116 (C1) n - 1
REM
REM in /rds/project/t2_vol4/rds-t2-cs072/BORA/CARBON/from-Arr/AIRSS/Generating-Clusters/GAP-ML-2020/Only-C1/SD-CG/HFTN-CG
REM
REM
REM
REM
REM
REM ./C.cell (11c1c37f851c82e70ff6c80c92926a4b)
REM AIRSS Version 0.9.1 bugfix July 2018 build 013d7b7c2542+ Fri, 06 Jul 2018 19:26:36 +0100
REM compiler GCC version 9.3.0
REM options -cpp -mtune=generic -march=x86-64 -g -O0
REM seed -1111288164 -717656190 -10492868 -563050765 1090221424 1665301113 1399909369 -1477418264 -1857643468 -520493785 93299587 1144632456 -1761149072 1250802869 -518581521 221946484 -21381457 -1304400946 2048112389 1574554264 1763783978 -1810112946 982505803 1089401591 -1911995719 422363326 -363754818 -151310090 -1938163825 -267425460 -1622055055 1094614702 -1874931164
REM
CELL 1.54180   50.00000   50.00000   50.00000   90.00000   90.00000   90.00000
LATT -1
SFAC C  
C      1  0.5158470000000  0.4548540000000  0.5114210000000 1.0
C      1  0.4760130000000  0.5269810000000  0.4925340000000 1.0
C      1  0.4857330000000  0.4236420000000  0.5293690000000 1.0
C      1  0.5120260000000  0.5906730000000  0.4747780000000 1.0
C      1  0.4933080000000  0.4463810000000  0.4329860000000 1.0
C      1  0.4908610000000  0.4630450000000  0.4956770000000 1.0
C      1  0.5858590000000  0.4847900000000  0.4743960000000 1.0
C      1  0.5383530000000  0.4158660000000  0.5207280000000 1.0
C      1  0.5748730000000  0.5569750000000  0.4819620000000 1.0
C      1  0.4262750000000  0.4389270000000  0.4868490000000 1.0
C      1  0.5141920000000  0.5246780000000  0.5518060000000 1.0
C      1  0.4542840000000  0.4718080000000  0.5704730000000 1.0
C      1  0.4982790000000  0.5034510000000  0.5746350000000 1.0
C      1  0.5225990000000  0.5362720000000  0.5974260000000 1.0
C      1  0.4192750000000  0.4940530000000  0.4345550000000 1.0
C      1  0.4290540000000  0.5072040000000  0.5511240000000 1.0
C      1  0.5104920000000  0.4692000000000  0.4313030000000 1.0
C      1  0.5534110000000  0.4615930000000  0.5762220000000 1.0
C      1  0.5232680000000  0.5503460000000  0.5133860000000 1.0
C      1  0.5485190000000  0.5311790000000  0.6016390000000 1.0
C      1  0.5431600000000  0.4638400000000  0.4995350000000 1.0
C      1  0.5204230000000  0.5457230000000  0.4833780000000 1.0
C      1  0.5150800000000  0.4219020000000  0.4766620000000 1.0
C      1  0.4510850000000  0.5554380000000  0.4662360000000 1.0
C      1  0.4648210000000  0.5870140000000  0.5017590000000 1.0
C      1  0.5092570000000  0.4551330000000  0.5627970000000 1.0
C      1  0.4416390000000  0.4382170000000  0.5408960000000 1.0
C      1  0.5259750000000  0.5745590000000  0.4337730000000 1.0
C      1  0.4428060000000  0.4999280000000  0.4180830000000 1.0
C      1  0.5869030000000  0.5320450000000  0.4918830000000 1.0
C      1  0.4289240000000  0.4791530000000  0.5597350000000 1.0
C      1  0.4488710000000  0.5587570000000  0.5335240000000 1.0
C      1  0.5129870000000  0.5195110000000  0.4278450000000 1.0
C      1  0.4819090000000  0.5200000000000  0.5212870000000 1.0
C      1  0.5221420000000  0.4783590000000  0.4569870000000 1.0
C      1  0.4949480000000  0.4299270000000  0.4586670000000 1.0
C      1  0.4675800000000  0.5376150000000  0.5445230000000 1.0
C      1  0.5684140000000  0.4720360000000  0.4553030000000 1.0
C      1  0.4842960000000  0.4895720000000  0.5335560000000 1.0
C      1  0.5386790000000  0.4827700000000  0.5879870000000 1.0
C      1  0.4745730000000  0.4410620000000  0.4772610000000 1.0
C      1  0.5888320000000  0.4837290000000  0.5466120000000 1.0
C      1  0.5443250000000  0.4906650000000  0.5110290000000 1.0
C      1  0.4189760000000  0.4656600000000  0.4421700000000 1.0
C      1  0.5474280000000  0.5570790000000  0.4334900000000 1.0
C      1  0.4541800000000  0.5029260000000  0.4661530000000 1.0
C      1  0.4438450000000  0.4506080000000  0.4381290000000 1.0
C      1  0.4726050000000  0.4945740000000  0.5629000000000 1.0
C      1  0.5063430000000  0.4930620000000  0.4155550000000 1.0
C      1  0.4599100000000  0.4448840000000  0.5616300000000 1.0
C      1  0.5412850000000  0.4883300000000  0.5398530000000 1.0
C      1  0.5790130000000  0.5255690000000  0.4472430000000 1.0
C      1  0.4936670000000  0.5757520000000  0.5396290000000 1.0
C      1  0.5510620000000  0.5541130000000  0.5222830000000 1.0
C      1  0.4441880000000  0.5713500000000  0.4892910000000 1.0
C      1  0.5395100000000  0.5322150000000  0.4217400000000 1.0
C      1  0.4712060000000  0.4732610000000  0.5145480000000 1.0
C      1  0.5134220000000  0.4728510000000  0.5369920000000 1.0
C      1  0.5333930000000  0.5876950000000  0.4951520000000 1.0
C      1  0.5635260000000  0.5320590000000  0.5344640000000 1.0
C      1  0.4995710000000  0.5498610000000  0.5859860000000 1.0
C      1  0.4226890000000  0.4616540000000  0.5384370000000 1.0
C      1  0.5702710000000  0.5519320000000  0.4526970000000 1.0
C      1  0.5839920000000  0.5201660000000  0.5177000000000 1.0
C      1  0.5118480000000  0.4788670000000  0.5816420000000 1.0
C      1  0.4028550000000  0.5084650000000  0.4801450000000 1.0
C      1  0.5043900000000  0.5791480000000  0.4486330000000 1.0
C      1  0.4078530000000  0.5103690000000  0.4536450000000 1.0
C      1  0.5487490000000  0.5106450000000  0.5827600000000 1.0
C      1  0.5107540000000  0.5773580000000  0.5158230000000 1.0
C      1  0.5106250000000  0.5243580000000  0.5222840000000 1.0
C      1  0.4464250000000  0.4778220000000  0.5036350000000 1.0
C      1  0.4155620000000  0.4624100000000  0.4715940000000 1.0
C      1  0.5581340000000  0.5115320000000  0.4325860000000 1.0
C      1  0.5893230000000  0.5130370000000  0.4706130000000 1.0
C      1  0.4312930000000  0.5555320000000  0.5101500000000 1.0
C      1  0.4538880000000  0.5170580000000  0.5592660000000 1.0
C      1  0.5442110000000  0.4601140000000  0.4685280000000 1.0
C      1  0.5355050000000  0.4404650000000  0.5658430000000 1.0
C      1  0.5634860000000  0.4843840000000  0.4307030000000 1.0
C      1  0.4915370000000  0.5497490000000  0.4803120000000 1.0
C      1  0.4602940000000  0.4775640000000  0.4090220000000 1.0
C      1  0.4851040000000  0.5343450000000  0.4305730000000 1.0
C      1  0.5565840000000  0.4252290000000  0.4997220000000 1.0
C      1  0.5108740000000  0.4239850000000  0.5110480000000 1.0
C      1  0.5024030000000  0.4861880000000  0.4805860000000 1.0
C      1  0.4820380000000  0.5049940000000  0.4728110000000 1.0
C      1  0.5313940000000  0.5210880000000  0.4773170000000 1.0
C      1  0.4589870000000  0.4578310000000  0.4607060000000 1.0
C      1  0.5918660000000  0.4916250000000  0.5209720000000 1.0
C      1  0.4913050000000  0.5799590000000  0.4926670000000 1.0
C      1  0.4664760000000  0.5185920000000  0.4149670000000 1.0
C      1  0.4945770000000  0.5508110000000  0.5572400000000 1.0
C      1  0.4444910000000  0.4778020000000  0.4752910000000 1.0
C      1  0.4660180000000  0.5810150000000  0.5299900000000 1.0
C      1  0.4504580000000  0.4290140000000  0.4938930000000 1.0
C      1  0.5691230000000  0.4503790000000  0.5052080000000 1.0
C      1  0.5304970000000  0.5072750000000  0.4518810000000 1.0
C      1  0.5416820000000  0.4294890000000  0.4747810000000 1.0
C      1  0.4865370000000  0.4375360000000  0.5548220000000 1.0
C      1  0.4023750000000  0.4813670000000  0.4895910000000 1.0
C      1  0.4191850000000  0.5086650000000  0.5245110000000 1.0
C      1  0.5585690000000  0.5723160000000  0.5004670000000 1.0
C      1  0.5653680000000  0.4738610000000  0.5538420000000 1.0
C      1  0.4806950000000  0.5554810000000  0.4521340000000 1.0
C      1  0.4220670000000  0.5276440000000  0.5013970000000 1.0
C      1  0.4190310000000  0.4807780000000  0.5150400000000 1.0
C      1  0.5437950000000  0.5164340000000  0.5532710000000 1.0
C      1  0.4979780000000  0.5235330000000  0.5960570000000 1.0
C      1  0.5882640000000  0.4718060000000  0.4999410000000 1.0
C      1  0.5405150000000  0.4216320000000  0.5472470000000 1.0
C      1  0.4464720000000  0.5283860000000  0.4803920000000 1.0
C      1  0.5226590000000  0.5049810000000  0.4995420000000 1.0
C      1  0.4815500000000  0.4959720000000  0.4039930000000 1.0
C      1  0.4576910000000  0.4240260000000  0.5210930000000 1.0
C      1  0.4664080000000  0.4526160000000  0.4211910000000 1.0
END
