TITL C-152493-7462-1 99.1705368113318 125000 -681.060130831579 0 0 96 (C1) n - 1
REM
REM in /rds/project/t2_vol4/rds-t2-cs072/BORA/CARBON/from-Arr/AIRSS/Generating-Clusters/GAP-ML-2020/Only-C1/SD-CG/HFTN-CG
REM
REM
REM
REM
REM
REM ./C.cell (11c1c37f851c82e70ff6c80c92926a4b)
REM AIRSS Version 0.9.1 bugfix July 2018 build 013d7b7c2542+ Fri, 06 Jul 2018 19:26:36 +0100
REM compiler GCC version 9.3.0
REM options -cpp -mtune=generic -march=x86-64 -g -O0
REM seed 1303737491 188637386 1486866751 475270921 1399307795 1107506969 1607374366 -417108324 -1453813400 570226090 984155143 -206845786 -4865083 -1058722014 -1646639131 -1834441361 -1072529458 575712839 -1371801940 438707740 858678555 608335063 354224634 8055913 518737640 1990550480 -1347115613 -1587887007 -189509263 -957466754 530997920 -1225079999 439521432
REM
CELL 1.54180   50.00000   50.00000   50.00000   90.00000   90.00000   90.00000
LATT -1
SFAC C  
C      1  0.5059050000000  0.4865920000000  0.5909080000000 1.0
C      1  0.5158680000000  0.5795370000000  0.4958350000000 1.0
C      1  0.4464920000000  0.4707110000000  0.5617450000000 1.0
C      1  0.5424810000000  0.5656420000000  0.4924570000000 1.0
C      1  0.5733290000000  0.4773600000000  0.4942550000000 1.0
C      1  0.4734820000000  0.5716200000000  0.5189250000000 1.0
C      1  0.5578460000000  0.5206870000000  0.4355680000000 1.0
C      1  0.4839110000000  0.5547470000000  0.4945920000000 1.0
C      1  0.5025280000000  0.4049190000000  0.5081170000000 1.0
C      1  0.4772240000000  0.4256460000000  0.5456790000000 1.0
C      1  0.4406190000000  0.4867580000000  0.5189600000000 1.0
C      1  0.4842030000000  0.4414890000000  0.5681950000000 1.0
C      1  0.4425080000000  0.5382770000000  0.5296890000000 1.0
C      1  0.5385790000000  0.5122460000000  0.5732750000000 1.0
C      1  0.4577020000000  0.5609400000000  0.4498210000000 1.0
C      1  0.4311100000000  0.4623370000000  0.4776820000000 1.0
C      1  0.4282060000000  0.4723450000000  0.4512750000000 1.0
C      1  0.4382280000000  0.5108590000000  0.5377900000000 1.0
C      1  0.4803410000000  0.4090580000000  0.4927550000000 1.0
C      1  0.4556440000000  0.4335480000000  0.5296460000000 1.0
C      1  0.4782610000000  0.4627760000000  0.4922840000000 1.0
C      1  0.5337180000000  0.4434970000000  0.4912140000000 1.0
C      1  0.5845850000000  0.4969270000000  0.5116580000000 1.0
C      1  0.5104470000000  0.5646420000000  0.5454910000000 1.0
C      1  0.5093380000000  0.4533450000000  0.5052410000000 1.0
C      1  0.4945960000000  0.5188130000000  0.4664840000000 1.0
C      1  0.4975920000000  0.4572630000000  0.4253200000000 1.0
C      1  0.4882640000000  0.5285080000000  0.5764940000000 1.0
C      1  0.5226220000000  0.4496150000000  0.4407610000000 1.0
C      1  0.4515740000000  0.4451480000000  0.4854670000000 1.0
C      1  0.5011890000000  0.4138970000000  0.5352030000000 1.0
C      1  0.4786110000000  0.4841120000000  0.5897230000000 1.0
C      1  0.5748830000000  0.5415320000000  0.5221370000000 1.0
C      1  0.4348720000000  0.5502590000000  0.5037000000000 1.0
C      1  0.4523540000000  0.5729920000000  0.4984150000000 1.0
C      1  0.4332950000000  0.5171320000000  0.4373020000000 1.0
C      1  0.5182320000000  0.5377430000000  0.4575380000000 1.0
C      1  0.4671090000000  0.5086850000000  0.5798680000000 1.0
C      1  0.5612700000000  0.4517610000000  0.5328130000000 1.0
C      1  0.5588120000000  0.4939690000000  0.4743370000000 1.0
C      1  0.5601330000000  0.4540180000000  0.5039110000000 1.0
C      1  0.5122520000000  0.4433210000000  0.5706720000000 1.0
C      1  0.4257950000000  0.5359550000000  0.4805990000000 1.0
C      1  0.5036410000000  0.5622990000000  0.4509910000000 1.0
C      1  0.4655960000000  0.5766110000000  0.4728080000000 1.0
C      1  0.5018190000000  0.5782070000000  0.5216240000000 1.0
C      1  0.5191770000000  0.4942940000000  0.4339650000000 1.0
C      1  0.5233300000000  0.4324020000000  0.4661810000000 1.0
C      1  0.5784890000000  0.4978140000000  0.5391040000000 1.0
C      1  0.4747860000000  0.4610280000000  0.4408470000000 1.0
C      1  0.4870570000000  0.5505980000000  0.5580190000000 1.0
C      1  0.4247950000000  0.4854340000000  0.4949320000000 1.0
C      1  0.4779520000000  0.5062920000000  0.4128710000000 1.0
C      1  0.5171840000000  0.4775640000000  0.5153860000000 1.0
C      1  0.5000330000000  0.5180450000000  0.5137940000000 1.0
C      1  0.4944190000000  0.4923740000000  0.5264920000000 1.0
C      1  0.4671620000000  0.4612400000000  0.5781190000000 1.0
C      1  0.4880330000000  0.5340060000000  0.4148890000000 1.0
C      1  0.4837990000000  0.5252260000000  0.4916170000000 1.0
C      1  0.4812210000000  0.5547870000000  0.4344820000000 1.0
C      1  0.5694440000000  0.5411630000000  0.4542440000000 1.0
C      1  0.5536080000000  0.5603060000000  0.5202740000000 1.0
C      1  0.5123690000000  0.5135200000000  0.5839480000000 1.0
C      1  0.4704770000000  0.4800100000000  0.5148720000000 1.0
C      1  0.5240070000000  0.4678450000000  0.5797670000000 1.0
C      1  0.5146300000000  0.5351060000000  0.4087270000000 1.0
C      1  0.5264060000000  0.5185160000000  0.5025320000000 1.0
C      1  0.5287660000000  0.5240050000000  0.4313100000000 1.0
C      1  0.4851500000000  0.4731220000000  0.4670010000000 1.0
C      1  0.4445420000000  0.4602670000000  0.5359130000000 1.0
C      1  0.5647900000000  0.4759430000000  0.5500270000000 1.0
C      1  0.4566140000000  0.4237000000000  0.5023030000000 1.0
C      1  0.5057500000000  0.4927880000000  0.4650660000000 1.0
C      1  0.4522380000000  0.5000890000000  0.4223880000000 1.0
C      1  0.5505510000000  0.5339280000000  0.5592050000000 1.0
C      1  0.4956480000000  0.5756180000000  0.4748840000000 1.0
C      1  0.5617970000000  0.5656630000000  0.4664910000000 1.0
C      1  0.4982890000000  0.4848060000000  0.4165180000000 1.0
C      1  0.5046980000000  0.4136130000000  0.4793540000000 1.0
C      1  0.4368400000000  0.5416250000000  0.4536650000000 1.0
C      1  0.5472970000000  0.4307920000000  0.5417160000000 1.0
C      1  0.5811700000000  0.5239430000000  0.5015020000000 1.0
C      1  0.5647630000000  0.5239120000000  0.4784060000000 1.0
C      1  0.5361960000000  0.5375740000000  0.4823570000000 1.0
C      1  0.4646360000000  0.5547580000000  0.5404200000000 1.0
C      1  0.4170530000000  0.4991280000000  0.4522730000000 1.0
C      1  0.5388830000000  0.4729370000000  0.4359120000000 1.0
C      1  0.5229880000000  0.4251760000000  0.5505240000000 1.0
C      1  0.5456450000000  0.4838900000000  0.5694650000000 1.0
C      1  0.4460270000000  0.5000680000000  0.5625600000000 1.0
C      1  0.4500540000000  0.4725690000000  0.4329570000000 1.0
C      1  0.4164120000000  0.5081140000000  0.4793130000000 1.0
C      1  0.5590680000000  0.4912910000000  0.4451320000000 1.0
C      1  0.5274640000000  0.4925790000000  0.4890500000000 1.0
C      1  0.5381540000000  0.5568870000000  0.5447830000000 1.0
C      1  0.5730750000000  0.5252990000000  0.5452140000000 1.0
END
