TITL C-150998-9551-3 0.103147742764684 125000 -357.141227677672 0 0 53 (C1) n - 1
REM
REM in /rds/project/t2_vol4/rds-t2-cs072/BORA/CARBON/from-Arr/AIRSS/Generating-Clusters/GAP-ML-2020/Only-C1/SD-CG/HFTN-CG
REM
REM
REM
REM
REM
REM ./C.cell (11c1c37f851c82e70ff6c80c92926a4b)
REM AIRSS Version 0.9.1 bugfix July 2018 build 013d7b7c2542+ Fri, 06 Jul 2018 19:26:36 +0100
REM compiler GCC version 9.3.0
REM options -cpp -mtune=generic -march=x86-64 -g -O0
REM seed -1179191855 -2090830620 -1304450677 -668731036 158534478 53027715 -1699801405 -1453325961 -638569444 -163878587 1208784053 -1526950985 -1787128628 1013525833 955134180 -1811819119 -1175337763 566582335 32296947 -232538536 -1268225976 -1549566848 283764987 -1452920974 -2075355554 -96366268 188356006 -544508946 -521921792 1796119425 1530655676 -1666624915 1122827661
REM
CELL 1.54180   50.00000   50.00000   50.00000   90.00000   90.00000   90.00000
LATT -1
SFAC C  
C      1  0.4716240000000  0.4912340000000  0.4583910000000 1.0
C      1  0.5534230000000  0.4833820000000  0.4806510000000 1.0
C      1  0.4523700000000  0.5327840000000  0.4811950000000 1.0
C      1  0.4713800000000  0.4613670000000  0.4584660000000 1.0
C      1  0.4835400000000  0.5327260000000  0.5560570000000 1.0
C      1  0.4911510000000  0.4725220000000  0.4203960000000 1.0
C      1  0.5233150000000  0.5124180000000  0.5034550000000 1.0
C      1  0.4934170000000  0.5116590000000  0.5013790000000 1.0
C      1  0.4950690000000  0.4567300000000  0.4428550000000 1.0
C      1  0.5028980000000  0.4469610000000  0.5285320000000 1.0
C      1  0.5117040000000  0.5611500000000  0.5229840000000 1.0
C      1  0.4852680000000  0.4971980000000  0.4312220000000 1.0
C      1  0.4667440000000  0.4672330000000  0.5547510000000 1.0
C      1  0.5363370000000  0.4798340000000  0.4586670000000 1.0
C      1  0.5648980000000  0.5102770000000  0.5176560000000 1.0
C      1  0.4990170000000  0.5058920000000  0.5509710000000 1.0
C      1  0.5069780000000  0.5478920000000  0.5479730000000 1.0
C      1  0.5361880000000  0.5520740000000  0.4851160000000 1.0
C      1  0.5202010000000  0.4632890000000  0.5451280000000 1.0
C      1  0.5083780000000  0.4298100000000  0.5068930000000 1.0
C      1  0.4348170000000  0.5520140000000  0.4768200000000 1.0
C      1  0.4512570000000  0.5033840000000  0.4760180000000 1.0
C      1  0.5307730000000  0.4825320000000  0.5016410000000 1.0
C      1  0.4750630000000  0.5365340000000  0.5022490000000 1.0
C      1  0.5410650000000  0.4746750000000  0.5298380000000 1.0
C      1  0.4832840000000  0.4660120000000  0.5763470000000 1.0
C      1  0.5065210000000  0.5641240000000  0.4488330000000 1.0
C      1  0.5209180000000  0.5062100000000  0.4589630000000 1.0
C      1  0.5234440000000  0.5246840000000  0.5482930000000 1.0
C      1  0.4545850000000  0.5023540000000  0.5265630000000 1.0
C      1  0.4857360000000  0.4952340000000  0.5252860000000 1.0
C      1  0.4788610000000  0.4634900000000  0.5266280000000 1.0
C      1  0.4890390000000  0.4280470000000  0.4872860000000 1.0
C      1  0.5070470000000  0.5172830000000  0.4342990000000 1.0
C      1  0.4588500000000  0.5314800000000  0.5273150000000 1.0
C      1  0.4938620000000  0.5596950000000  0.5003040000000 1.0
C      1  0.5061690000000  0.5447040000000  0.4319930000000 1.0
C      1  0.5634700000000  0.5090520000000  0.4877290000000 1.0
C      1  0.5417960000000  0.5273940000000  0.5254130000000 1.0
C      1  0.5077700000000  0.4724850000000  0.4863980000000 1.0
C      1  0.4966770000000  0.4972810000000  0.4756170000000 1.0
C      1  0.5375440000000  0.5536110000000  0.5137400000000 1.0
C      1  0.5382090000000  0.5234690000000  0.4787210000000 1.0
C      1  0.5105530000000  0.5634290000000  0.4764940000000 1.0
C      1  0.5172480000000  0.4566250000000  0.4614180000000 1.0
C      1  0.4682650000000  0.4467260000000  0.4819370000000 1.0
C      1  0.4498120000000  0.4890400000000  0.5002720000000 1.0
C      1  0.5039210000000  0.4790030000000  0.5644890000000 1.0
C      1  0.4616940000000  0.4634870000000  0.5030550000000 1.0
C      1  0.4583690000000  0.5429860000000  0.5522510000000 1.0
C      1  0.4487600000000  0.4873760000000  0.5501960000000 1.0
C      1  0.5657160000000  0.4870890000000  0.5328430000000 1.0
C      1  0.5150070000000  0.4320590000000  0.4780180000000 1.0
END
