TITL C-151867-9478-9 -0.0258410919840605 125000 -146.881415341211 0 0 23 (C1) n - 1
REM
REM in /rds/project/t2_vol4/rds-t2-cs072/BORA/CARBON/from-Arr/AIRSS/Generating-Clusters/GAP-ML-2020/Only-C1/SD-CG/HFTN-CG
REM
REM
REM
REM
REM
REM ./C.cell (11c1c37f851c82e70ff6c80c92926a4b)
REM AIRSS Version 0.9.1 bugfix July 2018 build 013d7b7c2542+ Fri, 06 Jul 2018 19:26:36 +0100
REM compiler GCC version 9.3.0
REM options -cpp -mtune=generic -march=x86-64 -g -O0
REM seed -1035718863 -1539844605 1031775789 -907954246 1274728189 248621677 -1788005272 854448101 135859222 1008339898 58682839 -1722926635 1242722694 860201814 -1510629496 1553585042 1464145160 1612973713 1160333471 -363488346 494269218 867670297 391440571 927207501 -386041419 -122744983 -834265097 1882006915 1028212838 835030745 -1021332183 -1977993196 -423761497
REM
CELL 1.54180   50.00000   50.00000   50.00000   90.00000   90.00000   90.00000
LATT -1
SFAC C  
C      1  0.5024770000000  0.4769450000000  0.5009910000000 1.0
C      1  0.5138420000000  0.4845070000000  0.4753230000000 1.0
C      1  0.4708280000000  0.4857730000000  0.4518880000000 1.0
C      1  0.4791090000000  0.4644620000000  0.5080110000000 1.0
C      1  0.5573090000000  0.5185600000000  0.5061290000000 1.0
C      1  0.4505510000000  0.4950020000000  0.5244560000000 1.0
C      1  0.5171420000000  0.4894030000000  0.5234480000000 1.0
C      1  0.5524230000000  0.5164270000000  0.4775490000000 1.0
C      1  0.4885350000000  0.5421240000000  0.4706650000000 1.0
C      1  0.4867600000000  0.5298780000000  0.5180650000000 1.0
C      1  0.5142590000000  0.5178490000000  0.5248840000000 1.0
C      1  0.5414590000000  0.4907130000000  0.4780050000000 1.0
C      1  0.4547910000000  0.4776730000000  0.4988920000000 1.0
C      1  0.5393610000000  0.5311400000000  0.5230110000000 1.0
C      1  0.4564890000000  0.4842240000000  0.4729130000000 1.0
C      1  0.4836410000000  0.5485520000000  0.4953150000000 1.0
C      1  0.4646490000000  0.5173630000000  0.5274200000000 1.0
C      1  0.4978030000000  0.5257360000000  0.4522330000000 1.0
C      1  0.4566540000000  0.4770440000000  0.5472090000000 1.0
C      1  0.5565990000000  0.4875330000000  0.5047170000000 1.0
C      1  0.5442050000000  0.4794770000000  0.5270440000000 1.0
C      1  0.4965000000000  0.4975570000000  0.4551320000000 1.0
C      1  0.4746130000000  0.4620570000000  0.5367000000000 1.0
END
