TITL C-151867-9478-2 -148.599927790235 125000 -658.916891517284 0 0 94 (C1) n - 1
REM
REM in /rds/project/t2_vol4/rds-t2-cs072/BORA/CARBON/from-Arr/AIRSS/Generating-Clusters/GAP-ML-2020/Only-C1/SD-CG/HFTN-CG
REM
REM
REM
REM
REM
REM ./C.cell (11c1c37f851c82e70ff6c80c92926a4b)
REM AIRSS Version 0.9.1 bugfix July 2018 build 013d7b7c2542+ Fri, 06 Jul 2018 19:26:36 +0100
REM compiler GCC version 9.3.0
REM options -cpp -mtune=generic -march=x86-64 -g -O0
REM seed -369693805 -3706030 600076288 129168091 923298297 -1872840476 536270530 1014153756 1828213124 -1502839179 1704782866 -342773938 328688222 -1527276578 -1605822215 -1961004969 -1002223284 1743149367 1316415780 -631905553 1157560238 1549213272 2088950811 -1523483516 -128046734 325703998 -1212415653 -297929072 -1946682300 -1780122563 200988560 -1808509481 1770153992
REM
CELL 1.54180   50.00000   50.00000   50.00000   90.00000   90.00000   90.00000
LATT -1
SFAC C  
C      1  0.5145290000000  0.4805460000000  0.5559310000000 1.0
C      1  0.5195060000000  0.4755530000000  0.4716620000000 1.0
C      1  0.4308750000000  0.5344260000000  0.4595560000000 1.0
C      1  0.5054030000000  0.5900470000000  0.4935070000000 1.0
C      1  0.4906320000000  0.4109980000000  0.4640090000000 1.0
C      1  0.4793140000000  0.4518100000000  0.4519670000000 1.0
C      1  0.4964540000000  0.4462980000000  0.5742150000000 1.0
C      1  0.4898270000000  0.5192460000000  0.5764450000000 1.0
C      1  0.5172240000000  0.5295150000000  0.5741280000000 1.0
C      1  0.5638720000000  0.4775630000000  0.5491980000000 1.0
C      1  0.4239670000000  0.5241110000000  0.5405210000000 1.0
C      1  0.5106180000000  0.4473780000000  0.5493310000000 1.0
C      1  0.4471680000000  0.5432120000000  0.5475510000000 1.0
C      1  0.4315210000000  0.5082460000000  0.4467210000000 1.0
C      1  0.4768650000000  0.5507580000000  0.4390250000000 1.0
C      1  0.4870860000000  0.5297180000000  0.4227970000000 1.0
C      1  0.5286330000000  0.5061020000000  0.4254610000000 1.0
C      1  0.4641800000000  0.5736550000000  0.4774530000000 1.0
C      1  0.4150740000000  0.5229040000000  0.4828610000000 1.0
C      1  0.4583610000000  0.4806170000000  0.4864020000000 1.0
C      1  0.5486280000000  0.5510010000000  0.4537210000000 1.0
C      1  0.5242720000000  0.5538290000000  0.4383620000000 1.0
C      1  0.4422410000000  0.4360090000000  0.5139760000000 1.0
C      1  0.5656230000000  0.5568450000000  0.4998450000000 1.0
C      1  0.5292410000000  0.4916770000000  0.5109090000000 1.0
C      1  0.4684550000000  0.5272430000000  0.4816590000000 1.0
C      1  0.4290790000000  0.4739740000000  0.4791670000000 1.0
C      1  0.5784860000000  0.4935010000000  0.5301420000000 1.0
C      1  0.4715690000000  0.5414800000000  0.5644280000000 1.0
C      1  0.4877510000000  0.4397400000000  0.5276860000000 1.0
C      1  0.5501520000000  0.4454590000000  0.4656220000000 1.0
C      1  0.4856390000000  0.5888020000000  0.5157110000000 1.0
C      1  0.5572080000000  0.5323880000000  0.5487560000000 1.0
C      1  0.5773950000000  0.5167870000000  0.4775300000000 1.0
C      1  0.4508710000000  0.4332390000000  0.4871380000000 1.0
C      1  0.5575450000000  0.4365790000000  0.4930210000000 1.0
C      1  0.5815590000000  0.4782860000000  0.5053200000000 1.0
C      1  0.4737860000000  0.4139090000000  0.4867670000000 1.0
C      1  0.5745350000000  0.4887300000000  0.4801740000000 1.0
C      1  0.5605960000000  0.4522750000000  0.5374370000000 1.0
C      1  0.4989950000000  0.4321050000000  0.4460400000000 1.0
C      1  0.5426950000000  0.4881540000000  0.5646230000000 1.0
C      1  0.5505590000000  0.5010110000000  0.4426900000000 1.0
C      1  0.4952010000000  0.5301610000000  0.4960480000000 1.0
C      1  0.5013380000000  0.4964120000000  0.4628270000000 1.0
C      1  0.5368330000000  0.4366220000000  0.5378290000000 1.0
C      1  0.4991750000000  0.5667440000000  0.4469500000000 1.0
C      1  0.5720190000000  0.4525850000000  0.5108660000000 1.0
C      1  0.4306560000000  0.4776780000000  0.5593410000000 1.0
C      1  0.4904770000000  0.5820870000000  0.4695860000000 1.0
C      1  0.5281370000000  0.4294220000000  0.4557000000000 1.0
C      1  0.4509550000000  0.5537530000000  0.5203000000000 1.0
C      1  0.5424420000000  0.5162100000000  0.5677970000000 1.0
C      1  0.4565830000000  0.4927040000000  0.4408080000000 1.0
C      1  0.5179020000000  0.4081390000000  0.4724030000000 1.0
C      1  0.5176610000000  0.5540590000000  0.5604870000000 1.0
C      1  0.4692390000000  0.4834340000000  0.5125480000000 1.0
C      1  0.5165250000000  0.5318670000000  0.4223970000000 1.0
C      1  0.4197210000000  0.4997860000000  0.5521850000000 1.0
C      1  0.4911560000000  0.4154540000000  0.5098330000000 1.0
C      1  0.5470340000000  0.5687020000000  0.5186810000000 1.0
C      1  0.4229280000000  0.5263220000000  0.5099020000000 1.0
C      1  0.5351010000000  0.5136180000000  0.4947240000000 1.0
C      1  0.4575910000000  0.4412040000000  0.5357990000000 1.0
C      1  0.5623310000000  0.5249290000000  0.4545500000000 1.0
C      1  0.4874830000000  0.5871250000000  0.5430380000000 1.0
C      1  0.4763120000000  0.4658380000000  0.5737710000000 1.0
C      1  0.4900140000000  0.4614910000000  0.5071230000000 1.0
C      1  0.4734160000000  0.4534350000000  0.4823040000000 1.0
C      1  0.4160970000000  0.4969300000000  0.4691000000000 1.0
C      1  0.4905640000000  0.5634760000000  0.5571250000000 1.0
C      1  0.5324680000000  0.5809380000000  0.4961870000000 1.0
C      1  0.4617700000000  0.5756460000000  0.5059320000000 1.0
C      1  0.4571090000000  0.5491360000000  0.4618800000000 1.0
C      1  0.5156750000000  0.4703000000000  0.4983980000000 1.0
C      1  0.4356610000000  0.4508560000000  0.4641790000000 1.0
C      1  0.5139950000000  0.5200820000000  0.4785830000000 1.0
C      1  0.4933600000000  0.5155920000000  0.5211910000000 1.0
C      1  0.4916370000000  0.4906110000000  0.5733440000000 1.0
C      1  0.5784740000000  0.5325430000000  0.5022000000000 1.0
C      1  0.5174150000000  0.4099180000000  0.5008680000000 1.0
C      1  0.4782070000000  0.5029710000000  0.4229170000000 1.0
C      1  0.5416170000000  0.5559080000000  0.5438320000000 1.0
C      1  0.4714240000000  0.4996770000000  0.4686030000000 1.0
C      1  0.5518330000000  0.4775930000000  0.4625900000000 1.0
C      1  0.5388710000000  0.4230590000000  0.5121160000000 1.0
C      1  0.5748620000000  0.5211000000000  0.5288170000000 1.0
C      1  0.4545750000000  0.4621900000000  0.4437230000000 1.0
C      1  0.5137910000000  0.4998610000000  0.5320840000000 1.0
C      1  0.4671040000000  0.5080900000000  0.5243780000000 1.0
C      1  0.4517890000000  0.4595070000000  0.5584590000000 1.0
C      1  0.4513160000000  0.5277350000000  0.5065690000000 1.0
C      1  0.5505750000000  0.5664100000000  0.4772630000000 1.0
C      1  0.5035920000000  0.4943690000000  0.4324010000000 1.0
END
