TITL C-158510-1913-5 0.045095691664375 125000 -86.9312560334183 0 0 14 (C1) n - 1
REM
REM in /rds/project/t2_vol4/rds-t2-cs072/BORA/CARBON/from-Arr/AIRSS/Generating-Clusters/GAP-ML-2020/Only-C1/SD-CG/HFTN-CG
REM
REM
REM
REM
REM
REM ./C.cell (11c1c37f851c82e70ff6c80c92926a4b)
REM AIRSS Version 0.9.1 bugfix July 2018 build 013d7b7c2542+ Fri, 06 Jul 2018 19:26:36 +0100
REM compiler GCC version 9.3.0
REM options -cpp -mtune=generic -march=x86-64 -g -O0
REM seed 1397249892 -875134091 -971276036 -148109989 2093267173 587737762 -775851888 1706648760 879750971 323162654 -1636342920 -1723837177 716533583 -1490906923 2025696956 1921869606 -2112833736 -1825003049 551852156 1684957076 1711239649 727855457 -264842796 -1302547671 -770865904 16025226 -1402510873 -735456206 -849642463 7266817 701011805 780196231 1991507154
REM
CELL 1.54180   50.00000   50.00000   50.00000   90.00000   90.00000   90.00000
LATT -1
SFAC C  
C      1  0.5337710000000  0.4829000000000  0.4421430000000 1.0
C      1  0.4826440000000  0.5408950000000  0.5012170000000 1.0
C      1  0.4869660000000  0.5172480000000  0.5418280000000 1.0
C      1  0.5446880000000  0.4838370000000  0.4652380000000 1.0
C      1  0.5064460000000  0.5014010000000  0.5469250000000 1.0
C      1  0.4834870000000  0.4522700000000  0.5307540000000 1.0
C      1  0.4975310000000  0.5463590000000  0.4803070000000 1.0
C      1  0.4757910000000  0.4698530000000  0.5141830000000 1.0
C      1  0.4764600000000  0.5188550000000  0.5167340000000 1.0
C      1  0.4764030000000  0.4935700000000  0.5018410000000 1.0
C      1  0.5035320000000  0.5200190000000  0.4715180000000 1.0
C      1  0.5177250000000  0.4958970000000  0.4638930000000 1.0
C      1  0.5226600000000  0.4813240000000  0.5463410000000 1.0
C      1  0.4918950000000  0.4955710000000  0.4770780000000 1.0
END
