TITL C-151872-9520-6 -144.824571456153 125000 -61.4344485258057 0 0 10 (C1) n - 1
REM
REM in /rds/project/t2_vol4/rds-t2-cs072/BORA/CARBON/from-Arr/AIRSS/Generating-Clusters/GAP-ML-2020/Only-C1/SD-CG/HFTN-CG
REM
REM
REM
REM
REM
REM ./C.cell (11c1c37f851c82e70ff6c80c92926a4b)
REM AIRSS Version 0.9.1 bugfix July 2018 build 013d7b7c2542+ Fri, 06 Jul 2018 19:26:36 +0100
REM compiler GCC version 9.3.0
REM options -cpp -mtune=generic -march=x86-64 -g -O0
REM seed -1516772911 -780031425 2141349247 -1891878368 -84278993 2108601762 738361451 1010235259 907937985 -543486347 1137008415 -2021321693 1722308548 -130356148 639984485 -688198155 660283569 234702773 1655392392 449604463 706151695 660698276 1944151175 -713151992 117959357 15757814 109232952 442262462 1105929654 827129979 116533072 -1694193947 -131022614
REM
CELL 1.54180   50.00000   50.00000   50.00000   90.00000   90.00000   90.00000
LATT -1
SFAC C  
C      1  0.4664180000000  0.4815790000000  0.5111240000000 1.0
C      1  0.4870800000000  0.5244920000000  0.5324800000000 1.0
C      1  0.5538720000000  0.4818790000000  0.4861440000000 1.0
C      1  0.5128540000000  0.5277140000000  0.5302910000000 1.0
C      1  0.4786990000000  0.5057270000000  0.5134130000000 1.0
C      1  0.4752230000000  0.4931480000000  0.4856870000000 1.0
C      1  0.4685560000000  0.4953520000000  0.4578920000000 1.0
C      1  0.5309530000000  0.5152410000000  0.5179160000000 1.0
C      1  0.5401230000000  0.4973180000000  0.5016660000000 1.0
C      1  0.4862230000000  0.4775500000000  0.4633870000000 1.0
END
