TITL C-152485-7511-5 -32.8934272421999 125000 -683.524559898879 0 0 100 (C1) n - 1
REM
REM in /rds/project/t2_vol4/rds-t2-cs072/BORA/CARBON/from-Arr/AIRSS/Generating-Clusters/GAP-ML-2020/Only-C1/SD-CG/HFTN-CG
REM
REM
REM
REM
REM
REM ./C.cell (11c1c37f851c82e70ff6c80c92926a4b)
REM AIRSS Version 0.9.1 bugfix July 2018 build 013d7b7c2542+ Fri, 06 Jul 2018 19:26:36 +0100
REM compiler GCC version 9.3.0
REM options -cpp -mtune=generic -march=x86-64 -g -O0
REM seed -221169678 -497648422 -646489126 -626091125 -1564818661 -312868310 1025128684 1486215157 655428914 -521200795 1271669662 1536763560 707837731 -673718913 -51158005 -672253847 822524038 -1485772192 1416626059 1762790924 753281227 -1200135656 2076722926 204154271 -517100145 -656512194 1989509580 -1893690976 655396105 1380381701 1164827556 869089004 1759439395
REM
CELL 1.54180   50.00000   50.00000   50.00000   90.00000   90.00000   90.00000
LATT -1
SFAC C  
C      1  0.4652780000000  0.4662410000000  0.4724230000000 1.0
C      1  0.4571810000000  0.5338110000000  0.5762420000000 1.0
C      1  0.5040890000000  0.4919150000000  0.4751140000000 1.0
C      1  0.4863250000000  0.4235480000000  0.5456380000000 1.0
C      1  0.5240360000000  0.5419100000000  0.5761060000000 1.0
C      1  0.5004070000000  0.5042500000000  0.5931370000000 1.0
C      1  0.5444900000000  0.5682910000000  0.4454390000000 1.0
C      1  0.5626670000000  0.4948710000000  0.4457510000000 1.0
C      1  0.4562850000000  0.5427770000000  0.5048830000000 1.0
C      1  0.5744440000000  0.4716000000000  0.4931120000000 1.0
C      1  0.5431980000000  0.4443410000000  0.5264260000000 1.0
C      1  0.4815370000000  0.5247990000000  0.5891070000000 1.0
C      1  0.5040360000000  0.5357840000000  0.5012620000000 1.0
C      1  0.4340990000000  0.4544990000000  0.5386620000000 1.0
C      1  0.4496700000000  0.5476140000000  0.5333690000000 1.0
C      1  0.4631240000000  0.5101900000000  0.4968420000000 1.0
C      1  0.5137720000000  0.4911280000000  0.4232220000000 1.0
C      1  0.5310270000000  0.4159120000000  0.5284700000000 1.0
C      1  0.5177640000000  0.5724620000000  0.4423660000000 1.0
C      1  0.5823030000000  0.5152410000000  0.4775070000000 1.0
C      1  0.4833610000000  0.5578700000000  0.5031220000000 1.0
C      1  0.5468030000000  0.5023100000000  0.5701210000000 1.0
C      1  0.4448220000000  0.5592130000000  0.4607130000000 1.0
C      1  0.4672590000000  0.5670800000000  0.5451420000000 1.0
C      1  0.5638240000000  0.5541000000000  0.4591550000000 1.0
C      1  0.4853250000000  0.5390710000000  0.4147550000000 1.0
C      1  0.4720170000000  0.5692900000000  0.4558750000000 1.0
C      1  0.4884190000000  0.5739400000000  0.4784250000000 1.0
C      1  0.5795170000000  0.5287450000000  0.5019540000000 1.0
C      1  0.4781300000000  0.4317040000000  0.4503100000000 1.0
C      1  0.4931470000000  0.4792560000000  0.5837450000000 1.0
C      1  0.5437780000000  0.5465930000000  0.5551220000000 1.0
C      1  0.5081960000000  0.5214010000000  0.4172740000000 1.0
C      1  0.5261720000000  0.4331720000000  0.4257150000000 1.0
C      1  0.5629330000000  0.4860480000000  0.5192750000000 1.0
C      1  0.5143370000000  0.4462330000000  0.4865250000000 1.0
C      1  0.4909740000000  0.5643720000000  0.4311660000000 1.0
C      1  0.4922420000000  0.4518980000000  0.5526290000000 1.0
C      1  0.4966130000000  0.5490220000000  0.5812260000000 1.0
C      1  0.4942200000000  0.4676610000000  0.4179660000000 1.0
C      1  0.4400260000000  0.4644060000000  0.5106250000000 1.0
C      1  0.4681180000000  0.4990620000000  0.4423410000000 1.0
C      1  0.5317120000000  0.4977110000000  0.4795250000000 1.0
C      1  0.5017820000000  0.4952230000000  0.5374210000000 1.0
C      1  0.5385070000000  0.5653320000000  0.5330240000000 1.0
C      1  0.5133140000000  0.4640450000000  0.5716850000000 1.0
C      1  0.5404410000000  0.4449680000000  0.4698110000000 1.0
C      1  0.5622890000000  0.4295510000000  0.5085010000000 1.0
C      1  0.5227420000000  0.4610300000000  0.5113450000000 1.0
C      1  0.4548710000000  0.4934750000000  0.4697190000000 1.0
C      1  0.4559230000000  0.4917490000000  0.5197480000000 1.0
C      1  0.5028490000000  0.4152890000000  0.5230890000000 1.0
C      1  0.4374940000000  0.4288100000000  0.5494440000000 1.0
C      1  0.4973930000000  0.4227140000000  0.4955670000000 1.0
C      1  0.5639130000000  0.4464090000000  0.4862110000000 1.0
C      1  0.5690640000000  0.5540840000000  0.4915580000000 1.0
C      1  0.4917620000000  0.5104470000000  0.4943100000000 1.0
C      1  0.5346910000000  0.5249740000000  0.4678430000000 1.0
C      1  0.5009920000000  0.4421760000000  0.4301670000000 1.0
C      1  0.5388060000000  0.4521830000000  0.4416420000000 1.0
C      1  0.4976900000000  0.4996540000000  0.4482840000000 1.0
C      1  0.4548260000000  0.4473280000000  0.4905370000000 1.0
C      1  0.4333150000000  0.5031640000000  0.5384300000000 1.0
C      1  0.4953800000000  0.4656310000000  0.4748200000000 1.0
C      1  0.4637730000000  0.5265470000000  0.4339840000000 1.0
C      1  0.4719030000000  0.5603100000000  0.5715880000000 1.0
C      1  0.5141920000000  0.5781370000000  0.5357710000000 1.0
C      1  0.5133830000000  0.5104040000000  0.5174860000000 1.0
C      1  0.5413760000000  0.4744690000000  0.5645350000000 1.0
C      1  0.5552610000000  0.4662230000000  0.5418030000000 1.0
C      1  0.5265910000000  0.5478490000000  0.4872560000000 1.0
C      1  0.5585810000000  0.5216550000000  0.5510880000000 1.0
C      1  0.4887930000000  0.5739290000000  0.5280290000000 1.0
C      1  0.5151980000000  0.5706130000000  0.4712030000000 1.0
C      1  0.4418590000000  0.5277990000000  0.5519830000000 1.0
C      1  0.5021150000000  0.4673520000000  0.5306200000000 1.0
C      1  0.4353250000000  0.5517560000000  0.4869490000000 1.0
C      1  0.4597370000000  0.4165240000000  0.5519290000000 1.0
C      1  0.5539190000000  0.4044780000000  0.5166180000000 1.0
C      1  0.5716390000000  0.5134430000000  0.5263620000000 1.0
C      1  0.4179050000000  0.5289480000000  0.4899360000000 1.0
C      1  0.4729300000000  0.4252170000000  0.4809810000000 1.0
C      1  0.4171770000000  0.5076310000000  0.5118390000000 1.0
C      1  0.4680830000000  0.4731800000000  0.4270480000000 1.0
C      1  0.5342950000000  0.4901360000000  0.5066990000000 1.0
C      1  0.4611270000000  0.4533130000000  0.4456060000000 1.0
C      1  0.4193930000000  0.4831180000000  0.4973030000000 1.0
C      1  0.5267880000000  0.5152310000000  0.5856910000000 1.0
C      1  0.5461400000000  0.5602360000000  0.5057420000000 1.0
C      1  0.5790120000000  0.4882200000000  0.4704330000000 1.0
C      1  0.5630500000000  0.5243240000000  0.4565070000000 1.0
C      1  0.5107320000000  0.5265190000000  0.4475270000000 1.0
C      1  0.4700180000000  0.4739210000000  0.5633400000000 1.0
C      1  0.5411610000000  0.4813590000000  0.4330000000000 1.0
C      1  0.4845060000000  0.5411970000000  0.4521850000000 1.0
C      1  0.4387670000000  0.4766390000000  0.5556260000000 1.0
C      1  0.4255760000000  0.4920380000000  0.4706230000000 1.0
C      1  0.4385060000000  0.5358880000000  0.4466550000000 1.0
C      1  0.4751370000000  0.4927020000000  0.5415110000000 1.0
C      1  0.4203310000000  0.5191140000000  0.4636020000000 1.0
END
