TITL C-158495-1864-8 -0.0748987522520006 125000 -719.755122699824 0 0 104 (C1) n - 1
REM
REM in /rds/project/t2_vol4/rds-t2-cs072/BORA/CARBON/from-Arr/AIRSS/Generating-Clusters/GAP-ML-2020/Only-C1/SD-CG/HFTN-CG
REM
REM
REM
REM
REM
REM ./C.cell (11c1c37f851c82e70ff6c80c92926a4b)
REM AIRSS Version 0.9.1 bugfix July 2018 build 013d7b7c2542+ Fri, 06 Jul 2018 19:26:36 +0100
REM compiler GCC version 9.3.0
REM options -cpp -mtune=generic -march=x86-64 -g -O0
REM seed -1308189006 -357093643 -350735082 2047589815 775312312 -602038201 477846880 1608869193 1556003358 789439272 1868437179 162925486 -1409943747 -1774276756 -959230853 -777437665 557827385 -720622578 -1849870729 -287521640 110837655 1414059877 -266861637 1775707730 -1389483916 -587852836 -940078476 -1473118285 548098101 351640491 -298777623 954817096 792191474
REM
CELL 1.54180   50.00000   50.00000   50.00000   90.00000   90.00000   90.00000
LATT -1
SFAC C  
C      1  0.5219770000000  0.5304440000000  0.4688850000000 1.0
C      1  0.4511110000000  0.5437650000000  0.4592560000000 1.0
C      1  0.4644680000000  0.5332010000000  0.5163420000000 1.0
C      1  0.5611790000000  0.4421140000000  0.5023740000000 1.0
C      1  0.5978890000000  0.5272370000000  0.5164150000000 1.0
C      1  0.5202180000000  0.4829300000000  0.5247450000000 1.0
C      1  0.5360020000000  0.5520890000000  0.5581380000000 1.0
C      1  0.5813250000000  0.4598110000000  0.4901560000000 1.0
C      1  0.4914970000000  0.4652540000000  0.5638090000000 1.0
C      1  0.5390340000000  0.5415090000000  0.5132360000000 1.0
C      1  0.5463570000000  0.4864060000000  0.5430960000000 1.0
C      1  0.5781410000000  0.5203250000000  0.5340900000000 1.0
C      1  0.4322590000000  0.4772610000000  0.5322490000000 1.0
C      1  0.4629920000000  0.5758770000000  0.5216530000000 1.0
C      1  0.4880000000000  0.5871250000000  0.5140560000000 1.0
C      1  0.5268730000000  0.4766540000000  0.4952980000000 1.0
C      1  0.4972660000000  0.5890590000000  0.4858310000000 1.0
C      1  0.5267720000000  0.5601700000000  0.4579350000000 1.0
C      1  0.5002860000000  0.5664000000000  0.4450420000000 1.0
C      1  0.5019810000000  0.5076840000000  0.5286660000000 1.0
C      1  0.5306470000000  0.4534060000000  0.4412380000000 1.0
C      1  0.4729050000000  0.4888040000000  0.5603020000000 1.0
C      1  0.4625760000000  0.4817090000000  0.5314490000000 1.0
C      1  0.5449760000000  0.5253090000000  0.4886550000000 1.0
C      1  0.4446980000000  0.4441450000000  0.4932130000000 1.0
C      1  0.4958590000000  0.4272400000000  0.4642580000000 1.0
C      1  0.4466600000000  0.4468780000000  0.5676290000000 1.0
C      1  0.5139540000000  0.4820770000000  0.4047320000000 1.0
C      1  0.5189310000000  0.4362080000000  0.5412420000000 1.0
C      1  0.5540850000000  0.4701770000000  0.4416130000000 1.0
C      1  0.4806140000000  0.4540550000000  0.4264810000000 1.0
C      1  0.5493190000000  0.4987100000000  0.4514060000000 1.0
C      1  0.5265330000000  0.5499330000000  0.5844240000000 1.0
C      1  0.5038660000000  0.4155960000000  0.5320430000000 1.0
C      1  0.4793680000000  0.4593300000000  0.5177800000000 1.0
C      1  0.4320400000000  0.4691730000000  0.5624540000000 1.0
C      1  0.4334960000000  0.5287090000000  0.4749540000000 1.0
C      1  0.5231910000000  0.4362520000000  0.4626740000000 1.0
C      1  0.4183530000000  0.4878020000000  0.4947740000000 1.0
C      1  0.4893020000000  0.5430660000000  0.5011220000000 1.0
C      1  0.4826560000000  0.5790570000000  0.4639200000000 1.0
C      1  0.4513350000000  0.4834520000000  0.4571170000000 1.0
C      1  0.5224480000000  0.5103970000000  0.4462850000000 1.0
C      1  0.4735270000000  0.4964040000000  0.4139670000000 1.0
C      1  0.5905660000000  0.5155690000000  0.4923110000000 1.0
C      1  0.4275350000000  0.4999490000000  0.4692480000000 1.0
C      1  0.5958890000000  0.4518210000000  0.4669390000000 1.0
C      1  0.4931910000000  0.5276740000000  0.4777400000000 1.0
C      1  0.5174310000000  0.4748220000000  0.5765930000000 1.0
C      1  0.5768700000000  0.4576650000000  0.4507230000000 1.0
C      1  0.4474520000000  0.5680760000000  0.4984530000000 1.0
C      1  0.4753180000000  0.4414790000000  0.4507020000000 1.0
C      1  0.5017370000000  0.4890680000000  0.4502190000000 1.0
C      1  0.4819250000000  0.4671870000000  0.4891890000000 1.0
C      1  0.5082860000000  0.4661340000000  0.4277260000000 1.0
C      1  0.4864050000000  0.5434640000000  0.5589040000000 1.0
C      1  0.5174090000000  0.5048130000000  0.5744280000000 1.0
C      1  0.4973910000000  0.5484000000000  0.5862270000000 1.0
C      1  0.5324340000000  0.5716710000000  0.5081460000000 1.0
C      1  0.4674470000000  0.4310970000000  0.5097180000000 1.0
C      1  0.4178670000000  0.4886560000000  0.4412210000000 1.0
C      1  0.5325140000000  0.4419230000000  0.4910980000000 1.0
C      1  0.5131870000000  0.4221480000000  0.5054450000000 1.0
C      1  0.5622980000000  0.4374070000000  0.5290220000000 1.0
C      1  0.4989630000000  0.5044210000000  0.4047120000000 1.0
C      1  0.5649710000000  0.5268390000000  0.4491430000000 1.0
C      1  0.4751620000000  0.5291780000000  0.4507190000000 1.0
C      1  0.5507440000000  0.5496670000000  0.4435640000000 1.0
C      1  0.4572050000000  0.5686450000000  0.4717620000000 1.0
C      1  0.5115180000000  0.5788860000000  0.5270130000000 1.0
C      1  0.4843810000000  0.5022700000000  0.4894050000000 1.0
C      1  0.5449300000000  0.4403880000000  0.5499740000000 1.0
C      1  0.4620570000000  0.5509020000000  0.5414170000000 1.0
C      1  0.4280350000000  0.4630350000000  0.5057830000000 1.0
C      1  0.5417890000000  0.5109700000000  0.5573400000000 1.0
C      1  0.5729910000000  0.5302880000000  0.4757010000000 1.0
C      1  0.5107850000000  0.5350880000000  0.5203570000000 1.0
C      1  0.4362640000000  0.5183920000000  0.5689280000000 1.0
C      1  0.4712020000000  0.4390950000000  0.5607130000000 1.0
C      1  0.5106030000000  0.5241550000000  0.4219200000000 1.0
C      1  0.4741480000000  0.5002770000000  0.4436430000000 1.0
C      1  0.4454550000000  0.4935910000000  0.5731550000000 1.0
C      1  0.4925610000000  0.5433700000000  0.4316230000000 1.0
C      1  0.4762760000000  0.4217350000000  0.5366580000000 1.0
C      1  0.5238900000000  0.5781570000000  0.4827090000000 1.0
C      1  0.4223670000000  0.5282760000000  0.5245530000000 1.0
C      1  0.4600830000000  0.4575650000000  0.4709490000000 1.0
C      1  0.5752590000000  0.4882370000000  0.4984380000000 1.0
C      1  0.5706810000000  0.4930530000000  0.5279280000000 1.0
C      1  0.4611910000000  0.4710430000000  0.4141760000000 1.0
C      1  0.5413560000000  0.4651690000000  0.5641090000000 1.0
C      1  0.4177270000000  0.5008800000000  0.5203840000000 1.0
C      1  0.5099610000000  0.5545720000000  0.5436020000000 1.0
C      1  0.4928340000000  0.5112640000000  0.5573130000000 1.0
C      1  0.4369470000000  0.4751100000000  0.4292650000000 1.0
C      1  0.5032320000000  0.4609560000000  0.5354450000000 1.0
C      1  0.4745460000000  0.5048980000000  0.5163050000000 1.0
C      1  0.4364990000000  0.5402650000000  0.5018580000000 1.0
C      1  0.5144080000000  0.5270810000000  0.5942360000000 1.0
C      1  0.4893960000000  0.4211700000000  0.4912010000000 1.0
C      1  0.4363160000000  0.5368950000000  0.5492640000000 1.0
C      1  0.5485720000000  0.4952020000000  0.4848130000000 1.0
C      1  0.5520890000000  0.5342270000000  0.5418550000000 1.0
C      1  0.5024880000000  0.4825650000000  0.4790120000000 1.0
END
