TITL C-151860-9503-1 0.0171140475530209 125000 -390.039252917793 0 0 58 (C1) n - 1
REM
REM in /rds/project/t2_vol4/rds-t2-cs072/BORA/CARBON/from-Arr/AIRSS/Generating-Clusters/GAP-ML-2020/Only-C1/SD-CG/HFTN-CG
REM
REM
REM
REM
REM
REM ./C.cell (11c1c37f851c82e70ff6c80c92926a4b)
REM AIRSS Version 0.9.1 bugfix July 2018 build 013d7b7c2542+ Fri, 06 Jul 2018 19:26:36 +0100
REM compiler GCC version 9.3.0
REM options -cpp -mtune=generic -march=x86-64 -g -O0
REM seed -2060114626 -1083410733 -1578969761 -241052349 458676048 -177468163 -580593986 565517857 1239949495 2104803296 -1030264789 -1044938271 -106318549 1216469971 225171898 1871936594 -2018421720 620242263 1254099325 1020129677 636506457 1840192580 1001916744 1404334987 1624332667 -1480996099 -1946850751 -1088360180 -1942226604 -861936777 -52029254 -1041195796 -1476417922
REM
CELL 1.54180   50.00000   50.00000   50.00000   90.00000   90.00000   90.00000
LATT -1
SFAC C  
C      1  0.4740800000000  0.4840530000000  0.4906860000000 1.0
C      1  0.5088500000000  0.4404770000000  0.5210180000000 1.0
C      1  0.5146080000000  0.5306560000000  0.4248030000000 1.0
C      1  0.4778080000000  0.4957320000000  0.4631280000000 1.0
C      1  0.4289780000000  0.4817860000000  0.5013640000000 1.0
C      1  0.4687840000000  0.5579110000000  0.5238610000000 1.0
C      1  0.4941390000000  0.5428720000000  0.4652820000000 1.0
C      1  0.5605760000000  0.5224490000000  0.4953290000000 1.0
C      1  0.4497470000000  0.4984080000000  0.4524340000000 1.0
C      1  0.5011020000000  0.5129210000000  0.4652130000000 1.0
C      1  0.4688880000000  0.4449600000000  0.4957200000000 1.0
C      1  0.5350050000000  0.4873080000000  0.4459080000000 1.0
C      1  0.4365050000000  0.5348970000000  0.5131930000000 1.0
C      1  0.5668520000000  0.5421300000000  0.5144810000000 1.0
C      1  0.5436870000000  0.5333970000000  0.4726790000000 1.0
C      1  0.4800910000000  0.4458870000000  0.5223360000000 1.0
C      1  0.5233560000000  0.4627280000000  0.5347790000000 1.0
C      1  0.5028370000000  0.5142730000000  0.5848970000000 1.0
C      1  0.5384760000000  0.5046350000000  0.5099600000000 1.0
C      1  0.4513170000000  0.5381100000000  0.5379670000000 1.0
C      1  0.5171170000000  0.5078610000000  0.4403700000000 1.0
C      1  0.4541930000000  0.5536000000000  0.4992150000000 1.0
C      1  0.5419890000000  0.4992780000000  0.5593100000000 1.0
C      1  0.5151300000000  0.4357050000000  0.4938880000000 1.0
C      1  0.5201830000000  0.5545540000000  0.5091190000000 1.0
C      1  0.5791540000000  0.4757800000000  0.4809750000000 1.0
C      1  0.5211170000000  0.5491890000000  0.4810110000000 1.0
C      1  0.5274200000000  0.5050590000000  0.5816670000000 1.0
C      1  0.5009160000000  0.4815980000000  0.5327670000000 1.0
C      1  0.5014680000000  0.4810100000000  0.5001900000000 1.0
C      1  0.5476430000000  0.4767480000000  0.5178050000000 1.0
C      1  0.4908650000000  0.4381620000000  0.4787730000000 1.0
C      1  0.4464700000000  0.5189940000000  0.4700210000000 1.0
C      1  0.5360900000000  0.4501780000000  0.4800310000000 1.0
C      1  0.4497140000000  0.4654750000000  0.4854160000000 1.0
C      1  0.5247150000000  0.4628750000000  0.4568790000000 1.0
C      1  0.5467470000000  0.4734000000000  0.5467440000000 1.0
C      1  0.5317790000000  0.5171700000000  0.5363850000000 1.0
C      1  0.4761810000000  0.4689410000000  0.5379440000000 1.0
C      1  0.4378710000000  0.5114560000000  0.4969910000000 1.0
C      1  0.4485230000000  0.4693210000000  0.4555940000000 1.0
C      1  0.4559610000000  0.4899520000000  0.5365950000000 1.0
C      1  0.5577160000000  0.4629570000000  0.4942520000000 1.0
C      1  0.5004330000000  0.5491790000000  0.4364250000000 1.0
C      1  0.5024930000000  0.5111690000000  0.5381230000000 1.0
C      1  0.5414400000000  0.5445640000000  0.5260210000000 1.0
C      1  0.4971040000000  0.4531970000000  0.4554820000000 1.0
C      1  0.5116350000000  0.5068150000000  0.4942080000000 1.0
C      1  0.4301420000000  0.4813260000000  0.5281810000000 1.0
C      1  0.4765170000000  0.4692840000000  0.4473220000000 1.0
C      1  0.4865270000000  0.5173830000000  0.5632850000000 1.0
C      1  0.4643370000000  0.5421000000000  0.4755680000000 1.0
C      1  0.4603300000000  0.5156040000000  0.5523990000000 1.0
C      1  0.5725550000000  0.5015660000000  0.4762340000000 1.0
C      1  0.4656230000000  0.5043960000000  0.5097530000000 1.0
C      1  0.4945110000000  0.5496380000000  0.5188050000000 1.0
C      1  0.4908040000000  0.5207870000000  0.5132580000000 1.0
C      1  0.5509040000000  0.5081380000000  0.4579540000000 1.0
END
