TITL C-154609-4236-9 0.0758843709666622 125000 -235.599076576128 0 0 36 (C1) n - 1
REM
REM in /rds/project/t2_vol4/rds-t2-cs072/BORA/CARBON/from-Arr/AIRSS/Generating-Clusters/GAP-ML-2020/Only-C1/SD-CG/HFTN-CG
REM
REM
REM
REM
REM
REM ./C.cell (11c1c37f851c82e70ff6c80c92926a4b)
REM AIRSS Version 0.9.1 bugfix July 2018 build 013d7b7c2542+ Fri, 06 Jul 2018 19:26:36 +0100
REM compiler GCC version 9.3.0
REM options -cpp -mtune=generic -march=x86-64 -g -O0
REM seed -623894849 -1767068993 -629743856 1925847069 2114999022 1582212415 2047154987 1107851300 -1871112676 -1230874912 -378586860 1358671080 -1054263779 973774419 -164451663 -426695733 -1360072580 -2088443912 -1063480112 12367469 39580163 -832270288 -1469710834 -1566467427 -1928549863 1488172768 -1796032255 352783383 514704064 -1287944854 1523128714 1707999535 -482330836
REM
CELL 1.54180   50.00000   50.00000   50.00000   90.00000   90.00000   90.00000
LATT -1
SFAC C  
C      1  0.4878640000000  0.5089740000000  0.5546810000000 1.0
C      1  0.5423560000000  0.4635260000000  0.5330230000000 1.0
C      1  0.4689710000000  0.4886360000000  0.5508590000000 1.0
C      1  0.5383520000000  0.5060650000000  0.5483300000000 1.0
C      1  0.4732680000000  0.5375460000000  0.4465710000000 1.0
C      1  0.4754770000000  0.5152600000000  0.4306790000000 1.0
C      1  0.5361570000000  0.5268370000000  0.5304240000000 1.0
C      1  0.5241860000000  0.5075730000000  0.4578750000000 1.0
C      1  0.4893110000000  0.4487490000000  0.4907760000000 1.0
C      1  0.5340280000000  0.5064220000000  0.4841700000000 1.0
C      1  0.5136280000000  0.4707690000000  0.5405540000000 1.0
C      1  0.5206870000000  0.5326320000000  0.4478070000000 1.0
C      1  0.4685020000000  0.5417320000000  0.5204620000000 1.0
C      1  0.5058640000000  0.4837550000000  0.4532930000000 1.0
C      1  0.4964000000000  0.5543480000000  0.4837000000000 1.0
C      1  0.4988980000000  0.5475350000000  0.4558410000000 1.0
C      1  0.5371350000000  0.5292800000000  0.5007510000000 1.0
C      1  0.4758610000000  0.4673780000000  0.5092130000000 1.0
C      1  0.5415690000000  0.4586540000000  0.5050240000000 1.0
C      1  0.5014980000000  0.4785290000000  0.5165770000000 1.0
C      1  0.4702880000000  0.5448190000000  0.4935680000000 1.0
C      1  0.4601920000000  0.5012380000000  0.4711200000000 1.0
C      1  0.4875550000000  0.5343990000000  0.5391270000000 1.0
C      1  0.5130540000000  0.5438180000000  0.5296530000000 1.0
C      1  0.4586500000000  0.5300310000000  0.4714080000000 1.0
C      1  0.4532810000000  0.4837400000000  0.4935480000000 1.0
C      1  0.5564980000000  0.4840180000000  0.5443030000000 1.0
C      1  0.5103780000000  0.4639970000000  0.4738100000000 1.0
C      1  0.5174640000000  0.5505640000000  0.5012480000000 1.0
C      1  0.4286390000000  0.4838180000000  0.5042640000000 1.0
C      1  0.5127480000000  0.4945730000000  0.5554740000000 1.0
C      1  0.4790210000000  0.4939860000000  0.4491790000000 1.0
C      1  0.5052250000000  0.4262580000000  0.4924030000000 1.0
C      1  0.5290630000000  0.4421950000000  0.4849240000000 1.0
C      1  0.4645610000000  0.4667180000000  0.5390700000000 1.0
C      1  0.5233700000000  0.4816270000000  0.4962910000000 1.0
END
