TITL C-152484-7779-2 3.14649889755133 125000 -446.751634922607 0 0 66 (C1) n - 1
REM
REM in /rds/project/t2_vol4/rds-t2-cs072/BORA/CARBON/from-Arr/AIRSS/Generating-Clusters/GAP-ML-2020/Only-C1/SD-CG/HFTN-CG
REM
REM
REM
REM
REM
REM ./C.cell (11c1c37f851c82e70ff6c80c92926a4b)
REM AIRSS Version 0.9.1 bugfix July 2018 build 013d7b7c2542+ Fri, 06 Jul 2018 19:26:36 +0100
REM compiler GCC version 9.3.0
REM options -cpp -mtune=generic -march=x86-64 -g -O0
REM seed -216335892 -333475056 2045545865 992064596 1748164281 1656593278 -2138936040 944727505 -1824356647 -1570700872 -1716496883 1726727424 -890124861 552684495 159296935 -1928517589 104275970 -1087230199 -965306941 846236169 2027191218 -1054062964 -1916213956 508601281 -819805426 450398604 1196253143 808634797 -1678775515 -941980146 173099338 -792365482 -2138570298
REM
CELL 1.54180   50.00000   50.00000   50.00000   90.00000   90.00000   90.00000
LATT -1
SFAC C  
C      1  0.5664870000000  0.5396450000000  0.4932280000000 1.0
C      1  0.4428680000000  0.4751240000000  0.4703750000000 1.0
C      1  0.5280200000000  0.4654190000000  0.4555060000000 1.0
C      1  0.4188130000000  0.5334750000000  0.5121300000000 1.0
C      1  0.5613300000000  0.5207600000000  0.5178930000000 1.0
C      1  0.4341990000000  0.4869730000000  0.5408350000000 1.0
C      1  0.5034320000000  0.4907640000000  0.5714070000000 1.0
C      1  0.5197320000000  0.5476000000000  0.4574960000000 1.0
C      1  0.4781400000000  0.4797720000000  0.5650100000000 1.0
C      1  0.5755890000000  0.4945120000000  0.5142620000000 1.0
C      1  0.4592520000000  0.5176850000000  0.4498780000000 1.0
C      1  0.4690960000000  0.5602970000000  0.5095310000000 1.0
C      1  0.4623950000000  0.4527950000000  0.4759720000000 1.0
C      1  0.5392490000000  0.5047540000000  0.4324690000000 1.0
C      1  0.4518290000000  0.5304840000000  0.4752450000000 1.0
C      1  0.5653840000000  0.5215940000000  0.4702350000000 1.0
C      1  0.4722040000000  0.5486170000000  0.4847310000000 1.0
C      1  0.5635830000000  0.4756960000000  0.5325500000000 1.0
C      1  0.4851010000000  0.5588590000000  0.5328410000000 1.0
C      1  0.5136170000000  0.4817730000000  0.5250190000000 1.0
C      1  0.4895620000000  0.5118160000000  0.4506190000000 1.0
C      1  0.4565470000000  0.5547000000000  0.5331690000000 1.0
C      1  0.5099130000000  0.5171720000000  0.5719840000000 1.0
C      1  0.5082190000000  0.4460390000000  0.4920930000000 1.0
C      1  0.4984200000000  0.4403590000000  0.5380250000000 1.0
C      1  0.4840610000000  0.4632830000000  0.4939200000000 1.0
C      1  0.5402560000000  0.4794340000000  0.4793000000000 1.0
C      1  0.5241620000000  0.4766590000000  0.5561500000000 1.0
C      1  0.5497750000000  0.5185300000000  0.5455220000000 1.0
C      1  0.4713170000000  0.5411400000000  0.4317920000000 1.0
C      1  0.4787150000000  0.4601650000000  0.5446400000000 1.0
C      1  0.5913200000000  0.4879020000000  0.4921540000000 1.0
C      1  0.5281780000000  0.5068230000000  0.4797200000000 1.0
C      1  0.5460940000000  0.4535980000000  0.5263770000000 1.0
C      1  0.4994510000000  0.5128160000000  0.4789930000000 1.0
C      1  0.5338050000000  0.5199500000000  0.5052800000000 1.0
C      1  0.4741250000000  0.4711990000000  0.4362680000000 1.0
C      1  0.4844190000000  0.4796580000000  0.5170990000000 1.0
C      1  0.5224090000000  0.5291690000000  0.5500060000000 1.0
C      1  0.5127270000000  0.5107010000000  0.5228020000000 1.0
C      1  0.4521410000000  0.4883700000000  0.4473170000000 1.0
C      1  0.4336440000000  0.5375490000000  0.5361090000000 1.0
C      1  0.4322030000000  0.5183680000000  0.4930130000000 1.0
C      1  0.4952090000000  0.4892290000000  0.4326240000000 1.0
C      1  0.4406790000000  0.4458550000000  0.5169680000000 1.0
C      1  0.4882400000000  0.5068280000000  0.5069000000000 1.0
C      1  0.5300690000000  0.4638910000000  0.5037010000000 1.0
C      1  0.5232120000000  0.4826270000000  0.4331870000000 1.0
C      1  0.4972390000000  0.5393460000000  0.4392420000000 1.0
C      1  0.4316140000000  0.4727320000000  0.5167510000000 1.0
C      1  0.5081250000000  0.4469240000000  0.4627140000000 1.0
C      1  0.5121630000000  0.5522840000000  0.5331350000000 1.0
C      1  0.5012240000000  0.5427320000000  0.4819560000000 1.0
C      1  0.5243690000000  0.4488220000000  0.5461690000000 1.0
C      1  0.5394270000000  0.5216750000000  0.4558290000000 1.0
C      1  0.5357990000000  0.5692330000000  0.4662380000000 1.0
C      1  0.5457950000000  0.5609790000000  0.4906790000000 1.0
C      1  0.4361190000000  0.5126110000000  0.5502440000000 1.0
C      1  0.5688320000000  0.4928930000000  0.4776960000000 1.0
C      1  0.4803780000000  0.4494180000000  0.4528320000000 1.0
C      1  0.4314470000000  0.4889620000000  0.4927090000000 1.0
C      1  0.4619410000000  0.4368310000000  0.5022390000000 1.0
C      1  0.5501860000000  0.4910140000000  0.5515010000000 1.0
C      1  0.4906340000000  0.4322360000000  0.5115220000000 1.0
C      1  0.5224510000000  0.5481600000000  0.5052100000000 1.0
C      1  0.4530660000000  0.4927170000000  0.5609880000000 1.0
END
