TITL C-151848-1674-4 -0.15560189678018 125000 -1020.38842490202 0 0 145 (C1) n - 1
REM
REM in /rds/project/t2_vol4/rds-t2-cs072/BORA/CARBON/from-Arr/AIRSS/Generating-Clusters/GAP-ML-2020/Only-C1/SD-CG/HFTN-CG
REM
REM
REM
REM
REM
REM ./C.cell (11c1c37f851c82e70ff6c80c92926a4b)
REM AIRSS Version 0.9.1 bugfix July 2018 build 013d7b7c2542+ Fri, 06 Jul 2018 19:26:36 +0100
REM compiler GCC version 9.3.0
REM options -cpp -mtune=generic -march=x86-64 -g -O0
REM seed 1714357039 -1615671962 -1598202161 1023306761 415289834 -1571085669 1171368477 -1063302257 -1328766698 -697430435 1421853895 650352845 -1752794603 -2100673836 -343274458 -1456863174 1628616859 -1901169960 -458037145 -33006758 2074036004 -491325759 -1467183729 612301195 -667203950 1834071616 433304733 -1598104103 -2066003460 99715439 -1935857479 1443780705 -509702723
REM
CELL 1.54180   50.00000   50.00000   50.00000   90.00000   90.00000   90.00000
LATT -1
SFAC C  
C      1  0.5392320000000  0.5021500000000  0.5962910000000 1.0
C      1  0.4500200000000  0.4857840000000  0.4755380000000 1.0
C      1  0.5194420000000  0.5599900000000  0.5507270000000 1.0
C      1  0.4969010000000  0.4951540000000  0.4310130000000 1.0
C      1  0.5807660000000  0.4598050000000  0.4578490000000 1.0
C      1  0.5062190000000  0.4466730000000  0.4252370000000 1.0
C      1  0.5829940000000  0.4398150000000  0.4984470000000 1.0
C      1  0.5599200000000  0.4147090000000  0.4574740000000 1.0
C      1  0.4948050000000  0.5753700000000  0.5582070000000 1.0
C      1  0.4082210000000  0.4753690000000  0.5104940000000 1.0
C      1  0.5313650000000  0.5260200000000  0.4580380000000 1.0
C      1  0.5932140000000  0.4969270000000  0.5456360000000 1.0
C      1  0.5984810000000  0.5244500000000  0.5373260000000 1.0
C      1  0.4340720000000  0.5536540000000  0.5515880000000 1.0
C      1  0.5026490000000  0.5176060000000  0.4099860000000 1.0
C      1  0.4828820000000  0.5278650000000  0.4721990000000 1.0
C      1  0.4519220000000  0.4034260000000  0.5028020000000 1.0
C      1  0.4456850000000  0.5667170000000  0.5260230000000 1.0
C      1  0.4645660000000  0.5985860000000  0.4966780000000 1.0
C      1  0.5253210000000  0.4794820000000  0.5947210000000 1.0
C      1  0.5117470000000  0.4236220000000  0.4434320000000 1.0
C      1  0.4414890000000  0.4150930000000  0.5249940000000 1.0
C      1  0.4821240000000  0.4147550000000  0.4449800000000 1.0
C      1  0.5933990000000  0.5334480000000  0.4873080000000 1.0
C      1  0.4922720000000  0.5448200000000  0.4133640000000 1.0
C      1  0.4617290000000  0.4680680000000  0.4550860000000 1.0
C      1  0.5339990000000  0.5774050000000  0.4799370000000 1.0
C      1  0.4813820000000  0.4592160000000  0.5850420000000 1.0
C      1  0.4927680000000  0.6035280000000  0.4900480000000 1.0
C      1  0.5197220000000  0.5584500000000  0.5210490000000 1.0
C      1  0.5691970000000  0.4333900000000  0.5228440000000 1.0
C      1  0.5482910000000  0.5635100000000  0.5590460000000 1.0
C      1  0.5336450000000  0.4628180000000  0.4608000000000 1.0
C      1  0.5168180000000  0.4401480000000  0.4705740000000 1.0
C      1  0.5632610000000  0.5403750000000  0.5688290000000 1.0
C      1  0.5394070000000  0.4830290000000  0.5130590000000 1.0
C      1  0.5275740000000  0.5465160000000  0.4786840000000 1.0
C      1  0.4299730000000  0.4197390000000  0.4977900000000 1.0
C      1  0.4312780000000  0.5488090000000  0.4496120000000 1.0
C      1  0.5646730000000  0.5780050000000  0.4859800000000 1.0
C      1  0.5765470000000  0.4341180000000  0.4709270000000 1.0
C      1  0.4404830000000  0.4366170000000  0.5678750000000 1.0
C      1  0.4878250000000  0.5944780000000  0.5374640000000 1.0
C      1  0.5560990000000  0.5123430000000  0.5754110000000 1.0
C      1  0.4204870000000  0.4562980000000  0.5586470000000 1.0
C      1  0.4842940000000  0.5099040000000  0.5920530000000 1.0
C      1  0.5378440000000  0.4092580000000  0.4455690000000 1.0
C      1  0.4771970000000  0.4214390000000  0.4717700000000 1.0
C      1  0.4893160000000  0.4693610000000  0.4936140000000 1.0
C      1  0.4515480000000  0.4931480000000  0.5628400000000 1.0
C      1  0.4968480000000  0.4339350000000  0.5773160000000 1.0
C      1  0.5403910000000  0.4578500000000  0.5798810000000 1.0
C      1  0.4470950000000  0.4898340000000  0.4159010000000 1.0
C      1  0.4688900000000  0.5756200000000  0.4387460000000 1.0
C      1  0.5752680000000  0.4915550000000  0.5667850000000 1.0
C      1  0.4987300000000  0.4531460000000  0.5167940000000 1.0
C      1  0.5949650000000  0.4660890000000  0.5009190000000 1.0
C      1  0.4981150000000  0.5499140000000  0.4808930000000 1.0
C      1  0.5640690000000  0.5489630000000  0.4255560000000 1.0
C      1  0.4437350000000  0.5840010000000  0.4826380000000 1.0
C      1  0.5423870000000  0.5105000000000  0.5223360000000 1.0
C      1  0.5113650000000  0.5621400000000  0.4262990000000 1.0
C      1  0.4980180000000  0.5816350000000  0.4430910000000 1.0
C      1  0.5176580000000  0.4703770000000  0.5294740000000 1.0
C      1  0.4070990000000  0.4614850000000  0.4852540000000 1.0
C      1  0.4775030000000  0.4735140000000  0.5577800000000 1.0
C      1  0.4965430000000  0.5127630000000  0.5331920000000 1.0
C      1  0.5085070000000  0.4935110000000  0.4852330000000 1.0
C      1  0.4967030000000  0.5328450000000  0.5808180000000 1.0
C      1  0.5014230000000  0.4075550000000  0.5109860000000 1.0
C      1  0.4583210000000  0.4269630000000  0.5471320000000 1.0
C      1  0.5737740000000  0.5211690000000  0.4193870000000 1.0
C      1  0.4178720000000  0.4662920000000  0.4401140000000 1.0
C      1  0.5377330000000  0.5160170000000  0.5514620000000 1.0
C      1  0.5650910000000  0.4648010000000  0.5661000000000 1.0
C      1  0.4343000000000  0.4737970000000  0.5769920000000 1.0
C      1  0.4454330000000  0.5732040000000  0.4564140000000 1.0
C      1  0.5603800000000  0.5825230000000  0.5144350000000 1.0
C      1  0.5187070000000  0.4725550000000  0.4308470000000 1.0
C      1  0.5038100000000  0.4077810000000  0.5397780000000 1.0
C      1  0.5683950000000  0.5698470000000  0.5391670000000 1.0
C      1  0.5827350000000  0.5514240000000  0.4474240000000 1.0
C      1  0.5012830000000  0.4867140000000  0.5457020000000 1.0
C      1  0.5523890000000  0.5045740000000  0.4107180000000 1.0
C      1  0.5466780000000  0.4793070000000  0.4213780000000 1.0
C      1  0.5301670000000  0.5222530000000  0.4089520000000 1.0
C      1  0.4470380000000  0.4982940000000  0.5321810000000 1.0
C      1  0.5579320000000  0.4630640000000  0.4418830000000 1.0
C      1  0.4381490000000  0.5105140000000  0.4852490000000 1.0
C      1  0.4843970000000  0.4164580000000  0.5584570000000 1.0
C      1  0.5094890000000  0.5928810000000  0.4673160000000 1.0
C      1  0.5511820000000  0.5079790000000  0.4702030000000 1.0
C      1  0.5368290000000  0.4838350000000  0.4824510000000 1.0
C      1  0.4869780000000  0.4511520000000  0.4709700000000 1.0
C      1  0.5138940000000  0.5127540000000  0.5093780000000 1.0
C      1  0.5908770000000  0.4800080000000  0.4757780000000 1.0
C      1  0.4672860000000  0.5450230000000  0.5153220000000 1.0
C      1  0.4215230000000  0.5032830000000  0.5120590000000 1.0
C      1  0.5830790000000  0.5590360000000  0.4741510000000 1.0
C      1  0.4208930000000  0.4613750000000  0.5313400000000 1.0
C      1  0.4789850000000  0.4499240000000  0.4195460000000 1.0
C      1  0.5779660000000  0.4529580000000  0.5427910000000 1.0
C      1  0.4118290000000  0.5463200000000  0.4944580000000 1.0
C      1  0.4533470000000  0.5445770000000  0.5722490000000 1.0
C      1  0.5839750000000  0.5458690000000  0.5498030000000 1.0
C      1  0.4797630000000  0.5561130000000  0.5737840000000 1.0
C      1  0.4661800000000  0.5542430000000  0.4201240000000 1.0
C      1  0.4356200000000  0.5139530000000  0.4145790000000 1.0
C      1  0.5941510000000  0.4727620000000  0.5296490000000 1.0
C      1  0.4690150000000  0.5171260000000  0.5235470000000 1.0
C      1  0.4586890000000  0.5161640000000  0.5801610000000 1.0
C      1  0.5893340000000  0.5223530000000  0.4434830000000 1.0
C      1  0.4394820000000  0.4468990000000  0.4493500000000 1.0
C      1  0.5321990000000  0.5354000000000  0.5066110000000 1.0
C      1  0.4119680000000  0.5408190000000  0.5424660000000 1.0
C      1  0.4522170000000  0.4534560000000  0.5875740000000 1.0
C      1  0.4420560000000  0.5394190000000  0.4251880000000 1.0
C      1  0.5123050000000  0.5304350000000  0.5556930000000 1.0
C      1  0.5191460000000  0.4290990000000  0.5018490000000 1.0
C      1  0.4961030000000  0.4832250000000  0.5958540000000 1.0
C      1  0.4198580000000  0.4943750000000  0.4296260000000 1.0
C      1  0.5022280000000  0.5097120000000  0.4597570000000 1.0
C      1  0.4185980000000  0.5297500000000  0.4687710000000 1.0
C      1  0.4623200000000  0.4308020000000  0.4316820000000 1.0
C      1  0.5250330000000  0.4351840000000  0.5718510000000 1.0
C      1  0.4625030000000  0.5920990000000  0.5243600000000 1.0
C      1  0.4790340000000  0.4053890000000  0.4943090000000 1.0
C      1  0.5303610000000  0.5839070000000  0.5102110000000 1.0
C      1  0.4284470000000  0.5683150000000  0.5011270000000 1.0
C      1  0.5065960000000  0.6014490000000  0.5155750000000 1.0
C      1  0.4925800000000  0.5570440000000  0.5075100000000 1.0
C      1  0.4505370000000  0.4696550000000  0.5228060000000 1.0
C      1  0.6041220000000  0.5304260000000  0.5113950000000 1.0
C      1  0.4062730000000  0.5050010000000  0.4541810000000 1.0
C      1  0.4714020000000  0.4538350000000  0.5363820000000 1.0
C      1  0.4711640000000  0.4781160000000  0.4276120000000 1.0
C      1  0.5824810000000  0.5094020000000  0.4702240000000 1.0
C      1  0.4610620000000  0.4728060000000  0.4969860000000 1.0
C      1  0.4629040000000  0.5242010000000  0.4932610000000 1.0
C      1  0.5352370000000  0.5445240000000  0.4289210000000 1.0
C      1  0.5424330000000  0.4242990000000  0.5225380000000 1.0
C      1  0.4242080000000  0.4389830000000  0.4775260000000 1.0
C      1  0.5283820000000  0.4196030000000  0.5469790000000 1.0
C      1  0.4027670000000  0.4770600000000  0.4623560000000 1.0
C      1  0.4081430000000  0.5295800000000  0.5177570000000 1.0
END
