TITL C-158512-1812-3 -0.467532243314678 125000 -410.41177811219 0 0 60 (C1) n - 1
REM
REM in /rds/project/t2_vol4/rds-t2-cs072/BORA/CARBON/from-Arr/AIRSS/Generating-Clusters/GAP-ML-2020/Only-C1/SD-CG/HFTN-CG
REM
REM
REM
REM
REM
REM ./C.cell (11c1c37f851c82e70ff6c80c92926a4b)
REM AIRSS Version 0.9.1 bugfix July 2018 build 013d7b7c2542+ Fri, 06 Jul 2018 19:26:36 +0100
REM compiler GCC version 9.3.0
REM options -cpp -mtune=generic -march=x86-64 -g -O0
REM seed 335288204 -1999603287 1489817704 1985845850 -1988705521 -633379375 -1061797339 1432321752 431485673 986430428 1741770891 -295249774 -1380769527 36124921 -1846946740 1302306368 -1116310112 506746640 -1589606687 1817373584 -568794892 321100678 -1284964221 65604401 1869727368 562238409 914887622 1181058562 -736977987 -449507407 1880572756 259361095 1113575395
REM
CELL 1.54180   50.00000   50.00000   50.00000   90.00000   90.00000   90.00000
LATT -1
SFAC C  
C      1  0.5364510000000  0.4971790000000  0.5495260000000 1.0
C      1  0.5552110000000  0.5404870000000  0.4924570000000 1.0
C      1  0.4330080000000  0.5220830000000  0.5061210000000 1.0
C      1  0.5576420000000  0.4780340000000  0.4632570000000 1.0
C      1  0.5327620000000  0.4728310000000  0.5022040000000 1.0
C      1  0.5380960000000  0.5204950000000  0.4484890000000 1.0
C      1  0.4917770000000  0.5627200000000  0.5248270000000 1.0
C      1  0.4713630000000  0.4988230000000  0.4220080000000 1.0
C      1  0.4952190000000  0.4181010000000  0.5133880000000 1.0
C      1  0.4941850000000  0.4757290000000  0.5637730000000 1.0
C      1  0.4429310000000  0.4750890000000  0.5197910000000 1.0
C      1  0.4756320000000  0.4610270000000  0.4558980000000 1.0
C      1  0.4667300000000  0.4773200000000  0.5653960000000 1.0
C      1  0.5167540000000  0.5408220000000  0.4482840000000 1.0
C      1  0.5281690000000  0.4757040000000  0.5312830000000 1.0
C      1  0.4668920000000  0.5200190000000  0.4409610000000 1.0
C      1  0.4408610000000  0.4892160000000  0.4743690000000 1.0
C      1  0.4995280000000  0.5741690000000  0.4773520000000 1.0
C      1  0.4324970000000  0.4940250000000  0.5016190000000 1.0
C      1  0.5174020000000  0.4270960000000  0.4952670000000 1.0
C      1  0.5636930000000  0.5225310000000  0.5147640000000 1.0
C      1  0.5054810000000  0.4486730000000  0.5615310000000 1.0
C      1  0.4604660000000  0.4551210000000  0.5036450000000 1.0
C      1  0.5430660000000  0.4311760000000  0.4873870000000 1.0
C      1  0.4407560000000  0.5343480000000  0.4815580000000 1.0
C      1  0.4493500000000  0.4863520000000  0.5460700000000 1.0
C      1  0.4471010000000  0.5340170000000  0.5272810000000 1.0
C      1  0.5319050000000  0.5419060000000  0.5443180000000 1.0
C      1  0.4578960000000  0.5559650000000  0.4873830000000 1.0
C      1  0.4585150000000  0.5136820000000  0.5433670000000 1.0
C      1  0.5134160000000  0.5010120000000  0.5672900000000 1.0
C      1  0.5230650000000  0.5622430000000  0.4659470000000 1.0
C      1  0.5487330000000  0.5207740000000  0.5394130000000 1.0
C      1  0.5360670000000  0.4905000000000  0.4467200000000 1.0
C      1  0.5060830000000  0.5488360000000  0.5463650000000 1.0
C      1  0.5278490000000  0.4996850000000  0.4947830000000 1.0
C      1  0.4858130000000  0.5098500000000  0.5328710000000 1.0
C      1  0.5014110000000  0.5039640000000  0.4920690000000 1.0
C      1  0.4845570000000  0.4785880000000  0.4342200000000 1.0
C      1  0.5090400000000  0.4563530000000  0.4938000000000 1.0
C      1  0.4557260000000  0.4651940000000  0.4749050000000 1.0
C      1  0.4885450000000  0.4599430000000  0.5152040000000 1.0
C      1  0.4885680000000  0.5208010000000  0.5065330000000 1.0
C      1  0.5747900000000  0.5004910000000  0.5022890000000 1.0
C      1  0.5127350000000  0.4745290000000  0.4436080000000 1.0
C      1  0.5593040000000  0.5253500000000  0.4674920000000 1.0
C      1  0.5355840000000  0.5603150000000  0.4924760000000 1.0
C      1  0.5522220000000  0.4575460000000  0.4839240000000 1.0
C      1  0.5715510000000  0.5000480000000  0.4749780000000 1.0
C      1  0.5093410000000  0.5713330000000  0.5038540000000 1.0
C      1  0.5244470000000  0.4491560000000  0.5426770000000 1.0
C      1  0.4861280000000  0.5409280000000  0.4477340000000 1.0
C      1  0.4774340000000  0.5607440000000  0.4674060000000 1.0
C      1  0.5023570000000  0.4577460000000  0.4649760000000 1.0
C      1  0.4990740000000  0.5229270000000  0.5551960000000 1.0
C      1  0.4966740000000  0.4819770000000  0.5333100000000 1.0
C      1  0.4460010000000  0.5149040000000  0.4613570000000 1.0
C      1  0.4645130000000  0.5555950000000  0.5161290000000 1.0
C      1  0.4992970000000  0.4379230000000  0.5344140000000 1.0
C      1  0.4683370000000  0.4260030000000  0.5044860000000 1.0
END
