TITL C-151847-9489-4 -0.0552064043602981 125000 -364.692643518307 0 0 54 (C1) n - 1
REM
REM in /rds/project/t2_vol4/rds-t2-cs072/BORA/CARBON/from-Arr/AIRSS/Generating-Clusters/GAP-ML-2020/Only-C1/SD-CG/HFTN-CG
REM
REM
REM
REM
REM
REM ./C.cell (11c1c37f851c82e70ff6c80c92926a4b)
REM AIRSS Version 0.9.1 bugfix July 2018 build 013d7b7c2542+ Fri, 06 Jul 2018 19:26:36 +0100
REM compiler GCC version 9.3.0
REM options -cpp -mtune=generic -march=x86-64 -g -O0
REM seed 1440354916 1916790569 163527417 1958808055 -1027345614 960181528 -1440550063 810923203 -1154447757 584680843 1774878129 177137680 1833998499 802815658 1901528131 -1606830664 -1596116434 -800901488 -256156755 1329599672 901106868 1187062200 -1163482646 -1386551156 -68812562 2134705105 -462603317 2106895218 651308170 -1606270552 546380636 1034645576 -1427803062
REM
CELL 1.54180   50.00000   50.00000   50.00000   90.00000   90.00000   90.00000
LATT -1
SFAC C  
C      1  0.5197540000000  0.5110950000000  0.4360170000000 1.0
C      1  0.5475080000000  0.4766400000000  0.4552530000000 1.0
C      1  0.4667030000000  0.4721110000000  0.5053040000000 1.0
C      1  0.4735400000000  0.5082750000000  0.4381840000000 1.0
C      1  0.4891300000000  0.4846900000000  0.5280220000000 1.0
C      1  0.5331280000000  0.4460910000000  0.4900890000000 1.0
C      1  0.5026840000000  0.5108280000000  0.4916230000000 1.0
C      1  0.5649090000000  0.4869650000000  0.4988180000000 1.0
C      1  0.5029040000000  0.4577620000000  0.5358430000000 1.0
C      1  0.5289100000000  0.4964590000000  0.5551460000000 1.0
C      1  0.4572630000000  0.5167620000000  0.5463510000000 1.0
C      1  0.5608510000000  0.5154310000000  0.4938860000000 1.0
C      1  0.4293790000000  0.5048490000000  0.4573140000000 1.0
C      1  0.4977570000000  0.4929150000000  0.4320260000000 1.0
C      1  0.5512700000000  0.5065130000000  0.5393030000000 1.0
C      1  0.5623290000000  0.4826170000000  0.5268880000000 1.0
C      1  0.5508290000000  0.4607960000000  0.5381240000000 1.0
C      1  0.5095950000000  0.4494710000000  0.5075000000000 1.0
C      1  0.5049730000000  0.5102040000000  0.5589620000000 1.0
C      1  0.5019050000000  0.5348650000000  0.5458150000000 1.0
C      1  0.5176280000000  0.5619370000000  0.5085150000000 1.0
C      1  0.4650400000000  0.4717610000000  0.5617430000000 1.0
C      1  0.4789860000000  0.4974070000000  0.5557600000000 1.0
C      1  0.4818620000000  0.5324270000000  0.4520960000000 1.0
C      1  0.4361870000000  0.5137510000000  0.4822180000000 1.0
C      1  0.5120600000000  0.4962100000000  0.5126560000000 1.0
C      1  0.4498420000000  0.5444030000000  0.5373820000000 1.0
C      1  0.5549050000000  0.5271050000000  0.5192560000000 1.0
C      1  0.5084820000000  0.4836620000000  0.4868340000000 1.0
C      1  0.4883340000000  0.4611620000000  0.4889540000000 1.0
C      1  0.4766330000000  0.5210300000000  0.5008840000000 1.0
C      1  0.4416950000000  0.4988180000000  0.5307610000000 1.0
C      1  0.5421840000000  0.5522440000000  0.5191070000000 1.0
C      1  0.5251580000000  0.5452320000000  0.4668340000000 1.0
C      1  0.5542020000000  0.4673140000000  0.4818630000000 1.0
C      1  0.4773910000000  0.4489840000000  0.5469360000000 1.0
C      1  0.5202200000000  0.5530090000000  0.5364220000000 1.0
C      1  0.5433250000000  0.5046000000000  0.4505940000000 1.0
C      1  0.4770680000000  0.5339720000000  0.5294360000000 1.0
C      1  0.4555250000000  0.4541380000000  0.5268860000000 1.0
C      1  0.4935160000000  0.4491090000000  0.4621160000000 1.0
C      1  0.4430610000000  0.4730830000000  0.5436150000000 1.0
C      1  0.5092420000000  0.5348690000000  0.4464650000000 1.0
C      1  0.5049530000000  0.5560670000000  0.4849350000000 1.0
C      1  0.5021810000000  0.4661370000000  0.4386780000000 1.0
C      1  0.4747180000000  0.5425230000000  0.4786390000000 1.0
C      1  0.4454060000000  0.5430130000000  0.4870310000000 1.0
C      1  0.5267530000000  0.4679460000000  0.5498050000000 1.0
C      1  0.4405520000000  0.5486900000000  0.5131800000000 1.0
C      1  0.5210850000000  0.4399040000000  0.4647390000000 1.0
C      1  0.4466010000000  0.5013440000000  0.4385520000000 1.0
C      1  0.5478150000000  0.5251900000000  0.4700410000000 1.0
C      1  0.5294070000000  0.4578150000000  0.4440280000000 1.0
C      1  0.4526620000000  0.4998050000000  0.5025720000000 1.0
END
