TITL C-152508-6984-9 6.5451876118556 125000 -75.059668505792 0 0 12 (C1) n - 1
REM
REM in /rds/project/t2_vol4/rds-t2-cs072/BORA/CARBON/from-Arr/AIRSS/Generating-Clusters/GAP-ML-2020/Only-C1/SD-CG/HFTN-CG
REM
REM
REM
REM
REM
REM ./C.cell (11c1c37f851c82e70ff6c80c92926a4b)
REM AIRSS Version 0.9.1 bugfix July 2018 build 013d7b7c2542+ Fri, 06 Jul 2018 19:26:36 +0100
REM compiler GCC version 9.3.0
REM options -cpp -mtune=generic -march=x86-64 -g -O0
REM seed 243640419 -172692076 -549262877 -665021121 1019215911 1915525384 -586133950 602904456 -1369463523 1155918172 -913069390 -2040147044 1101499224 -1331940268 -2101173777 -1162515748 843703731 -857445206 -708576398 -1927713595 -575828341 1417975826 -946954458 -1754728999 346931209 -718258758 1457776177 1714507067 -1987528138 503930546 2014115218 942596874 -2052737870
REM
CELL 1.54180   50.00000   50.00000   50.00000   90.00000   90.00000   90.00000
LATT -1
SFAC C  
C      1  0.5412420000000  0.4862990000000  0.5466040000000 1.0
C      1  0.5356640000000  0.4475840000000  0.4846300000000 1.0
C      1  0.4915080000000  0.5392830000000  0.4761080000000 1.0
C      1  0.5005950000000  0.5502100000000  0.4555570000000 1.0
C      1  0.4765290000000  0.4968010000000  0.4913450000000 1.0
C      1  0.4826890000000  0.5310470000000  0.5249720000000 1.0
C      1  0.5020080000000  0.5170730000000  0.5333060000000 1.0
C      1  0.5131880000000  0.4592430000000  0.4845430000000 1.0
C      1  0.4900790000000  0.4718410000000  0.4832820000000 1.0
C      1  0.4830220000000  0.5238680000000  0.4969630000000 1.0
C      1  0.4617930000000  0.4756830000000  0.4836080000000 1.0
C      1  0.5216840000000  0.5010680000000  0.5390810000000 1.0
END
