TITL C-151852-9438-5 353.026716330142 125000 -650.469606072479 0 0 94 (C1) n - 1
REM
REM in /rds/project/t2_vol4/rds-t2-cs072/BORA/CARBON/from-Arr/AIRSS/Generating-Clusters/GAP-ML-2020/Only-C1/SD-CG/HFTN-CG
REM
REM
REM
REM
REM
REM ./C.cell (11c1c37f851c82e70ff6c80c92926a4b)
REM AIRSS Version 0.9.1 bugfix July 2018 build 013d7b7c2542+ Fri, 06 Jul 2018 19:26:36 +0100
REM compiler GCC version 9.3.0
REM options -cpp -mtune=generic -march=x86-64 -g -O0
REM seed 537142312 153355901 123995762 -284686625 1040058473 -161229708 -521441868 1185744615 887093954 -883632620 1564208827 -1824203525 1301374070 -1058927919 934000800 1267797858 1586882432 1296510442 700634407 -1659417002 998424766 -57192488 -112027947 -623316889 -2059909836 664152603 -1243565318 -2129514946 789061517 1523247744 1650779545 885085275 1937076633
REM
CELL 1.54180   50.00000   50.00000   50.00000   90.00000   90.00000   90.00000
LATT -1
SFAC C  
C      1  0.4488350000000  0.4592330000000  0.4998610000000 1.0
C      1  0.5032430000000  0.5875040000000  0.4909290000000 1.0
C      1  0.5154350000000  0.4273900000000  0.4503630000000 1.0
C      1  0.5084540000000  0.5184370000000  0.5764250000000 1.0
C      1  0.5362110000000  0.5512070000000  0.5524470000000 1.0
C      1  0.5098020000000  0.4695030000000  0.4252300000000 1.0
C      1  0.5215110000000  0.4360240000000  0.5523980000000 1.0
C      1  0.4833840000000  0.4876220000000  0.5416580000000 1.0
C      1  0.4940840000000  0.4103170000000  0.4914750000000 1.0
C      1  0.5397860000000  0.4768720000000  0.5441230000000 1.0
C      1  0.4604860000000  0.5263460000000  0.5209370000000 1.0
C      1  0.5273960000000  0.5618300000000  0.4518260000000 1.0
C      1  0.5145960000000  0.5207510000000  0.4256090000000 1.0
C      1  0.4793860000000  0.4623680000000  0.4983340000000 1.0
C      1  0.5744090000000  0.5078500000000  0.5323340000000 1.0
C      1  0.5333590000000  0.5157010000000  0.5174190000000 1.0
C      1  0.5327870000000  0.4600650000000  0.5652570000000 1.0
C      1  0.4707060000000  0.5514890000000  0.5100860000000 1.0
C      1  0.5615630000000  0.5282260000000  0.4459710000000 1.0
C      1  0.5370760000000  0.5150300000000  0.4418790000000 1.0
C      1  0.4610600000000  0.4728450000000  0.5585650000000 1.0
C      1  0.5472750000000  0.5045940000000  0.5439790000000 1.0
C      1  0.4692930000000  0.5713570000000  0.5337170000000 1.0
C      1  0.4640970000000  0.4685620000000  0.4324410000000 1.0
C      1  0.5263500000000  0.5155900000000  0.4703420000000 1.0
C      1  0.5588920000000  0.4459240000000  0.4842570000000 1.0
C      1  0.4552790000000  0.4310850000000  0.5057620000000 1.0
C      1  0.5332880000000  0.5250110000000  0.5637560000000 1.0
C      1  0.5136590000000  0.5669500000000  0.5436570000000 1.0
C      1  0.4578410000000  0.5154490000000  0.4515310000000 1.0
C      1  0.4862060000000  0.5567940000000  0.4516530000000 1.0
C      1  0.4503160000000  0.5556890000000  0.4870890000000 1.0
C      1  0.4683570000000  0.4921100000000  0.5807730000000 1.0
C      1  0.4877500000000  0.5610720000000  0.5536050000000 1.0
C      1  0.4909130000000  0.5002590000000  0.4991470000000 1.0
C      1  0.5287730000000  0.4552140000000  0.4458590000000 1.0
C      1  0.5430690000000  0.5066700000000  0.4921260000000 1.0
C      1  0.4372780000000  0.4693170000000  0.4733740000000 1.0
C      1  0.4328830000000  0.5306900000000  0.5284770000000 1.0
C      1  0.5770070000000  0.5060410000000  0.4578930000000 1.0
C      1  0.5048840000000  0.4979360000000  0.4736780000000 1.0
C      1  0.4946100000000  0.4768810000000  0.5174940000000 1.0
C      1  0.5577170000000  0.4573080000000  0.4545290000000 1.0
C      1  0.5468420000000  0.5668830000000  0.5092120000000 1.0
C      1  0.4652090000000  0.4282490000000  0.4571300000000 1.0
C      1  0.4078720000000  0.4758360000000  0.4724480000000 1.0
C      1  0.4970750000000  0.4427220000000  0.5666400000000 1.0
C      1  0.4714480000000  0.4280690000000  0.5297910000000 1.0
C      1  0.4835420000000  0.5165510000000  0.5388980000000 1.0
C      1  0.5536880000000  0.5527620000000  0.4595400000000 1.0
C      1  0.5621280000000  0.5569000000000  0.4865970000000 1.0
C      1  0.4713320000000  0.4441050000000  0.5542040000000 1.0
C      1  0.5184590000000  0.4161190000000  0.4769280000000 1.0
C      1  0.4375220000000  0.5133600000000  0.5506290000000 1.0
C      1  0.5377450000000  0.4283020000000  0.4948250000000 1.0
C      1  0.4453850000000  0.5020220000000  0.4748460000000 1.0
C      1  0.4997320000000  0.5471630000000  0.5056160000000 1.0
C      1  0.4630330000000  0.5427500000000  0.4601690000000 1.0
C      1  0.4659520000000  0.5955290000000  0.5223760000000 1.0
C      1  0.5239120000000  0.4679200000000  0.5197330000000 1.0
C      1  0.5669030000000  0.4672690000000  0.5003630000000 1.0
C      1  0.5048390000000  0.5208560000000  0.5166310000000 1.0
C      1  0.5766520000000  0.5354220000000  0.5256740000000 1.0
C      1  0.4510810000000  0.4534600000000  0.4524290000000 1.0
C      1  0.4767240000000  0.5966270000000  0.4965190000000 1.0
C      1  0.5054070000000  0.5746160000000  0.4657460000000 1.0
C      1  0.4675520000000  0.4173880000000  0.4832400000000 1.0
C      1  0.5805050000000  0.5376310000000  0.4974260000000 1.0
C      1  0.4589520000000  0.5175440000000  0.5709900000000 1.0
C      1  0.5806050000000  0.4906870000000  0.5089240000000 1.0
C      1  0.4889080000000  0.4290060000000  0.4400750000000 1.0
C      1  0.5086780000000  0.5458490000000  0.4362260000000 1.0
C      1  0.5227540000000  0.4354870000000  0.5212900000000 1.0
C      1  0.4975170000000  0.4927040000000  0.5850450000000 1.0
C      1  0.4430500000000  0.4825760000000  0.5159710000000 1.0
C      1  0.4602710000000  0.5039020000000  0.5013690000000 1.0
C      1  0.5175270000000  0.5712880000000  0.5121110000000 1.0
C      1  0.5571160000000  0.5547310000000  0.5331580000000 1.0
C      1  0.4985590000000  0.4973180000000  0.4238370000000 1.0
C      1  0.5176320000000  0.4712810000000  0.4724380000000 1.0
C      1  0.5728790000000  0.4796670000000  0.4524950000000 1.0
C      1  0.4532900000000  0.5848160000000  0.4872100000000 1.0
C      1  0.5089970000000  0.4667220000000  0.5801970000000 1.0
C      1  0.4944280000000  0.4565530000000  0.4771020000000 1.0
C      1  0.5774530000000  0.5108210000000  0.4870170000000 1.0
C      1  0.4196520000000  0.5179330000000  0.4829250000000 1.0
C      1  0.4259740000000  0.5389230000000  0.5006800000000 1.0
C      1  0.5384540000000  0.4773130000000  0.4951990000000 1.0
C      1  0.4870410000000  0.4531990000000  0.4248840000000 1.0
C      1  0.4969280000000  0.4197530000000  0.5179750000000 1.0
C      1  0.3995590000000  0.5002290000000  0.4761490000000 1.0
C      1  0.4702800000000  0.4968880000000  0.4325160000000 1.0
C      1  0.4841430000000  0.5332290000000  0.5645050000000 1.0
C      1  0.4395120000000  0.4859620000000  0.5438330000000 1.0
END
