TITL C-152486-7630-7 -43.0509400515005 125000 -596.259626992633 0 0 87 (C1) n - 1
REM
REM in /rds/project/t2_vol4/rds-t2-cs072/BORA/CARBON/from-Arr/AIRSS/Generating-Clusters/GAP-ML-2020/Only-C1/SD-CG/HFTN-CG
REM
REM
REM
REM
REM
REM ./C.cell (11c1c37f851c82e70ff6c80c92926a4b)
REM AIRSS Version 0.9.1 bugfix July 2018 build 013d7b7c2542+ Fri, 06 Jul 2018 19:26:36 +0100
REM compiler GCC version 9.3.0
REM options -cpp -mtune=generic -march=x86-64 -g -O0
REM seed -163199983 -682894959 -1903554715 1104787554 412841717 1677153551 -339948461 159446448 227940500 -1192141275 1539842466 -890798428 294019337 1920214629 -783874033 756741543 1997159294 -1580296189 -1824194698 302793795 -523799969 435660561 682101601 1419495495 1143380922 -245683251 1346375347 -987451512 538447085 563913674 -437469076 -637587842 -1125055813
REM
CELL 1.54180   50.00000   50.00000   50.00000   90.00000   90.00000   90.00000
LATT -1
SFAC C  
C      1  0.5659550000000  0.5111660000000  0.4735320000000 1.0
C      1  0.4516660000000  0.4601350000000  0.5144530000000 1.0
C      1  0.5145940000000  0.5407620000000  0.5196090000000 1.0
C      1  0.4897820000000  0.5138740000000  0.4930050000000 1.0
C      1  0.4790680000000  0.4937540000000  0.5116480000000 1.0
C      1  0.5301930000000  0.5154800000000  0.5724920000000 1.0
C      1  0.5514750000000  0.5346620000000  0.4620240000000 1.0
C      1  0.4143510000000  0.5242200000000  0.5054360000000 1.0
C      1  0.4784740000000  0.4731810000000  0.4731560000000 1.0
C      1  0.4969830000000  0.5262330000000  0.4139600000000 1.0
C      1  0.4470180000000  0.4819170000000  0.5594700000000 1.0
C      1  0.4768030000000  0.5050990000000  0.4133950000000 1.0
C      1  0.5228570000000  0.4652190000000  0.4444400000000 1.0
C      1  0.5083870000000  0.4656070000000  0.4218410000000 1.0
C      1  0.4716700000000  0.5542790000000  0.4471900000000 1.0
C      1  0.5178990000000  0.5591680000000  0.4383050000000 1.0
C      1  0.5678680000000  0.4843860000000  0.5425040000000 1.0
C      1  0.4524380000000  0.5134450000000  0.4252830000000 1.0
C      1  0.4642790000000  0.5391010000000  0.5199380000000 1.0
C      1  0.4685340000000  0.5690770000000  0.5250600000000 1.0
C      1  0.4703170000000  0.4775050000000  0.5765240000000 1.0
C      1  0.5767410000000  0.4948400000000  0.5164430000000 1.0
C      1  0.4751110000000  0.5260790000000  0.5787170000000 1.0
C      1  0.5743460000000  0.5185610000000  0.4999120000000 1.0
C      1  0.4613800000000  0.4651290000000  0.4356070000000 1.0
C      1  0.4929460000000  0.5014720000000  0.5359550000000 1.0
C      1  0.5593330000000  0.5564260000000  0.5312560000000 1.0
C      1  0.4702220000000  0.4486710000000  0.4573400000000 1.0
C      1  0.5036070000000  0.4463320000000  0.5074010000000 1.0
C      1  0.5417800000000  0.4927260000000  0.5553950000000 1.0
C      1  0.4486890000000  0.4910580000000  0.5055220000000 1.0
C      1  0.5217170000000  0.5298630000000  0.4701470000000 1.0
C      1  0.4419360000000  0.4834160000000  0.4470960000000 1.0
C      1  0.5302460000000  0.5711110000000  0.4855120000000 1.0
C      1  0.4919710000000  0.5451030000000  0.5624410000000 1.0
C      1  0.5120370000000  0.5686690000000  0.5073430000000 1.0
C      1  0.5180250000000  0.4875920000000  0.5347410000000 1.0
C      1  0.5096370000000  0.4312470000000  0.4820940000000 1.0
C      1  0.4385440000000  0.5075610000000  0.5506080000000 1.0
C      1  0.5478260000000  0.4387250000000  0.5499610000000 1.0
C      1  0.4467090000000  0.4380630000000  0.4978710000000 1.0
C      1  0.4515780000000  0.5338660000000  0.4467590000000 1.0
C      1  0.5227620000000  0.5409850000000  0.5655760000000 1.0
C      1  0.5177440000000  0.5187690000000  0.4964880000000 1.0
C      1  0.4193140000000  0.5253730000000  0.4795650000000 1.0
C      1  0.5133990000000  0.4962020000000  0.5858450000000 1.0
C      1  0.5381540000000  0.4355570000000  0.4780090000000 1.0
C      1  0.5665680000000  0.5460920000000  0.5061500000000 1.0
C      1  0.5217020000000  0.4708420000000  0.5119150000000 1.0
C      1  0.5115250000000  0.5101550000000  0.4513130000000 1.0
C      1  0.5398980000000  0.5411680000000  0.4343040000000 1.0
C      1  0.4906700000000  0.5307930000000  0.5351200000000 1.0
C      1  0.5567440000000  0.4824840000000  0.4761130000000 1.0
C      1  0.5708620000000  0.4493630000000  0.5112880000000 1.0
C      1  0.4843870000000  0.5753380000000  0.5014020000000 1.0
C      1  0.4816300000000  0.4650780000000  0.5023120000000 1.0
C      1  0.5509580000000  0.4313380000000  0.5033120000000 1.0
C      1  0.4706810000000  0.5354510000000  0.4906060000000 1.0
C      1  0.4767260000000  0.4525400000000  0.5622090000000 1.0
C      1  0.5352890000000  0.5489080000000  0.5408460000000 1.0
C      1  0.5747160000000  0.4734860000000  0.4975070000000 1.0
C      1  0.4538170000000  0.4587090000000  0.5440980000000 1.0
C      1  0.4924590000000  0.5514600000000  0.4275200000000 1.0
C      1  0.4795850000000  0.5688860000000  0.5507100000000 1.0
C      1  0.5222250000000  0.5199110000000  0.4251420000000 1.0
C      1  0.5265240000000  0.4474370000000  0.5680770000000 1.0
C      1  0.5291550000000  0.4739440000000  0.5762280000000 1.0
C      1  0.5371490000000  0.4239880000000  0.5280890000000 1.0
C      1  0.5541570000000  0.5561220000000  0.4830120000000 1.0
C      1  0.5680890000000  0.4557350000000  0.5396330000000 1.0
C      1  0.4272490000000  0.5028450000000  0.4340080000000 1.0
C      1  0.4862690000000  0.4255380000000  0.4673950000000 1.0
C      1  0.4528750000000  0.4909580000000  0.4748190000000 1.0
C      1  0.4506760000000  0.5249960000000  0.5673740000000 1.0
C      1  0.4828450000000  0.4769430000000  0.4194010000000 1.0
C      1  0.5118760000000  0.5593770000000  0.4666780000000 1.0
C      1  0.4371060000000  0.5146570000000  0.5212850000000 1.0
C      1  0.4517480000000  0.5205950000000  0.4737160000000 1.0
C      1  0.4207690000000  0.5272540000000  0.4520770000000 1.0
C      1  0.5010060000000  0.4381170000000  0.5568350000000 1.0
C      1  0.5080840000000  0.4843110000000  0.4640590000000 1.0
C      1  0.4853760000000  0.5001450000000  0.5859350000000 1.0
C      1  0.5091280000000  0.4281640000000  0.5307860000000 1.0
C      1  0.4821000000000  0.5597850000000  0.4751970000000 1.0
C      1  0.4595960000000  0.4288760000000  0.4762780000000 1.0
C      1  0.5454300000000  0.4579100000000  0.4606450000000 1.0
C      1  0.5259880000000  0.4886340000000  0.4897340000000 1.0
END
