TITL C-151016-9256-9 0.0200066033449332 125000 -148.407173072095 0 0 23 (C1) n - 1
REM
REM in /rds/project/t2_vol4/rds-t2-cs072/BORA/CARBON/from-Arr/AIRSS/Generating-Clusters/GAP-ML-2020/Only-C1/SD-CG/HFTN-CG
REM
REM
REM
REM
REM
REM ./C.cell (11c1c37f851c82e70ff6c80c92926a4b)
REM AIRSS Version 0.9.1 bugfix July 2018 build 013d7b7c2542+ Fri, 06 Jul 2018 19:26:36 +0100
REM compiler GCC version 9.3.0
REM options -cpp -mtune=generic -march=x86-64 -g -O0
REM seed -2055844005 -2080564641 593717808 609726817 -1287126531 984398975 -535387194 -407256111 -198744709 1252912978 -1171543480 -1038345068 -1179540082 600577809 -1092422244 1798271656 -1697993060 -1080417344 599175395 2019664637 -2057418645 1959339665 -660968231 474002708 284914203 -1680814601 -1298351787 -670011850 -911310975 1855958340 -1006592644 2141544698 -1791238551
REM
CELL 1.54180   50.00000   50.00000   50.00000   90.00000   90.00000   90.00000
LATT -1
SFAC C  
C      1  0.5170770000000  0.5414610000000  0.4792700000000 1.0
C      1  0.5134420000000  0.5221640000000  0.5222700000000 1.0
C      1  0.4748700000000  0.5261860000000  0.4915920000000 1.0
C      1  0.4572790000000  0.4947440000000  0.5301940000000 1.0
C      1  0.5459400000000  0.4750680000000  0.4804820000000 1.0
C      1  0.4712750000000  0.5078950000000  0.4693010000000 1.0
C      1  0.5072710000000  0.4964310000000  0.5330770000000 1.0
C      1  0.5526370000000  0.5022960000000  0.4819790000000 1.0
C      1  0.4489850000000  0.5182020000000  0.5021420000000 1.0
C      1  0.5261520000000  0.4749410000000  0.5346030000000 1.0
C      1  0.5176190000000  0.5336750000000  0.4536560000000 1.0
C      1  0.4871630000000  0.4610060000000  0.5121070000000 1.0
C      1  0.5386420000000  0.5233060000000  0.4678370000000 1.0
C      1  0.4997230000000  0.5351430000000  0.5006790000000 1.0
C      1  0.4597960000000  0.4796490000000  0.4791190000000 1.0
C      1  0.4434010000000  0.5012120000000  0.4786240000000 1.0
C      1  0.5173410000000  0.4578030000000  0.5136540000000 1.0
C      1  0.4816150000000  0.4836920000000  0.5284610000000 1.0
C      1  0.4695280000000  0.4585350000000  0.4910750000000 1.0
C      1  0.5415400000000  0.5268570000000  0.5220980000000 1.0
C      1  0.5554870000000  0.5104800000000  0.5089160000000 1.0
C      1  0.4390080000000  0.5134630000000  0.5274070000000 1.0
C      1  0.5342080000000  0.4557930000000  0.4914590000000 1.0
END
