TITL C-154610-4083-6 -0.0696499042758358 125000 -374.444597754181 0 0 55 (C1) n - 1
REM
REM in /rds/project/t2_vol4/rds-t2-cs072/BORA/CARBON/from-Arr/AIRSS/Generating-Clusters/GAP-ML-2020/Only-C1/SD-CG/HFTN-CG
REM
REM
REM
REM
REM
REM ./C.cell (11c1c37f851c82e70ff6c80c92926a4b)
REM AIRSS Version 0.9.1 bugfix July 2018 build 013d7b7c2542+ Fri, 06 Jul 2018 19:26:36 +0100
REM compiler GCC version 9.3.0
REM options -cpp -mtune=generic -march=x86-64 -g -O0
REM seed 1156300072 -1338566103 -471041560 633403978 1641979376 -2076544894 -1427447658 -551913293 -1510998638 -1741050356 -1346660124 -1885295835 1180627647 -1573721506 1530609043 -1645442060 -412540164 460680138 -1295246327 2145963361 -592121023 868269140 -519369283 -1426024011 -143523123 -113101647 2009549664 832561516 425552244 93935108 -1324187384 1905502865 1996894606
REM
CELL 1.54180   50.00000   50.00000   50.00000   90.00000   90.00000   90.00000
LATT -1
SFAC C  
C      1  0.4791990000000  0.5595640000000  0.4820810000000 1.0
C      1  0.5150510000000  0.4347580000000  0.5198020000000 1.0
C      1  0.5221070000000  0.5495550000000  0.4653050000000 1.0
C      1  0.4595440000000  0.4585050000000  0.4974770000000 1.0
C      1  0.5041460000000  0.5409050000000  0.4452890000000 1.0
C      1  0.5637430000000  0.4876270000000  0.5270500000000 1.0
C      1  0.4770200000000  0.4844890000000  0.5614190000000 1.0
C      1  0.4275660000000  0.5096640000000  0.4884900000000 1.0
C      1  0.5580090000000  0.5250170000000  0.4875700000000 1.0
C      1  0.5674190000000  0.4801360000000  0.5000620000000 1.0
C      1  0.5392100000000  0.4462120000000  0.5309120000000 1.0
C      1  0.4984930000000  0.4460960000000  0.5424850000000 1.0
C      1  0.4521290000000  0.5506570000000  0.4935890000000 1.0
C      1  0.5229640000000  0.4581860000000  0.5525820000000 1.0
C      1  0.5153540000000  0.5411610000000  0.5427280000000 1.0
C      1  0.5176870000000  0.4691670000000  0.4323920000000 1.0
C      1  0.5739800000000  0.5378870000000  0.5064680000000 1.0
C      1  0.4917100000000  0.5041540000000  0.5027890000000 1.0
C      1  0.5297510000000  0.4964210000000  0.4316390000000 1.0
C      1  0.4785270000000  0.5479900000000  0.4548970000000 1.0
C      1  0.4623400000000  0.5249790000000  0.4589090000000 1.0
C      1  0.4956900000000  0.5276220000000  0.5587470000000 1.0
C      1  0.4806480000000  0.5081810000000  0.4771430000000 1.0
C      1  0.5229360000000  0.4817100000000  0.4801450000000 1.0
C      1  0.4410620000000  0.4928880000000  0.5334380000000 1.0
C      1  0.5480720000000  0.5060640000000  0.4511290000000 1.0
C      1  0.4534560000000  0.4675050000000  0.5243530000000 1.0
C      1  0.4871040000000  0.4553590000000  0.4944330000000 1.0
C      1  0.4666060000000  0.5294370000000  0.5562100000000 1.0
C      1  0.5207050000000  0.5545150000000  0.5158460000000 1.0
C      1  0.5074800000000  0.5132820000000  0.4376340000000 1.0
C      1  0.5460120000000  0.5004990000000  0.5450200000000 1.0
C      1  0.5057100000000  0.4809200000000  0.5039600000000 1.0
C      1  0.5291430000000  0.4494450000000  0.4472840000000 1.0
C      1  0.4643720000000  0.4658180000000  0.4468810000000 1.0
C      1  0.4312670000000  0.5141210000000  0.5166560000000 1.0
C      1  0.5516130000000  0.4953110000000  0.4800260000000 1.0
C      1  0.4523380000000  0.5495000000000  0.5444770000000 1.0
C      1  0.5082960000000  0.4366450000000  0.4931420000000 1.0
C      1  0.5597380000000  0.4604480000000  0.5190170000000 1.0
C      1  0.4888590000000  0.4742140000000  0.4409900000000 1.0
C      1  0.5256740000000  0.4510600000000  0.4741060000000 1.0
C      1  0.5405160000000  0.5273680000000  0.5406120000000 1.0
C      1  0.4995150000000  0.4950290000000  0.4605840000000 1.0
C      1  0.5453440000000  0.5329630000000  0.4631580000000 1.0
C      1  0.5252290000000  0.4856920000000  0.5578730000000 1.0
C      1  0.4277660000000  0.4852140000000  0.4766960000000 1.0
C      1  0.4747370000000  0.4611090000000  0.5443570000000 1.0
C      1  0.5013380000000  0.4993690000000  0.5644420000000 1.0
C      1  0.4560850000000  0.5025760000000  0.5555670000000 1.0
C      1  0.4431280000000  0.5417390000000  0.5198550000000 1.0
C      1  0.4396950000000  0.5326570000000  0.4749420000000 1.0
C      1  0.5478470000000  0.5413940000000  0.5160920000000 1.0
C      1  0.5076000000000  0.5592250000000  0.4905550000000 1.0
C      1  0.4484690000000  0.4679920000000  0.4706970000000 1.0
END
