TITL C-154599-4103-5 253.293424035369 125000 -653.471993873072 0 0 94 (C1) n - 1
REM
REM in /rds/project/t2_vol4/rds-t2-cs072/BORA/CARBON/from-Arr/AIRSS/Generating-Clusters/GAP-ML-2020/Only-C1/SD-CG/HFTN-CG
REM
REM
REM
REM
REM
REM ./C.cell (11c1c37f851c82e70ff6c80c92926a4b)
REM AIRSS Version 0.9.1 bugfix July 2018 build 013d7b7c2542+ Fri, 06 Jul 2018 19:26:36 +0100
REM compiler GCC version 9.3.0
REM options -cpp -mtune=generic -march=x86-64 -g -O0
REM seed 1916221273 1944631793 1930045242 -402496274 1076697016 663577376 -1830986845 550312200 -241445585 236031832 -370692975 2141941888 37502819 39435434 2043624650 -594274403 -306095021 592351206 -1597701637 -954326574 469244162 1748059482 265808162 1417947191 1660712618 -129398828 -1527995761 -1550942735 -1627889710 126306631 403114384 -325117242 849795206
REM
CELL 1.54180   50.00000   50.00000   50.00000   90.00000   90.00000   90.00000
LATT -1
SFAC C  
C      1  0.4696830000000  0.5279200000000  0.4812030000000 1.0
C      1  0.5768430000000  0.4815780000000  0.5137340000000 1.0
C      1  0.5485250000000  0.4649280000000  0.4808360000000 1.0
C      1  0.4862070000000  0.4972670000000  0.5812300000000 1.0
C      1  0.5258450000000  0.5314670000000  0.5482460000000 1.0
C      1  0.5039320000000  0.5554210000000  0.4606320000000 1.0
C      1  0.4840120000000  0.5014790000000  0.4174650000000 1.0
C      1  0.5616570000000  0.4595630000000  0.5045040000000 1.0
C      1  0.5576320000000  0.4681330000000  0.4546860000000 1.0
C      1  0.4557870000000  0.4760900000000  0.4510360000000 1.0
C      1  0.5285000000000  0.4256210000000  0.5175210000000 1.0
C      1  0.4988630000000  0.5256920000000  0.4200020000000 1.0
C      1  0.4596160000000  0.5029460000000  0.4341020000000 1.0
C      1  0.5155900000000  0.5093870000000  0.4693840000000 1.0
C      1  0.5481710000000  0.4961730000000  0.5791230000000 1.0
C      1  0.4230920000000  0.4750680000000  0.5312190000000 1.0
C      1  0.5032310000000  0.4727380000000  0.5746960000000 1.0
C      1  0.4582440000000  0.4933750000000  0.5738400000000 1.0
C      1  0.5368470000000  0.5443650000000  0.5058090000000 1.0
C      1  0.4641060000000  0.5604000000000  0.5471100000000 1.0
C      1  0.4690820000000  0.5678440000000  0.5195600000000 1.0
C      1  0.4666350000000  0.5015340000000  0.4926790000000 1.0
C      1  0.4959470000000  0.5735630000000  0.5066630000000 1.0
C      1  0.4530590000000  0.5372080000000  0.5573640000000 1.0
C      1  0.5714640000000  0.4796740000000  0.5428230000000 1.0
C      1  0.4866880000000  0.5433050000000  0.4385980000000 1.0
C      1  0.4626870000000  0.5301240000000  0.4504800000000 1.0
C      1  0.5276160000000  0.5243630000000  0.4202600000000 1.0
C      1  0.4410310000000  0.5119690000000  0.5595610000000 1.0
C      1  0.4270300000000  0.4830510000000  0.4562990000000 1.0
C      1  0.5388680000000  0.4106310000000  0.4952600000000 1.0
C      1  0.4976580000000  0.4759500000000  0.4151520000000 1.0
C      1  0.5207650000000  0.5862130000000  0.5174490000000 1.0
C      1  0.5294460000000  0.4970350000000  0.5119880000000 1.0
C      1  0.5325520000000  0.4728000000000  0.5710660000000 1.0
C      1  0.4678270000000  0.4978190000000  0.5192850000000 1.0
C      1  0.5114380000000  0.4843900000000  0.5273050000000 1.0
C      1  0.5403160000000  0.4992210000000  0.4270190000000 1.0
C      1  0.4225100000000  0.5031290000000  0.5385980000000 1.0
C      1  0.5834450000000  0.5434580000000  0.5313970000000 1.0
C      1  0.5004160000000  0.5315020000000  0.5345560000000 1.0
C      1  0.4154920000000  0.4819970000000  0.4826350000000 1.0
C      1  0.4638980000000  0.4505290000000  0.4376810000000 1.0
C      1  0.4983760000000  0.4684450000000  0.4768170000000 1.0
C      1  0.5414520000000  0.5175770000000  0.5948380000000 1.0
C      1  0.4991620000000  0.4260170000000  0.5206560000000 1.0
C      1  0.4424550000000  0.4413250000000  0.5043890000000 1.0
C      1  0.5505050000000  0.4607910000000  0.5501510000000 1.0
C      1  0.4823940000000  0.5404370000000  0.5582140000000 1.0
C      1  0.5246900000000  0.4319450000000  0.4544710000000 1.0
C      1  0.4085160000000  0.5084440000000  0.4910180000000 1.0
C      1  0.5404210000000  0.5459360000000  0.4307460000000 1.0
C      1  0.4883850000000  0.5753560000000  0.4766530000000 1.0
C      1  0.5400400000000  0.4129620000000  0.4698290000000 1.0
C      1  0.4707140000000  0.4336330000000  0.4591090000000 1.0
C      1  0.5595830000000  0.4963180000000  0.4483060000000 1.0
C      1  0.5069000000000  0.5447060000000  0.5071110000000 1.0
C      1  0.5530650000000  0.5415220000000  0.4782500000000 1.0
C      1  0.4536150000000  0.5546570000000  0.4979980000000 1.0
C      1  0.5232820000000  0.5274030000000  0.5765750000000 1.0
C      1  0.4986920000000  0.5320320000000  0.4814250000000 1.0
C      1  0.4992740000000  0.4385400000000  0.4694630000000 1.0
C      1  0.4313310000000  0.5315660000000  0.4523190000000 1.0
C      1  0.5693340000000  0.5019200000000  0.5597570000000 1.0
C      1  0.4532930000000  0.4396720000000  0.5309390000000 1.0
C      1  0.4572600000000  0.4664780000000  0.5666240000000 1.0
C      1  0.4155640000000  0.5199350000000  0.5166340000000 1.0
C      1  0.5785210000000  0.5533190000000  0.4920880000000 1.0
C      1  0.5220420000000  0.4853340000000  0.4841840000000 1.0
C      1  0.4291820000000  0.5058710000000  0.4400170000000 1.0
C      1  0.4833840000000  0.4547480000000  0.5632470000000 1.0
C      1  0.4806130000000  0.4365620000000  0.5400910000000 1.0
C      1  0.4393950000000  0.4582060000000  0.5470230000000 1.0
C      1  0.5373530000000  0.4544210000000  0.4396610000000 1.0
C      1  0.5665820000000  0.5256330000000  0.5443030000000 1.0
C      1  0.4918190000000  0.5029370000000  0.5289010000000 1.0
C      1  0.5905980000000  0.5311240000000  0.5051950000000 1.0
C      1  0.5653950000000  0.5131720000000  0.4715230000000 1.0
C      1  0.4879590000000  0.4248110000000  0.4948920000000 1.0
C      1  0.4608440000000  0.4288850000000  0.4854620000000 1.0
C      1  0.4617530000000  0.5717500000000  0.4753200000000 1.0
C      1  0.5801400000000  0.5054130000000  0.4957390000000 1.0
C      1  0.5427050000000  0.5228020000000  0.5257660000000 1.0
C      1  0.5260990000000  0.4744540000000  0.4225000000000 1.0
C      1  0.5475200000000  0.4452550000000  0.5262630000000 1.0
C      1  0.4819070000000  0.4535500000000  0.4176520000000 1.0
C      1  0.4728740000000  0.4793630000000  0.4764610000000 1.0
C      1  0.5353180000000  0.5533160000000  0.4558930000000 1.0
C      1  0.4176890000000  0.5323360000000  0.4765300000000 1.0
C      1  0.4949120000000  0.5242770000000  0.5794530000000 1.0
C      1  0.5716470000000  0.5673170000000  0.5169890000000 1.0
C      1  0.4258020000000  0.5438820000000  0.5016660000000 1.0
C      1  0.4234820000000  0.4642530000000  0.5039670000000 1.0
C      1  0.5439080000000  0.5724680000000  0.5168680000000 1.0
END
