TITL C-152490-6995-1 0.186986662493448 125000 -325.335218246736 0 0 48 (C1) n - 1
REM
REM in /rds/project/t2_vol4/rds-t2-cs072/BORA/CARBON/from-Arr/AIRSS/Generating-Clusters/GAP-ML-2020/Only-C1/SD-CG/HFTN-CG
REM
REM
REM
REM
REM
REM ./C.cell (11c1c37f851c82e70ff6c80c92926a4b)
REM AIRSS Version 0.9.1 bugfix July 2018 build 013d7b7c2542+ Fri, 06 Jul 2018 19:26:36 +0100
REM compiler GCC version 9.3.0
REM options -cpp -mtune=generic -march=x86-64 -g -O0
REM seed -1548751830 -59498772 1551093077 -772206599 -1665003146 1500208790 -1866943550 1070072034 -793635942 -413589637 272373915 800183430 -87597220 14205941 -204851692 -1352355878 1036083663 -2072796467 108873425 1874395572 994318985 -332679586 733630002 1495749232 -1926619796 1190527677 295169947 1830464462 1344039886 588114681 1950627534 -255941666 -1686006736
REM
CELL 1.54180   50.00000   50.00000   50.00000   90.00000   90.00000   90.00000
LATT -1
SFAC C  
C      1  0.5306200000000  0.4673120000000  0.4830570000000 1.0
C      1  0.5343020000000  0.5340130000000  0.4827750000000 1.0
C      1  0.5345730000000  0.4411460000000  0.4987910000000 1.0
C      1  0.5525870000000  0.4711420000000  0.5311100000000 1.0
C      1  0.4907270000000  0.5158540000000  0.4892330000000 1.0
C      1  0.4963880000000  0.4385010000000  0.4712460000000 1.0
C      1  0.4662800000000  0.4584350000000  0.5166360000000 1.0
C      1  0.5488790000000  0.4894430000000  0.4785710000000 1.0
C      1  0.5061760000000  0.4314590000000  0.4961690000000 1.0
C      1  0.4595860000000  0.5533150000000  0.4990310000000 1.0
C      1  0.5124900000000  0.4463880000000  0.5402740000000 1.0
C      1  0.4681100000000  0.5521260000000  0.4694140000000 1.0
C      1  0.4743510000000  0.5498560000000  0.5229880000000 1.0
C      1  0.5190620000000  0.5462330000000  0.4604700000000 1.0
C      1  0.5722440000000  0.4851890000000  0.5187980000000 1.0
C      1  0.5381670000000  0.5102640000000  0.4639560000000 1.0
C      1  0.4393740000000  0.5078470000000  0.5039770000000 1.0
C      1  0.4502140000000  0.5042120000000  0.5292770000000 1.0
C      1  0.5211730000000  0.5202180000000  0.4447060000000 1.0
C      1  0.5116530000000  0.5284120000000  0.5038420000000 1.0
C      1  0.5277410000000  0.5632710000000  0.5251940000000 1.0
C      1  0.4655750000000  0.5262780000000  0.5396480000000 1.0
C      1  0.5643280000000  0.5032110000000  0.4995610000000 1.0
C      1  0.5107640000000  0.4776180000000  0.5078780000000 1.0
C      1  0.4898400000000  0.4960360000000  0.5058690000000 1.0
C      1  0.4476970000000  0.5318810000000  0.4658910000000 1.0
C      1  0.4846100000000  0.5130590000000  0.5561550000000 1.0
C      1  0.5394230000000  0.4457390000000  0.5266240000000 1.0
C      1  0.5028530000000  0.5544060000000  0.5163880000000 1.0
C      1  0.4762040000000  0.4990830000000  0.4447180000000 1.0
C      1  0.4393740000000  0.5337840000000  0.4934650000000 1.0
C      1  0.5257870000000  0.5180110000000  0.5329780000000 1.0
C      1  0.4931430000000  0.5212330000000  0.4401440000000 1.0
C      1  0.4728100000000  0.4542740000000  0.4676110000000 1.0
C      1  0.5273380000000  0.4878450000000  0.5328670000000 1.0
C      1  0.4570480000000  0.4637710000000  0.4897200000000 1.0
C      1  0.4619680000000  0.4787760000000  0.5362090000000 1.0
C      1  0.4870260000000  0.4738610000000  0.4507570000000 1.0
C      1  0.4833730000000  0.4845910000000  0.5539820000000 1.0
C      1  0.5117910000000  0.4608030000000  0.4598740000000 1.0
C      1  0.4454980000000  0.4890130000000  0.4836280000000 1.0
C      1  0.5086330000000  0.5246240000000  0.5546070000000 1.0
C      1  0.5570490000000  0.5317950000000  0.5015510000000 1.0
C      1  0.4911050000000  0.5474590000000  0.4544640000000 1.0
C      1  0.4946070000000  0.4486210000000  0.5171570000000 1.0
C      1  0.5460980000000  0.5420420000000  0.5267710000000 1.0
C      1  0.5085750000000  0.4725930000000  0.5517800000000 1.0
C      1  0.4527880000000  0.5049520000000  0.4601880000000 1.0
END
