TITL C-154600-4083-8 0.00665812239004419 125000 -51.3110357121834 0 0 8 (D(inf)h) n - 1
REM
REM in /rds/project/t2_vol4/rds-t2-cs072/BORA/CARBON/from-Arr/AIRSS/Generating-Clusters/GAP-ML-2020/Only-C1/SD-CG/HFTN-CG
REM
REM
REM
REM
REM
REM ./C.cell (11c1c37f851c82e70ff6c80c92926a4b)
REM AIRSS Version 0.9.1 bugfix July 2018 build 013d7b7c2542+ Fri, 06 Jul 2018 19:26:36 +0100
REM compiler GCC version 9.3.0
REM options -cpp -mtune=generic -march=x86-64 -g -O0
REM seed 707683442 1724259676 1416690552 -764584262 -1335088133 1400672556 1437836329 1848068451 2015999997 1217429532 -105250993 874746024 -238851670 2067477438 1335884812 160617276 -2118253194 863729266 84176653 1041339085 -623154641 -356886305 -1912867953 912847622 1185145670 363170707 1835058494 -557008794 -184959617 1677769550 -578417936 2071254101 -843081121
REM
CELL 1.54180   50.00000   50.00000   50.00000   90.00000   90.00000   90.00000
LATT -1
SFAC C  
C      1  0.5327480000000  0.5014970000000  0.5194180000000 1.0
C      1  0.4888050000000  0.4994880000000  0.4933620000000 1.0
C      1  0.4672520000000  0.4985030000000  0.4805820000000 1.0
C      1  0.5551190000000  0.5025200000000  0.5326830000000 1.0
C      1  0.4448810000000  0.4974800000000  0.4673170000000 1.0
C      1  0.5111950000000  0.5005120000000  0.5066380000000 1.0
C      1  0.4229460000000  0.4964780000000  0.4543110000000 1.0
C      1  0.5770540000000  0.5035220000000  0.5456890000000 1.0
END
