TITL C-158510-1913-1 -0.225059118006246 125000 -440.857326454445 0 0 65 (C1) n - 1
REM
REM in /rds/project/t2_vol4/rds-t2-cs072/BORA/CARBON/from-Arr/AIRSS/Generating-Clusters/GAP-ML-2020/Only-C1/SD-CG/HFTN-CG
REM
REM
REM
REM
REM
REM ./C.cell (11c1c37f851c82e70ff6c80c92926a4b)
REM AIRSS Version 0.9.1 bugfix July 2018 build 013d7b7c2542+ Fri, 06 Jul 2018 19:26:36 +0100
REM compiler GCC version 9.3.0
REM options -cpp -mtune=generic -march=x86-64 -g -O0
REM seed -921566293 909163112 2139810601 -1301463815 820838509 -1043774870 -1450648323 434116473 -1283293832 1594024723 -387396700 -190486581 -1316177457 -838038016 1219215627 1395016456 884567589 -916409385 -1433592295 62162029 -973121541 270955835 -1202382523 852951896 -1308176959 531030713 -1726517876 -1256901811 -1721897555 1314839124 784527413 1736646145 -1071854396
REM
CELL 1.54180   50.00000   50.00000   50.00000   90.00000   90.00000   90.00000
LATT -1
SFAC C  
C      1  0.4481460000000  0.4973780000000  0.4570740000000 1.0
C      1  0.5378480000000  0.5055920000000  0.4441970000000 1.0
C      1  0.5118620000000  0.4354350000000  0.5224860000000 1.0
C      1  0.4994130000000  0.4993880000000  0.4691780000000 1.0
C      1  0.5695880000000  0.5007600000000  0.4802970000000 1.0
C      1  0.4491410000000  0.4695800000000  0.4493540000000 1.0
C      1  0.4616480000000  0.4471050000000  0.5399440000000 1.0
C      1  0.4575430000000  0.5508560000000  0.5126570000000 1.0
C      1  0.4511210000000  0.4745250000000  0.5471420000000 1.0
C      1  0.5669610000000  0.4984770000000  0.5282170000000 1.0
C      1  0.4355560000000  0.5088260000000  0.5113030000000 1.0
C      1  0.4828630000000  0.4688810000000  0.5099330000000 1.0
C      1  0.5109620000000  0.4296220000000  0.4944190000000 1.0
C      1  0.4497880000000  0.4342340000000  0.5181760000000 1.0
C      1  0.5157990000000  0.4989000000000  0.4257540000000 1.0
C      1  0.4900050000000  0.4522320000000  0.5352130000000 1.0
C      1  0.4682800000000  0.5123390000000  0.4417740000000 1.0
C      1  0.4903310000000  0.4917070000000  0.4396910000000 1.0
C      1  0.5588920000000  0.5266040000000  0.5307430000000 1.0
C      1  0.4960950000000  0.4534700000000  0.4862400000000 1.0
C      1  0.5470830000000  0.4898820000000  0.5468250000000 1.0
C      1  0.4379200000000  0.4837480000000  0.5241530000000 1.0
C      1  0.5318930000000  0.5248030000000  0.4902890000000 1.0
C      1  0.5111450000000  0.5168130000000  0.5635300000000 1.0
C      1  0.5582870000000  0.4894650000000  0.4554660000000 1.0
C      1  0.5061990000000  0.5471700000000  0.5159200000000 1.0
C      1  0.4539900000000  0.4736560000000  0.5009010000000 1.0
C      1  0.4568720000000  0.5757430000000  0.5249990000000 1.0
C      1  0.4511860000000  0.4475740000000  0.4683910000000 1.0
C      1  0.4797640000000  0.5119660000000  0.4899970000000 1.0
C      1  0.4427320000000  0.4466950000000  0.4950560000000 1.0
C      1  0.5421140000000  0.4664840000000  0.4992830000000 1.0
C      1  0.5080390000000  0.5658800000000  0.4608670000000 1.0
C      1  0.4570680000000  0.5231260000000  0.5528270000000 1.0
C      1  0.5476030000000  0.4477910000000  0.4753470000000 1.0
C      1  0.5579070000000  0.4613410000000  0.4541060000000 1.0
C      1  0.5327860000000  0.4667260000000  0.5475440000000 1.0
C      1  0.5344450000000  0.4518720000000  0.5237680000000 1.0
C      1  0.5003870000000  0.5606960000000  0.5428780000000 1.0
C      1  0.5326280000000  0.5153950000000  0.5430820000000 1.0
C      1  0.4818030000000  0.5553970000000  0.4686420000000 1.0
C      1  0.5170170000000  0.5174030000000  0.5159500000000 1.0
C      1  0.4695420000000  0.5458000000000  0.5647860000000 1.0
C      1  0.5129040000000  0.4784940000000  0.4877190000000 1.0
C      1  0.5052180000000  0.4682240000000  0.5552200000000 1.0
C      1  0.5318870000000  0.5563670000000  0.5005140000000 1.0
C      1  0.4514350000000  0.5007420000000  0.4861830000000 1.0
C      1  0.4981820000000  0.4960270000000  0.5074500000000 1.0
C      1  0.4771070000000  0.4660180000000  0.4402070000000 1.0
C      1  0.4980320000000  0.5413990000000  0.5649450000000 1.0
C      1  0.4794550000000  0.4480060000000  0.4622690000000 1.0
C      1  0.4667250000000  0.4959400000000  0.5574930000000 1.0
C      1  0.5641050000000  0.4854850000000  0.5035770000000 1.0
C      1  0.4790730000000  0.5373050000000  0.4464980000000 1.0
C      1  0.5326330000000  0.4250600000000  0.4789480000000 1.0
C      1  0.4947050000000  0.4928420000000  0.5638110000000 1.0
C      1  0.4814210000000  0.5426650000000  0.4959770000000 1.0
C      1  0.5226220000000  0.5246990000000  0.4232940000000 1.0
C      1  0.5266930000000  0.5733960000000  0.4792480000000 1.0
C      1  0.5593850000000  0.5440080000000  0.5090110000000 1.0
C      1  0.4725050000000  0.5676690000000  0.5446880000000 1.0
C      1  0.5201710000000  0.5187170000000  0.4652220000000 1.0
C      1  0.4446140000000  0.5294580000000  0.5271170000000 1.0
C      1  0.5089810000000  0.5395890000000  0.4449070000000 1.0
C      1  0.5618950000000  0.5265540000000  0.4873020000000 1.0
END
