TITL C-151861-9451-6 -5.68860121190226 125000 -495.828315235248 0 0 73 (C1) n - 1
REM
REM in /rds/project/t2_vol4/rds-t2-cs072/BORA/CARBON/from-Arr/AIRSS/Generating-Clusters/GAP-ML-2020/Only-C1/SD-CG/HFTN-CG
REM
REM
REM
REM
REM
REM ./C.cell (11c1c37f851c82e70ff6c80c92926a4b)
REM AIRSS Version 0.9.1 bugfix July 2018 build 013d7b7c2542+ Fri, 06 Jul 2018 19:26:36 +0100
REM compiler GCC version 9.3.0
REM options -cpp -mtune=generic -march=x86-64 -g -O0
REM seed -494081708 740619872 198950198 1781989074 1705961702 -1616369170 -1445013310 1364728375 737421756 -1453606054 694139032 1337534377 690769407 399316268 -1371288757 -670789671 1032387452 1183124250 -867538998 -544613468 -55157186 1157917948 -268339917 -690361357 1067049173 1719579675 -663769112 -1707882340 -179972680 750775029 -1651472686 -938795628 498554568
REM
CELL 1.54180   50.00000   50.00000   50.00000   90.00000   90.00000   90.00000
LATT -1
SFAC C  
C      1  0.5312790000000  0.4328420000000  0.4888350000000 1.0
C      1  0.4923880000000  0.4460530000000  0.4640420000000 1.0
C      1  0.4268860000000  0.4846740000000  0.5384620000000 1.0
C      1  0.4408930000000  0.5048620000000  0.5525710000000 1.0
C      1  0.5048240000000  0.5130370000000  0.4670310000000 1.0
C      1  0.5308710000000  0.4376890000000  0.5181010000000 1.0
C      1  0.5204130000000  0.4919790000000  0.5218620000000 1.0
C      1  0.5324110000000  0.5481160000000  0.4805220000000 1.0
C      1  0.4773620000000  0.5101790000000  0.5023950000000 1.0
C      1  0.4823350000000  0.5216270000000  0.4341270000000 1.0
C      1  0.4240890000000  0.4910840000000  0.5091600000000 1.0
C      1  0.5328960000000  0.4677570000000  0.4491910000000 1.0
C      1  0.4668460000000  0.5802040000000  0.5054900000000 1.0
C      1  0.5669390000000  0.4712600000000  0.5143110000000 1.0
C      1  0.4685630000000  0.4962750000000  0.4343820000000 1.0
C      1  0.4926320000000  0.4992630000000  0.5257620000000 1.0
C      1  0.4693000000000  0.4666830000000  0.5536290000000 1.0
C      1  0.5048750000000  0.4409830000000  0.5285470000000 1.0
C      1  0.5181870000000  0.5839060000000  0.5158640000000 1.0
C      1  0.4416050000000  0.4593520000000  0.5401530000000 1.0
C      1  0.5087050000000  0.4257600000000  0.4754860000000 1.0
C      1  0.4394410000000  0.5180590000000  0.4709500000000 1.0
C      1  0.4741310000000  0.4750730000000  0.5257810000000 1.0
C      1  0.4957550000000  0.4687020000000  0.4861460000000 1.0
C      1  0.4829690000000  0.5400080000000  0.5001100000000 1.0
C      1  0.4621160000000  0.4455950000000  0.4712340000000 1.0
C      1  0.4435060000000  0.4669590000000  0.4692820000000 1.0
C      1  0.5329220000000  0.4984180000000  0.5653710000000 1.0
C      1  0.5190650000000  0.5392020000000  0.5378900000000 1.0
C      1  0.4381920000000  0.4473680000000  0.5130460000000 1.0
C      1  0.5134840000000  0.5201440000000  0.5613160000000 1.0
C      1  0.5118630000000  0.5177290000000  0.4366810000000 1.0
C      1  0.5744610000000  0.4981580000000  0.5190820000000 1.0
C      1  0.5439150000000  0.5233200000000  0.4949690000000 1.0
C      1  0.4772090000000  0.5419040000000  0.4538280000000 1.0
C      1  0.5295900000000  0.5023850000000  0.4782290000000 1.0
C      1  0.4863070000000  0.5131940000000  0.5554220000000 1.0
C      1  0.4651210000000  0.4944220000000  0.5645340000000 1.0
C      1  0.5358900000000  0.5181690000000  0.5234320000000 1.0
C      1  0.4553850000000  0.4914570000000  0.5096180000000 1.0
C      1  0.5435180000000  0.4555190000000  0.4749880000000 1.0
C      1  0.5270370000000  0.5412890000000  0.4343140000000 1.0
C      1  0.4535970000000  0.5425190000000  0.4682860000000 1.0
C      1  0.5223690000000  0.4790620000000  0.4940000000000 1.0
C      1  0.5467420000000  0.4581310000000  0.5301290000000 1.0
C      1  0.5014600000000  0.4571350000000  0.5518190000000 1.0
C      1  0.4559320000000  0.5548900000000  0.4965980000000 1.0
C      1  0.5259650000000  0.4744780000000  0.5470690000000 1.0
C      1  0.4905700000000  0.5788720000000  0.5200250000000 1.0
C      1  0.4259570000000  0.5175420000000  0.4964530000000 1.0
C      1  0.4830840000000  0.4950140000000  0.4780690000000 1.0
C      1  0.5343440000000  0.5640530000000  0.5288180000000 1.0
C      1  0.5000190000000  0.5413240000000  0.4754990000000 1.0
C      1  0.5053690000000  0.4609550000000  0.4415810000000 1.0
C      1  0.5611020000000  0.5112310000000  0.5401890000000 1.0
C      1  0.4372810000000  0.5378550000000  0.5129370000000 1.0
C      1  0.4722190000000  0.5367840000000  0.5457450000000 1.0
C      1  0.5381960000000  0.4961770000000  0.4498540000000 1.0
C      1  0.5593280000000  0.5055220000000  0.5665730000000 1.0
C      1  0.4611230000000  0.4387770000000  0.4993170000000 1.0
C      1  0.4273170000000  0.4661680000000  0.4938470000000 1.0
C      1  0.5724410000000  0.5154310000000  0.4959430000000 1.0
C      1  0.5870640000000  0.4797960000000  0.4709520000000 1.0
C      1  0.4848490000000  0.4527530000000  0.5101720000000 1.0
C      1  0.5598470000000  0.5154930000000  0.4512100000000 1.0
C      1  0.4856750000000  0.4752570000000  0.4296990000000 1.0
C      1  0.4541850000000  0.4935940000000  0.4609270000000 1.0
C      1  0.4458000000000  0.5303070000000  0.5391540000000 1.0
C      1  0.5365070000000  0.5689940000000  0.5006290000000 1.0
C      1  0.5452150000000  0.5412140000000  0.4545030000000 1.0
C      1  0.4915870000000  0.5487340000000  0.5279620000000 1.0
C      1  0.5799350000000  0.5064510000000  0.4702390000000 1.0
C      1  0.5687500000000  0.4648310000000  0.4856560000000 1.0
END
