TITL C-152503-6979-3 -12.2912002908989 125000 -488.44183578379 0 0 71 (C1) n - 1
REM
REM in /rds/project/t2_vol4/rds-t2-cs072/BORA/CARBON/from-Arr/AIRSS/Generating-Clusters/GAP-ML-2020/Only-C1/SD-CG/HFTN-CG
REM
REM
REM
REM
REM
REM ./C.cell (11c1c37f851c82e70ff6c80c92926a4b)
REM AIRSS Version 0.9.1 bugfix July 2018 build 013d7b7c2542+ Fri, 06 Jul 2018 19:26:36 +0100
REM compiler GCC version 9.3.0
REM options -cpp -mtune=generic -march=x86-64 -g -O0
REM seed -358901507 -1436800436 1335303840 300240179 -227155125 -881795530 -1118546018 1981166451 -2133340337 -1985450685 -1967770459 -1987206379 1280318377 1044922255 -1149275613 1660483962 1987606090 -2136118364 1422158455 1222695806 436867129 1116785555 2007367686 -1609048780 2134741891 -757368342 -944291382 -1951985743 -15241601 1477172318 -1092699581 409807368 1657269193
REM
CELL 1.54180   50.00000   50.00000   50.00000   90.00000   90.00000   90.00000
LATT -1
SFAC C  
C      1  0.4699150000000  0.5415880000000  0.4370400000000 1.0
C      1  0.5375730000000  0.4897560000000  0.4462140000000 1.0
C      1  0.4369080000000  0.4987540000000  0.4867020000000 1.0
C      1  0.5729040000000  0.5013480000000  0.4797330000000 1.0
C      1  0.4296070000000  0.5204740000000  0.5077190000000 1.0
C      1  0.4692630000000  0.4935680000000  0.4454230000000 1.0
C      1  0.5642120000000  0.4842050000000  0.4580130000000 1.0
C      1  0.5135670000000  0.4320640000000  0.5172830000000 1.0
C      1  0.4759020000000  0.5500170000000  0.5324080000000 1.0
C      1  0.5471920000000  0.5638910000000  0.5085130000000 1.0
C      1  0.5044380000000  0.5144330000000  0.5165530000000 1.0
C      1  0.5326360000000  0.5638740000000  0.4681800000000 1.0
C      1  0.5663700000000  0.4984740000000  0.5292970000000 1.0
C      1  0.4815310000000  0.5169030000000  0.4296590000000 1.0
C      1  0.4784800000000  0.5030380000000  0.5190730000000 1.0
C      1  0.5176470000000  0.4733230000000  0.4929870000000 1.0
C      1  0.5399100000000  0.5337450000000  0.5441340000000 1.0
C      1  0.4364850000000  0.5706110000000  0.5090800000000 1.0
C      1  0.5632020000000  0.5265060000000  0.5294070000000 1.0
C      1  0.5336250000000  0.4545720000000  0.5137640000000 1.0
C      1  0.5719070000000  0.4853200000000  0.5047120000000 1.0
C      1  0.4655440000000  0.4388260000000  0.5724090000000 1.0
C      1  0.4846620000000  0.4675540000000  0.4346230000000 1.0
C      1  0.4842030000000  0.4768590000000  0.5293070000000 1.0
C      1  0.5012620000000  0.4728340000000  0.4131900000000 1.0
C      1  0.5214130000000  0.4905190000000  0.4200010000000 1.0
C      1  0.4430660000000  0.5043510000000  0.4561100000000 1.0
C      1  0.4932660000000  0.5436360000000  0.4844350000000 1.0
C      1  0.5003390000000  0.5451340000000  0.5149990000000 1.0
C      1  0.5102010000000  0.5153240000000  0.4274420000000 1.0
C      1  0.5652640000000  0.5287030000000  0.4804790000000 1.0
C      1  0.5469570000000  0.4885210000000  0.5477220000000 1.0
C      1  0.4888580000000  0.4672220000000  0.4821120000000 1.0
C      1  0.4742390000000  0.4350260000000  0.5471390000000 1.0
C      1  0.5270800000000  0.5534850000000  0.5266020000000 1.0
C      1  0.4558520000000  0.5675840000000  0.5261480000000 1.0
C      1  0.4323420000000  0.4741100000000  0.4986870000000 1.0
C      1  0.4387340000000  0.5144820000000  0.5346520000000 1.0
C      1  0.4396900000000  0.4672630000000  0.5241020000000 1.0
C      1  0.4649140000000  0.4522950000000  0.5244720000000 1.0
C      1  0.4658240000000  0.5072060000000  0.4930740000000 1.0
C      1  0.5059190000000  0.5154340000000  0.4749090000000 1.0
C      1  0.5595970000000  0.4602070000000  0.4987440000000 1.0
C      1  0.5192670000000  0.5022520000000  0.4968020000000 1.0
C      1  0.4957950000000  0.4250340000000  0.4949740000000 1.0
C      1  0.5296410000000  0.5097020000000  0.5584660000000 1.0
C      1  0.4762190000000  0.4462600000000  0.4987190000000 1.0
C      1  0.4994690000000  0.4259490000000  0.4677620000000 1.0
C      1  0.5450190000000  0.5385990000000  0.4627970000000 1.0
C      1  0.4392010000000  0.5452310000000  0.4978860000000 1.0
C      1  0.4825860000000  0.4945160000000  0.4726740000000 1.0
C      1  0.5440400000000  0.5800600000000  0.4870760000000 1.0
C      1  0.4862740000000  0.5645060000000  0.4422780000000 1.0
C      1  0.5274730000000  0.4660910000000  0.4635280000000 1.0
C      1  0.5552950000000  0.4597900000000  0.4703520000000 1.0
C      1  0.4588910000000  0.4872480000000  0.5666440000000 1.0
C      1  0.4520690000000  0.5314760000000  0.4564890000000 1.0
C      1  0.5017460000000  0.4719740000000  0.5740160000000 1.0
C      1  0.5028650000000  0.5634940000000  0.4633880000000 1.0
C      1  0.4664300000000  0.5244100000000  0.5422940000000 1.0
C      1  0.5166470000000  0.4533190000000  0.5585730000000 1.0
C      1  0.4635890000000  0.5357800000000  0.4835160000000 1.0
C      1  0.5042050000000  0.5002980000000  0.5694220000000 1.0
C      1  0.4990010000000  0.4524770000000  0.4566430000000 1.0
C      1  0.5262450000000  0.5179030000000  0.4521990000000 1.0
C      1  0.5367620000000  0.4634160000000  0.5422570000000 1.0
C      1  0.4736960000000  0.4646290000000  0.5747810000000 1.0
C      1  0.4399870000000  0.4879330000000  0.5444670000000 1.0
C      1  0.5656360000000  0.5417120000000  0.5056450000000 1.0
C      1  0.4764950000000  0.5096340000000  0.5659210000000 1.0
C      1  0.5029590000000  0.4332730000000  0.5431760000000 1.0
END
