TITL C-158512-1812-7 0.0432154539111969 125000 -588.429492612676 0 0 85 (C1) n - 1
REM
REM in /rds/project/t2_vol4/rds-t2-cs072/BORA/CARBON/from-Arr/AIRSS/Generating-Clusters/GAP-ML-2020/Only-C1/SD-CG/HFTN-CG
REM
REM
REM
REM
REM
REM ./C.cell (11c1c37f851c82e70ff6c80c92926a4b)
REM AIRSS Version 0.9.1 bugfix July 2018 build 013d7b7c2542+ Fri, 06 Jul 2018 19:26:36 +0100
REM compiler GCC version 9.3.0
REM options -cpp -mtune=generic -march=x86-64 -g -O0
REM seed 736095193 -68511500 988968257 743239196 -756007816 -1901983707 -1845757129 -1793814775 -503388550 -671835105 301465647 -1294228997 1961010979 1047190719 327254647 282056950 -260737451 -24506964 1603188173 1954666634 1351834192 1647383747 2097236606 -998005781 1918374116 -1698207289 -1609626054 974930274 -317395802 430211098 387527683 -901148590 -1951146771
REM
CELL 1.54180   50.00000   50.00000   50.00000   90.00000   90.00000   90.00000
LATT -1
SFAC C  
C      1  0.4867040000000  0.5141600000000  0.4248190000000 1.0
C      1  0.4614810000000  0.4334680000000  0.5269900000000 1.0
C      1  0.5368760000000  0.4709920000000  0.5304260000000 1.0
C      1  0.5099450000000  0.4901810000000  0.4840420000000 1.0
C      1  0.4898500000000  0.5708720000000  0.5233700000000 1.0
C      1  0.4571760000000  0.5057380000000  0.5691160000000 1.0
C      1  0.5706110000000  0.4712720000000  0.4812470000000 1.0
C      1  0.5019900000000  0.5259780000000  0.5791270000000 1.0
C      1  0.5026040000000  0.5330810000000  0.4763430000000 1.0
C      1  0.5114490000000  0.4171530000000  0.5072380000000 1.0
C      1  0.5365430000000  0.5029650000000  0.4885900000000 1.0
C      1  0.5776510000000  0.5395450000000  0.5244830000000 1.0
C      1  0.4875880000000  0.5093260000000  0.4834040000000 1.0
C      1  0.4942680000000  0.4866560000000  0.4266590000000 1.0
C      1  0.5138790000000  0.5005800000000  0.5823150000000 1.0
C      1  0.5419340000000  0.4982920000000  0.5729030000000 1.0
C      1  0.5587820000000  0.4963660000000  0.4676080000000 1.0
C      1  0.4623930000000  0.4582550000000  0.5405990000000 1.0
C      1  0.4344170000000  0.5369540000000  0.4862260000000 1.0
C      1  0.4501080000000  0.5506500000000  0.5365960000000 1.0
C      1  0.5769330000000  0.5214760000000  0.4731960000000 1.0
C      1  0.4937400000000  0.5616230000000  0.5506260000000 1.0
C      1  0.4868620000000  0.4273700000000  0.4693710000000 1.0
C      1  0.4627210000000  0.5638110000000  0.5140270000000 1.0
C      1  0.5823880000000  0.5237720000000  0.5004160000000 1.0
C      1  0.5344120000000  0.4216590000000  0.5212150000000 1.0
C      1  0.5430250000000  0.5451750000000  0.5574800000000 1.0
C      1  0.4541780000000  0.5461120000000  0.4393880000000 1.0
C      1  0.4892120000000  0.4655970000000  0.5492490000000 1.0
C      1  0.4473440000000  0.4716980000000  0.4413010000000 1.0
C      1  0.5228730000000  0.5821500000000  0.4845020000000 1.0
C      1  0.5530990000000  0.5529630000000  0.5309040000000 1.0
C      1  0.5151530000000  0.5478040000000  0.5647780000000 1.0
C      1  0.5138150000000  0.4206090000000  0.4786290000000 1.0
C      1  0.4587580000000  0.5205970000000  0.4297490000000 1.0
C      1  0.4206710000000  0.4739020000000  0.5095330000000 1.0
C      1  0.5011550000000  0.5037820000000  0.5271450000000 1.0
C      1  0.4187980000000  0.4989340000000  0.4952640000000 1.0
C      1  0.4226050000000  0.5240120000000  0.5093070000000 1.0
C      1  0.4688450000000  0.5500810000000  0.5579010000000 1.0
C      1  0.5215140000000  0.4792250000000  0.4345990000000 1.0
C      1  0.4287800000000  0.4516450000000  0.4912600000000 1.0
C      1  0.5330680000000  0.4385650000000  0.4672130000000 1.0
C      1  0.5409850000000  0.4990250000000  0.4424800000000 1.0
C      1  0.4607560000000  0.4836620000000  0.5112850000000 1.0
C      1  0.5067930000000  0.4742710000000  0.5704080000000 1.0
C      1  0.4974620000000  0.5532000000000  0.4554550000000 1.0
C      1  0.4326560000000  0.5275620000000  0.5348450000000 1.0
C      1  0.4402980000000  0.4780970000000  0.5329010000000 1.0
C      1  0.5766580000000  0.4991580000000  0.5174730000000 1.0
C      1  0.5353460000000  0.4738250000000  0.5601400000000 1.0
C      1  0.5227590000000  0.5694660000000  0.4610540000000 1.0
C      1  0.5429400000000  0.5463720000000  0.4578790000000 1.0
C      1  0.4836150000000  0.4542140000000  0.4831410000000 1.0
C      1  0.5189900000000  0.4527050000000  0.4458660000000 1.0
C      1  0.5323130000000  0.5258560000000  0.4392460000000 1.0
C      1  0.4344710000000  0.5102480000000  0.4724040000000 1.0
C      1  0.4631050000000  0.4977470000000  0.4715160000000 1.0
C      1  0.4392420000000  0.5028590000000  0.5490100000000 1.0
C      1  0.5068140000000  0.4726660000000  0.5255210000000 1.0
C      1  0.4908680000000  0.4459070000000  0.4466930000000 1.0
C      1  0.5467360000000  0.4455330000000  0.5153520000000 1.0
C      1  0.4445770000000  0.4308240000000  0.5025520000000 1.0
C      1  0.5048730000000  0.4657950000000  0.4967480000000 1.0
C      1  0.5256640000000  0.5179360000000  0.5249640000000 1.0
C      1  0.5706270000000  0.5442510000000  0.4593390000000 1.0
C      1  0.4785230000000  0.5074240000000  0.5116480000000 1.0
C      1  0.5529260000000  0.4495260000000  0.4860320000000 1.0
C      1  0.5141780000000  0.5709350000000  0.5080840000000 1.0
C      1  0.4674380000000  0.4180880000000  0.4893470000000 1.0
C      1  0.4677950000000  0.5582050000000  0.4597250000000 1.0
C      1  0.5455530000000  0.4970100000000  0.5159540000000 1.0
C      1  0.5866330000000  0.4770190000000  0.5032540000000 1.0
C      1  0.4449260000000  0.5002470000000  0.4447470000000 1.0
C      1  0.5773080000000  0.5160790000000  0.5423050000000 1.0
C      1  0.4749950000000  0.4658190000000  0.4337410000000 1.0
C      1  0.4394530000000  0.4594380000000  0.4663170000000 1.0
C      1  0.4539200000000  0.5573210000000  0.4867530000000 1.0
C      1  0.4831080000000  0.4174690000000  0.5143080000000 1.0
C      1  0.5054580000000  0.5327090000000  0.4352940000000 1.0
C      1  0.4735710000000  0.5270090000000  0.5738110000000 1.0
C      1  0.5304890000000  0.5323200000000  0.4851510000000 1.0
C      1  0.5309400000000  0.5461690000000  0.5117660000000 1.0
C      1  0.5570840000000  0.5196290000000  0.5624890000000 1.0
C      1  0.4609550000000  0.4713550000000  0.4838450000000 1.0
END
