TITL C-154609-4236-3 0.127846904823677 125000 -694.836251380042 0 0 101 (C1) n - 1
REM
REM in /rds/project/t2_vol4/rds-t2-cs072/BORA/CARBON/from-Arr/AIRSS/Generating-Clusters/GAP-ML-2020/Only-C1/SD-CG/HFTN-CG
REM
REM
REM
REM
REM
REM ./C.cell (11c1c37f851c82e70ff6c80c92926a4b)
REM AIRSS Version 0.9.1 bugfix July 2018 build 013d7b7c2542+ Fri, 06 Jul 2018 19:26:36 +0100
REM compiler GCC version 9.3.0
REM options -cpp -mtune=generic -march=x86-64 -g -O0
REM seed -1647467289 -1412437334 -2039735803 1235967172 1379486258 1911409163 42170795 1441288749 -1205517811 -1581799516 1252007852 -586406501 1614787773 -862883351 1763320942 -1841391693 -2107991527 -1155919741 653687716 772585015 1855428679 -160623676 -168398681 -962848977 -910662192 666516006 36099462 -870737980 -1799738011 -1618773266 1700658243 570973150 -2085732165
REM
CELL 1.54180   50.00000   50.00000   50.00000   90.00000   90.00000   90.00000
LATT -1
SFAC C  
C      1  0.5677620000000  0.5288110000000  0.4965540000000 1.0
C      1  0.4157190000000  0.4654790000000  0.4584100000000 1.0
C      1  0.4370630000000  0.5423110000000  0.5178430000000 1.0
C      1  0.4785020000000  0.4791260000000  0.5241970000000 1.0
C      1  0.5182880000000  0.5816950000000  0.4792640000000 1.0
C      1  0.5891210000000  0.4988190000000  0.4605120000000 1.0
C      1  0.5621630000000  0.5331680000000  0.5240680000000 1.0
C      1  0.5708590000000  0.4845510000000  0.5488550000000 1.0
C      1  0.4966910000000  0.4174080000000  0.5155190000000 1.0
C      1  0.5315060000000  0.5467380000000  0.5603000000000 1.0
C      1  0.5470110000000  0.5137790000000  0.4802210000000 1.0
C      1  0.4373720000000  0.4597340000000  0.5226530000000 1.0
C      1  0.4772170000000  0.4740810000000  0.4407280000000 1.0
C      1  0.5327360000000  0.4576900000000  0.5665890000000 1.0
C      1  0.4474450000000  0.5427410000000  0.4492400000000 1.0
C      1  0.5154420000000  0.4076700000000  0.4985280000000 1.0
C      1  0.5063380000000  0.5604680000000  0.5234530000000 1.0
C      1  0.4515820000000  0.4333280000000  0.5259200000000 1.0
C      1  0.5049790000000  0.4369640000000  0.5370850000000 1.0
C      1  0.5042430000000  0.4671940000000  0.5203190000000 1.0
C      1  0.4976490000000  0.4578570000000  0.4240740000000 1.0
C      1  0.4257930000000  0.5368720000000  0.4659840000000 1.0
C      1  0.5328270000000  0.5434290000000  0.5301210000000 1.0
C      1  0.5388790000000  0.5154630000000  0.4215630000000 1.0
C      1  0.4925100000000  0.5173710000000  0.5830270000000 1.0
C      1  0.5133450000000  0.4971890000000  0.5860910000000 1.0
C      1  0.5251630000000  0.5276160000000  0.4673040000000 1.0
C      1  0.5673980000000  0.4504550000000  0.4686930000000 1.0
C      1  0.5692460000000  0.5140190000000  0.5465680000000 1.0
C      1  0.5258220000000  0.4874690000000  0.5244360000000 1.0
C      1  0.4886480000000  0.5606670000000  0.4416130000000 1.0
C      1  0.5738470000000  0.5717140000000  0.4759890000000 1.0
C      1  0.5123760000000  0.5705350000000  0.4525270000000 1.0
C      1  0.5688450000000  0.4669630000000  0.5265490000000 1.0
C      1  0.4647310000000  0.5113070000000  0.5764150000000 1.0
C      1  0.4655070000000  0.5633800000000  0.4573730000000 1.0
C      1  0.5152550000000  0.4770730000000  0.4747920000000 1.0
C      1  0.4126170000000  0.4662600000000  0.5072330000000 1.0
C      1  0.5495390000000  0.4799800000000  0.5109560000000 1.0
C      1  0.5527780000000  0.4775200000000  0.5694760000000 1.0
C      1  0.5802150000000  0.5260570000000  0.4530000000000 1.0
C      1  0.4612880000000  0.5225400000000  0.4332800000000 1.0
C      1  0.4996790000000  0.4370940000000  0.4438240000000 1.0
C      1  0.5184890000000  0.5157050000000  0.5210250000000 1.0
C      1  0.4878330000000  0.5041650000000  0.4782130000000 1.0
C      1  0.5804420000000  0.5445340000000  0.4767480000000 1.0
C      1  0.4216750000000  0.5006610000000  0.5395090000000 1.0
C      1  0.4996620000000  0.5156760000000  0.5422490000000 1.0
C      1  0.5076000000000  0.4702460000000  0.5784450000000 1.0
C      1  0.5414240000000  0.4875190000000  0.4123570000000 1.0
C      1  0.4373000000000  0.4787890000000  0.5484900000000 1.0
C      1  0.4757580000000  0.5064280000000  0.5317260000000 1.0
C      1  0.4537770000000  0.5666270000000  0.5258110000000 1.0
C      1  0.5540700000000  0.4430870000000  0.5219920000000 1.0
C      1  0.4638720000000  0.5572140000000  0.5504830000000 1.0
C      1  0.4755550000000  0.4475450000000  0.4572710000000 1.0
C      1  0.5841230000000  0.4743540000000  0.4669310000000 1.0
C      1  0.4916710000000  0.5586830000000  0.5496710000000 1.0
C      1  0.5495360000000  0.4443610000000  0.4459670000000 1.0
C      1  0.4824400000000  0.4390490000000  0.5579240000000 1.0
C      1  0.5118390000000  0.5254280000000  0.4179310000000 1.0
C      1  0.5208440000000  0.4678210000000  0.4126040000000 1.0
C      1  0.5264710000000  0.4290620000000  0.4538140000000 1.0
C      1  0.5401110000000  0.4870360000000  0.4850480000000 1.0
C      1  0.4640410000000  0.5229470000000  0.5100610000000 1.0
C      1  0.4578920000000  0.4829530000000  0.5692440000000 1.0
C      1  0.4281530000000  0.4894960000000  0.4488990000000 1.0
C      1  0.5462160000000  0.4613940000000  0.4229160000000 1.0
C      1  0.4304700000000  0.5271940000000  0.5433230000000 1.0
C      1  0.5327950000000  0.4195880000000  0.4810630000000 1.0
C      1  0.4875200000000  0.5353750000000  0.4274950000000 1.0
C      1  0.4807350000000  0.4637930000000  0.5722480000000 1.0
C      1  0.4191450000000  0.5387880000000  0.4949560000000 1.0
C      1  0.5138050000000  0.5132450000000  0.4437990000000 1.0
C      1  0.4598130000000  0.4724750000000  0.5024400000000 1.0
C      1  0.5366130000000  0.5524900000000  0.4536570000000 1.0
C      1  0.5037740000000  0.5382030000000  0.5650780000000 1.0
C      1  0.5018490000000  0.5827870000000  0.5041390000000 1.0
C      1  0.5033010000000  0.4589040000000  0.4920280000000 1.0
C      1  0.4706180000000  0.5662080000000  0.4850650000000 1.0
C      1  0.5549600000000  0.4355010000000  0.4923290000000 1.0
C      1  0.4622790000000  0.4998440000000  0.4906660000000 1.0
C      1  0.5334960000000  0.4393620000000  0.5443460000000 1.0
C      1  0.4703110000000  0.5831790000000  0.5070650000000 1.0
C      1  0.4707960000000  0.4267190000000  0.5061310000000 1.0
C      1  0.5529270000000  0.5504720000000  0.5765440000000 1.0
C      1  0.5415100000000  0.5004160000000  0.5816450000000 1.0
C      1  0.4989850000000  0.4906120000000  0.4554610000000 1.0
C      1  0.4068210000000  0.4581400000000  0.4812410000000 1.0
C      1  0.5052290000000  0.5237370000000  0.4902870000000 1.0
C      1  0.5564110000000  0.5232390000000  0.5711060000000 1.0
C      1  0.4588140000000  0.4271920000000  0.5515960000000 1.0
C      1  0.4157660000000  0.5102540000000  0.4648000000000 1.0
C      1  0.4745730000000  0.4492820000000  0.4867780000000 1.0
C      1  0.4858350000000  0.5426170000000  0.5011070000000 1.0
C      1  0.4509430000000  0.5330370000000  0.5618550000000 1.0
C      1  0.5462770000000  0.5716170000000  0.4747220000000 1.0
C      1  0.4087500000000  0.4940910000000  0.5143510000000 1.0
C      1  0.4070410000000  0.5125520000000  0.4934800000000 1.0
C      1  0.5569250000000  0.5336380000000  0.4370820000000 1.0
C      1  0.4541180000000  0.4940830000000  0.4356420000000 1.0
END
