TITL C-150991-9219-5 -0.200303198874434 125000 -496.110243525574 0 0 71 (C1) n - 1
REM
REM in /rds/project/t2_vol4/rds-t2-cs072/BORA/CARBON/from-Arr/AIRSS/Generating-Clusters/GAP-ML-2020/Only-C1/SD-CG/HFTN-CG
REM
REM
REM
REM
REM
REM ./C.cell (11c1c37f851c82e70ff6c80c92926a4b)
REM AIRSS Version 0.9.1 bugfix July 2018 build 013d7b7c2542+ Fri, 06 Jul 2018 19:26:36 +0100
REM compiler GCC version 9.3.0
REM options -cpp -mtune=generic -march=x86-64 -g -O0
REM seed 1639611776 527040730 1759887517 -1459985477 -23790747 765838871 -1397989343 237480504 -1785922825 490982852 30953936 -1464121725 -1840782198 292273310 1742624116 -959446491 -1844949337 1785265923 1611390144 277827079 213506532 1374244021 595128526 -357743717 -135289598 816893543 54684761 765331346 1382350657 -2072699362 1888879140 -1200898195 809802940
REM
CELL 1.54180   50.00000   50.00000   50.00000   90.00000   90.00000   90.00000
LATT -1
SFAC C  
C      1  0.4588590000000  0.5605960000000  0.5287780000000 1.0
C      1  0.5507840000000  0.4841260000000  0.5313430000000 1.0
C      1  0.4871850000000  0.5116130000000  0.5251800000000 1.0
C      1  0.5310580000000  0.4333590000000  0.5205060000000 1.0
C      1  0.5247320000000  0.5152500000000  0.4987310000000 1.0
C      1  0.5699520000000  0.5241720000000  0.5195040000000 1.0
C      1  0.4636920000000  0.5447460000000  0.4360290000000 1.0
C      1  0.4994040000000  0.4873640000000  0.5251620000000 1.0
C      1  0.5397500000000  0.4377630000000  0.4956180000000 1.0
C      1  0.4554300000000  0.4193220000000  0.4661850000000 1.0
C      1  0.5224060000000  0.4446700000000  0.5437440000000 1.0
C      1  0.4941580000000  0.4432140000000  0.5504760000000 1.0
C      1  0.5148310000000  0.4907600000000  0.4259890000000 1.0
C      1  0.4918200000000  0.4853120000000  0.4794330000000 1.0
C      1  0.4447040000000  0.5217020000000  0.5484710000000 1.0
C      1  0.5673220000000  0.5402320000000  0.5402240000000 1.0
C      1  0.5317870000000  0.4517410000000  0.4504380000000 1.0
C      1  0.4813450000000  0.5099870000000  0.5738550000000 1.0
C      1  0.4366490000000  0.5204330000000  0.5210690000000 1.0
C      1  0.5758280000000  0.5049730000000  0.4984970000000 1.0
C      1  0.5325660000000  0.5299020000000  0.4464240000000 1.0
C      1  0.4673230000000  0.4152750000000  0.5145290000000 1.0
C      1  0.4532050000000  0.4881230000000  0.4580390000000 1.0
C      1  0.5587900000000  0.4588650000000  0.4889190000000 1.0
C      1  0.4729150000000  0.4367000000000  0.5306990000000 1.0
C      1  0.4431440000000  0.5457360000000  0.5083030000000 1.0
C      1  0.5539180000000  0.4665480000000  0.4614290000000 1.0
C      1  0.5345420000000  0.5127700000000  0.5711910000000 1.0
C      1  0.5567150000000  0.4936300000000  0.4547000000000 1.0
C      1  0.4616280000000  0.5446990000000  0.5520240000000 1.0
C      1  0.5372290000000  0.5041700000000  0.4368160000000 1.0
C      1  0.4821420000000  0.5126910000000  0.4802260000000 1.0
C      1  0.4955670000000  0.5259780000000  0.5019350000000 1.0
C      1  0.5662830000000  0.4788870000000  0.5077630000000 1.0
C      1  0.4977910000000  0.4277600000000  0.4703410000000 1.0
C      1  0.5119330000000  0.5488550000000  0.5517700000000 1.0
C      1  0.4973920000000  0.4861940000000  0.5767000000000 1.0
C      1  0.5107330000000  0.5452420000000  0.4384270000000 1.0
C      1  0.4745040000000  0.4433470000000  0.4623900000000 1.0
C      1  0.5125150000000  0.4854590000000  0.4985720000000 1.0
C      1  0.4652090000000  0.4684800000000  0.4790210000000 1.0
C      1  0.4397640000000  0.4991900000000  0.5022280000000 1.0
C      1  0.5117690000000  0.4631460000000  0.4334530000000 1.0
C      1  0.5641290000000  0.5132060000000  0.4746470000000 1.0
C      1  0.4870280000000  0.5373750000000  0.5640190000000 1.0
C      1  0.5288410000000  0.5610820000000  0.4800940000000 1.0
C      1  0.4832590000000  0.4641100000000  0.5663280000000 1.0
C      1  0.4609270000000  0.5572110000000  0.4605320000000 1.0
C      1  0.5374590000000  0.5320990000000  0.5505820000000 1.0
C      1  0.4839890000000  0.5741140000000  0.4685790000000 1.0
C      1  0.4865750000000  0.5320460000000  0.4281540000000 1.0
C      1  0.5237860000000  0.4332270000000  0.4709320000000 1.0
C      1  0.4549260000000  0.4600070000000  0.5295720000000 1.0
C      1  0.4582880000000  0.4735120000000  0.5549820000000 1.0
C      1  0.5170800000000  0.5727850000000  0.5034540000000 1.0
C      1  0.4838150000000  0.4592260000000  0.4382530000000 1.0
C      1  0.4497050000000  0.5112340000000  0.4770520000000 1.0
C      1  0.5406060000000  0.5329960000000  0.4751060000000 1.0
C      1  0.4898780000000  0.5800060000000  0.4954690000000 1.0
C      1  0.4468220000000  0.5415840000000  0.4803270000000 1.0
C      1  0.5254080000000  0.4872550000000  0.5709690000000 1.0
C      1  0.5417100000000  0.5132250000000  0.5249250000000 1.0
C      1  0.5364120000000  0.4693450000000  0.5508550000000 1.0
C      1  0.5095840000000  0.5654000000000  0.4586510000000 1.0
C      1  0.5078580000000  0.5683820000000  0.5316460000000 1.0
C      1  0.4810060000000  0.5759580000000  0.5222630000000 1.0
C      1  0.4489460000000  0.4721470000000  0.5044170000000 1.0
C      1  0.4577660000000  0.4109740000000  0.4908800000000 1.0
C      1  0.4698890000000  0.4843930000000  0.4352270000000 1.0
C      1  0.4562530000000  0.5006350000000  0.5626130000000 1.0
C      1  0.4887840000000  0.5034810000000  0.4243390000000 1.0
END
