TITL C-151861-9451-3 4.1570531409567 125000 -304.034709187022 0 0 46 (C1) n - 1
REM
REM in /rds/project/t2_vol4/rds-t2-cs072/BORA/CARBON/from-Arr/AIRSS/Generating-Clusters/GAP-ML-2020/Only-C1/SD-CG/HFTN-CG
REM
REM
REM
REM
REM
REM ./C.cell (11c1c37f851c82e70ff6c80c92926a4b)
REM AIRSS Version 0.9.1 bugfix July 2018 build 013d7b7c2542+ Fri, 06 Jul 2018 19:26:36 +0100
REM compiler GCC version 9.3.0
REM options -cpp -mtune=generic -march=x86-64 -g -O0
REM seed -944972540 -2072460363 1745952016 175021803 -694095024 -1498473714 -1694632188 449503568 12125986 1728477423 1333298950 1146269088 1399240423 -851273485 1369116411 233658642 547956441 -107542301 -1259219313 1201316172 -57650832 -565426827 -632572914 48588113 1946023058 419399586 1747822417 2002829118 149876832 -1714330097 -864876398 1021845528 -269616579
REM
CELL 1.54180   50.00000   50.00000   50.00000   90.00000   90.00000   90.00000
LATT -1
SFAC C  
C      1  0.5341110000000  0.5005930000000  0.5192550000000 1.0
C      1  0.4630440000000  0.4663500000000  0.5514670000000 1.0
C      1  0.4981230000000  0.5671960000000  0.5096470000000 1.0
C      1  0.4815900000000  0.5345180000000  0.4473360000000 1.0
C      1  0.5571450000000  0.5032110000000  0.5016440000000 1.0
C      1  0.4626330000000  0.4994440000000  0.5162820000000 1.0
C      1  0.4829650000000  0.4787670000000  0.5685290000000 1.0
C      1  0.5319800000000  0.4608710000000  0.4600280000000 1.0
C      1  0.4882290000000  0.4345380000000  0.5111150000000 1.0
C      1  0.4549960000000  0.4974180000000  0.4617430000000 1.0
C      1  0.5023450000000  0.4910920000000  0.5483670000000 1.0
C      1  0.5008530000000  0.5033280000000  0.4801040000000 1.0
C      1  0.5211940000000  0.4799110000000  0.4410020000000 1.0
C      1  0.4791850000000  0.5527350000000  0.5263880000000 1.0
C      1  0.4721630000000  0.5287040000000  0.5105390000000 1.0
C      1  0.4748100000000  0.4882060000000  0.4427350000000 1.0
C      1  0.5685210000000  0.4817500000000  0.4897300000000 1.0
C      1  0.5273660000000  0.5334660000000  0.4504180000000 1.0
C      1  0.5402770000000  0.4497480000000  0.5061060000000 1.0
C      1  0.4940000000000  0.4677110000000  0.4444150000000 1.0
C      1  0.4897450000000  0.5116020000000  0.4334830000000 1.0
C      1  0.5248210000000  0.5291850000000  0.5119000000000 1.0
C      1  0.5498840000000  0.4616580000000  0.4830630000000 1.0
C      1  0.5160670000000  0.5522730000000  0.5283420000000 1.0
C      1  0.4971430000000  0.5432160000000  0.5476550000000 1.0
C      1  0.4743410000000  0.5073970000000  0.5751430000000 1.0
C      1  0.5037330000000  0.5497160000000  0.4577760000000 1.0
C      1  0.4489360000000  0.4996130000000  0.4893770000000 1.0
C      1  0.5280580000000  0.4559930000000  0.5292220000000 1.0
C      1  0.5099340000000  0.4859600000000  0.5000010000000 1.0
C      1  0.4534720000000  0.5300100000000  0.4879730000000 1.0
C      1  0.4998750000000  0.5549500000000  0.4847550000000 1.0
C      1  0.5289390000000  0.4822870000000  0.5402570000000 1.0
C      1  0.5042320000000  0.4417910000000  0.5334130000000 1.0
C      1  0.5181640000000  0.5084970000000  0.4356110000000 1.0
C      1  0.5042410000000  0.4489540000000  0.4644900000000 1.0
C      1  0.4584560000000  0.5277160000000  0.4609500000000 1.0
C      1  0.4878510000000  0.4836360000000  0.5202580000000 1.0
C      1  0.4947260000000  0.4351020000000  0.4854560000000 1.0
C      1  0.4490520000000  0.4912100000000  0.5411300000000 1.0
C      1  0.5481300000000  0.5296090000000  0.4920200000000 1.0
C      1  0.4991140000000  0.5261340000000  0.4965410000000 1.0
C      1  0.4962920000000  0.5183380000000  0.5593900000000 1.0
C      1  0.4509590000000  0.5114680000000  0.5601160000000 1.0
C      1  0.4788920000000  0.4564690000000  0.5286050000000 1.0
C      1  0.5494120000000  0.5376630000000  0.4662220000000 1.0
END
