TITL C-154598-4134-4 -0.0315339926687133 125000 -623.087321536873 0 0 90 (C1) n - 1
REM
REM in /rds/project/t2_vol4/rds-t2-cs072/BORA/CARBON/from-Arr/AIRSS/Generating-Clusters/GAP-ML-2020/Only-C1/SD-CG/HFTN-CG
REM
REM
REM
REM
REM
REM ./C.cell (11c1c37f851c82e70ff6c80c92926a4b)
REM AIRSS Version 0.9.1 bugfix July 2018 build 013d7b7c2542+ Fri, 06 Jul 2018 19:26:36 +0100
REM compiler GCC version 9.3.0
REM options -cpp -mtune=generic -march=x86-64 -g -O0
REM seed 1655587474 -665120114 2007936088 30710742 -658264765 1467340323 -1042924937 -1492662500 -1914823390 -1861689899 1732370704 39040278 175840951 1251787856 866246612 1503422664 -396687736 1987703651 -73134119 -1155959791 -1685373328 -862331395 -1365283306 -232487483 -366923067 1480356838 873476880 -1145610195 1593859686 1750247066 1745777944 -247617050 521729840
REM
CELL 1.54180   50.00000   50.00000   50.00000   90.00000   90.00000   90.00000
LATT -1
SFAC C  
C      1  0.5290080000000  0.5456700000000  0.4274590000000 1.0
C      1  0.4954790000000  0.5351750000000  0.5194410000000 1.0
C      1  0.5034410000000  0.5810040000000  0.5335830000000 1.0
C      1  0.4923580000000  0.5670900000000  0.4609800000000 1.0
C      1  0.5367940000000  0.4996800000000  0.5779170000000 1.0
C      1  0.4655980000000  0.4212850000000  0.5179940000000 1.0
C      1  0.4369620000000  0.4593360000000  0.5012290000000 1.0
C      1  0.4233300000000  0.5059660000000  0.4878130000000 1.0
C      1  0.5417370000000  0.4384700000000  0.4785630000000 1.0
C      1  0.5649020000000  0.5264360000000  0.4498000000000 1.0
C      1  0.4486760000000  0.5386350000000  0.5360720000000 1.0
C      1  0.4591410000000  0.4521600000000  0.5507720000000 1.0
C      1  0.5749840000000  0.5015100000000  0.5221440000000 1.0
C      1  0.5682630000000  0.5108360000000  0.5472130000000 1.0
C      1  0.5442340000000  0.5673170000000  0.4597730000000 1.0
C      1  0.5607780000000  0.5071740000000  0.4958480000000 1.0
C      1  0.5542620000000  0.5030090000000  0.4360830000000 1.0
C      1  0.4813790000000  0.5082640000000  0.4235680000000 1.0
C      1  0.5170730000000  0.4273680000000  0.4679480000000 1.0
C      1  0.4959860000000  0.5129770000000  0.5371580000000 1.0
C      1  0.4939280000000  0.4423630000000  0.4533650000000 1.0
C      1  0.4551200000000  0.4707900000000  0.4321310000000 1.0
C      1  0.4496150000000  0.5095370000000  0.5368560000000 1.0
C      1  0.5672450000000  0.4766760000000  0.4907460000000 1.0
C      1  0.4833000000000  0.5152000000000  0.5693640000000 1.0
C      1  0.4337990000000  0.4656080000000  0.5521520000000 1.0
C      1  0.4442860000000  0.5510060000000  0.5105080000000 1.0
C      1  0.4901780000000  0.5758560000000  0.4892420000000 1.0
C      1  0.4297220000000  0.4884700000000  0.5362790000000 1.0
C      1  0.5518940000000  0.4639650000000  0.5397760000000 1.0
C      1  0.5211600000000  0.5008270000000  0.5316490000000 1.0
C      1  0.4828030000000  0.4591300000000  0.5019170000000 1.0
C      1  0.4751030000000  0.5000770000000  0.5234150000000 1.0
C      1  0.4838290000000  0.5137350000000  0.4805080000000 1.0
C      1  0.4288300000000  0.5358090000000  0.4907210000000 1.0
C      1  0.5653910000000  0.5305960000000  0.4782240000000 1.0
C      1  0.4873680000000  0.4900020000000  0.5800590000000 1.0
C      1  0.5162010000000  0.5140180000000  0.4518350000000 1.0
C      1  0.5208370000000  0.4865220000000  0.4614380000000 1.0
C      1  0.4758020000000  0.5753760000000  0.5342700000000 1.0
C      1  0.5408290000000  0.5672460000000  0.5090170000000 1.0
C      1  0.4807820000000  0.4173310000000  0.4945780000000 1.0
C      1  0.4388680000000  0.5142340000000  0.4410800000000 1.0
C      1  0.5306750000000  0.4343820000000  0.5069140000000 1.0
C      1  0.5156700000000  0.4819670000000  0.5816500000000 1.0
C      1  0.4753400000000  0.5470160000000  0.4489480000000 1.0
C      1  0.5529740000000  0.5567390000000  0.4849390000000 1.0
C      1  0.5060520000000  0.5274670000000  0.4944220000000 1.0
C      1  0.5572310000000  0.4884770000000  0.5610420000000 1.0
C      1  0.5341140000000  0.5288760000000  0.5720770000000 1.0
C      1  0.5010980000000  0.4740630000000  0.4192750000000 1.0
C      1  0.4468030000000  0.5412770000000  0.4476050000000 1.0
C      1  0.4667280000000  0.5708590000000  0.5072410000000 1.0
C      1  0.5132080000000  0.4651380000000  0.4429720000000 1.0
C      1  0.4454720000000  0.4521840000000  0.4753170000000 1.0
C      1  0.5583260000000  0.4603330000000  0.4697010000000 1.0
C      1  0.5055570000000  0.5004840000000  0.4124930000000 1.0
C      1  0.4797140000000  0.4567270000000  0.4289050000000 1.0
C      1  0.5478810000000  0.4796710000000  0.4508350000000 1.0
C      1  0.5124260000000  0.4598750000000  0.5097940000000 1.0
C      1  0.4280020000000  0.4967980000000  0.4609270000000 1.0
C      1  0.4705940000000  0.4210290000000  0.5457400000000 1.0
C      1  0.4742530000000  0.4411650000000  0.4769880000000 1.0
C      1  0.4841460000000  0.5428400000000  0.5711290000000 1.0
C      1  0.4246120000000  0.4843960000000  0.5075890000000 1.0
C      1  0.5550610000000  0.5501850000000  0.4386640000000 1.0
C      1  0.5281030000000  0.5148760000000  0.4248220000000 1.0
C      1  0.5149020000000  0.4839740000000  0.4908350000000 1.0
C      1  0.4805100000000  0.4654590000000  0.5656810000000 1.0
C      1  0.5415700000000  0.4353220000000  0.5354890000000 1.0
C      1  0.5135080000000  0.5792350000000  0.5072180000000 1.0
C      1  0.5091820000000  0.4169260000000  0.4935390000000 1.0
C      1  0.5708890000000  0.4729070000000  0.5191280000000 1.0
C      1  0.5215590000000  0.4722060000000  0.5355470000000 1.0
C      1  0.4383130000000  0.4699440000000  0.4552220000000 1.0
C      1  0.5187430000000  0.4315930000000  0.5532170000000 1.0
C      1  0.5208860000000  0.5679040000000  0.5514150000000 1.0
C      1  0.5276820000000  0.5070980000000  0.5034380000000 1.0
C      1  0.4293710000000  0.5486880000000  0.4668430000000 1.0
C      1  0.4553810000000  0.4984660000000  0.4238570000000 1.0
C      1  0.5444320000000  0.5593870000000  0.5374410000000 1.0
C      1  0.5176120000000  0.5655550000000  0.4479660000000 1.0
C      1  0.4591150000000  0.4502020000000  0.5190040000000 1.0
C      1  0.4829990000000  0.4894540000000  0.4961020000000 1.0
C      1  0.4971270000000  0.4154330000000  0.5503080000000 1.0
C      1  0.5096140000000  0.4598450000000  0.5611740000000 1.0
C      1  0.5128210000000  0.5490130000000  0.5706320000000 1.0
C      1  0.5540150000000  0.5360170000000  0.5529110000000 1.0
C      1  0.4876930000000  0.5200150000000  0.4509910000000 1.0
C      1  0.4667630000000  0.5547980000000  0.5515660000000 1.0
END
