TITL C-152485-7511-9 -0.051198039637812 125000 -207.141121678419 0 0 32 (C1) n - 1
REM
REM in /rds/project/t2_vol4/rds-t2-cs072/BORA/CARBON/from-Arr/AIRSS/Generating-Clusters/GAP-ML-2020/Only-C1/SD-CG/HFTN-CG
REM
REM
REM
REM
REM
REM ./C.cell (11c1c37f851c82e70ff6c80c92926a4b)
REM AIRSS Version 0.9.1 bugfix July 2018 build 013d7b7c2542+ Fri, 06 Jul 2018 19:26:36 +0100
REM compiler GCC version 9.3.0
REM options -cpp -mtune=generic -march=x86-64 -g -O0
REM seed 1002095292 1194558763 2117568931 -1668591048 246320187 1339202919 -292596605 1587356587 -217484307 1398242443 1081137986 -455447167 -1142483564 -323520261 497806567 -265107147 1348150040 -907954244 -1564690444 -1285941768 1277789575 1558296366 -1725746472 -2103656146 14284028 -1303521642 -1926776410 1396720350 -1095651599 -955967193 2132387322 424344970 -967780549
REM
CELL 1.54180   50.00000   50.00000   50.00000   90.00000   90.00000   90.00000
LATT -1
SFAC C  
C      1  0.4742600000000  0.5309630000000  0.4679130000000 1.0
C      1  0.5291770000000  0.4660560000000  0.4726140000000 1.0
C      1  0.5399480000000  0.5051780000000  0.4947900000000 1.0
C      1  0.5332800000000  0.5450230000000  0.5404790000000 1.0
C      1  0.4851760000000  0.4995660000000  0.5478620000000 1.0
C      1  0.4839590000000  0.5445840000000  0.4903740000000 1.0
C      1  0.4724750000000  0.4927850000000  0.4729610000000 1.0
C      1  0.5072020000000  0.4553030000000  0.4862820000000 1.0
C      1  0.4983280000000  0.5479120000000  0.4655360000000 1.0
C      1  0.5006120000000  0.5282960000000  0.5078780000000 1.0
C      1  0.5104020000000  0.5118370000000  0.4831980000000 1.0
C      1  0.4961230000000  0.5015300000000  0.5202110000000 1.0
C      1  0.5055780000000  0.4607280000000  0.4592090000000 1.0
C      1  0.5423340000000  0.4906700000000  0.4696830000000 1.0
C      1  0.4598090000000  0.4549740000000  0.5416150000000 1.0
C      1  0.5252060000000  0.5209680000000  0.5530470000000 1.0
C      1  0.5002850000000  0.5153470000000  0.5647430000000 1.0
C      1  0.4775750000000  0.4393460000000  0.5255740000000 1.0
C      1  0.5258250000000  0.5423720000000  0.5144190000000 1.0
C      1  0.5240800000000  0.5347180000000  0.4657220000000 1.0
C      1  0.5299360000000  0.5103560000000  0.4495650000000 1.0
C      1  0.4907570000000  0.4833330000000  0.4524800000000 1.0
C      1  0.4875090000000  0.4562850000000  0.5057610000000 1.0
C      1  0.5408720000000  0.5349390000000  0.4905540000000 1.0
C      1  0.4558290000000  0.5126120000000  0.4627040000000 1.0
C      1  0.4374430000000  0.4633890000000  0.5217950000000 1.0
C      1  0.5403760000000  0.4985420000000  0.5442170000000 1.0
C      1  0.4627430000000  0.4832340000000  0.5479550000000 1.0
C      1  0.4773120000000  0.4865760000000  0.5025890000000 1.0
C      1  0.4510360000000  0.4869250000000  0.5195110000000 1.0
C      1  0.5277470000000  0.4947930000000  0.5203100000000 1.0
C      1  0.5068060000000  0.5008610000000  0.4384520000000 1.0
END
