TITL C-152489-231-6 0.0706796852374299 125000 -22.9478494411434 0 0 4 (D(inf)h) n - 1
REM
REM in /rds/project/t2_vol4/rds-t2-cs072/BORA/CARBON/from-Arr/AIRSS/Generating-Clusters/GAP-ML-2020/Only-C1/SD-CG/HFTN-CG
REM
REM
REM
REM
REM
REM ./C.cell (11c1c37f851c82e70ff6c80c92926a4b)
REM AIRSS Version 0.9.1 bugfix July 2018 build 013d7b7c2542+ Fri, 06 Jul 2018 19:26:36 +0100
REM compiler GCC version 9.3.0
REM options -cpp -mtune=generic -march=x86-64 -g -O0
REM seed 936418967 1790868995 1910476740 1660814800 -1340886993 1264797673 -1566479332 914921935 -460102628 -685565133 -1770652897 -303461681 327696295 -558072257 1064701952 97633049 -885213942 214693754 -1719943598 -926241660 1649977690 -934829751 -106482485 -1590333774 -841968192 -1493456816 -830648132 -78018297 -690364409 744689502 -1040457862 2068474821 -127666430
REM
CELL 1.54180   50.00000   50.00000   50.00000   90.00000   90.00000   90.00000
LATT -1
SFAC C  
C      1  0.4999260000000  0.4868630000000  0.5029560000000 1.0
C      1  0.4997860000000  0.4620850000000  0.5085300000000 1.0
C      1  0.5000740000000  0.5131370000000  0.4970440000000 1.0
C      1  0.5002140000000  0.5379150000000  0.4914700000000 1.0
END
