TITL C-152502-7416-10 328.354434080109 125000 -625.203307747113 0 0 89 (C1) n - 1
REM
REM in /rds/project/t2_vol4/rds-t2-cs072/BORA/CARBON/from-Arr/AIRSS/Generating-Clusters/GAP-ML-2020/Only-C1/SD-CG/HFTN-CG
REM
REM
REM
REM
REM
REM ./C.cell (11c1c37f851c82e70ff6c80c92926a4b)
REM AIRSS Version 0.9.1 bugfix July 2018 build 013d7b7c2542+ Fri, 06 Jul 2018 19:26:36 +0100
REM compiler GCC version 9.3.0
REM options -cpp -mtune=generic -march=x86-64 -g -O0
REM seed 873929408 592198756 -382882768 73118273 -57682876 -387643131 1801663411 1189906137 -608866582 -781420888 -269850240 43829081 1236323450 -1479369586 1895076328 -1000251846 -1836190950 1036010820 1338576787 -1355143831 -2013364371 1134406684 -1128731727 -1825147048 1754286343 -1542205267 363191204 850511018 391792981 -1064274919 -625361054 -347642180 556191554
REM
CELL 1.54180   50.00000   50.00000   50.00000   90.00000   90.00000   90.00000
LATT -1
SFAC C  
C      1  0.4655960000000  0.5073680000000  0.5665490000000 1.0
C      1  0.5118340000000  0.4167420000000  0.4912220000000 1.0
C      1  0.5170920000000  0.5672690000000  0.5413340000000 1.0
C      1  0.5649680000000  0.5451870000000  0.4634060000000 1.0
C      1  0.5366110000000  0.4277030000000  0.5279890000000 1.0
C      1  0.5388540000000  0.4941900000000  0.5113360000000 1.0
C      1  0.4634900000000  0.4287050000000  0.5160360000000 1.0
C      1  0.4449010000000  0.5284270000000  0.4418020000000 1.0
C      1  0.5304980000000  0.5140400000000  0.4656160000000 1.0
C      1  0.4268750000000  0.4818310000000  0.4585460000000 1.0
C      1  0.4918460000000  0.5637890000000  0.4495920000000 1.0
C      1  0.5775460000000  0.5161110000000  0.5192470000000 1.0
C      1  0.5480780000000  0.4905320000000  0.4490800000000 1.0
C      1  0.4530260000000  0.4826540000000  0.5560690000000 1.0
C      1  0.4428940000000  0.4463860000000  0.4759600000000 1.0
C      1  0.5247060000000  0.4759850000000  0.4958600000000 1.0
C      1  0.5852830000000  0.5282630000000  0.4952900000000 1.0
C      1  0.4783570000000  0.5127200000000  0.5167790000000 1.0
C      1  0.5277080000000  0.5707520000000  0.5150010000000 1.0
C      1  0.5376850000000  0.5428460000000  0.4532660000000 1.0
C      1  0.5520120000000  0.4619410000000  0.4572760000000 1.0
C      1  0.4772450000000  0.4757130000000  0.4898370000000 1.0
C      1  0.4985100000000  0.5017050000000  0.5379750000000 1.0
C      1  0.4116490000000  0.5110840000000  0.5029090000000 1.0
C      1  0.5291150000000  0.5502830000000  0.5614350000000 1.0
C      1  0.5613510000000  0.4852370000000  0.5532920000000 1.0
C      1  0.4753760000000  0.4767070000000  0.4581050000000 1.0
C      1  0.5316550000000  0.5293430000000  0.4264890000000 1.0
C      1  0.4342520000000  0.5533980000000  0.5070790000000 1.0
C      1  0.5036150000000  0.5127760000000  0.4754280000000 1.0
C      1  0.4697720000000  0.5664750000000  0.4673230000000 1.0
C      1  0.5345660000000  0.4401350000000  0.5524310000000 1.0
C      1  0.4479870000000  0.4484310000000  0.5309850000000 1.0
C      1  0.5703390000000  0.4615030000000  0.5042670000000 1.0
C      1  0.4485390000000  0.4640050000000  0.4532350000000 1.0
C      1  0.5035190000000  0.5405660000000  0.5698580000000 1.0
C      1  0.5542460000000  0.5579140000000  0.5141000000000 1.0
C      1  0.5066250000000  0.4873920000000  0.4226130000000 1.0
C      1  0.5479930000000  0.5074440000000  0.5671140000000 1.0
C      1  0.4787780000000  0.5711410000000  0.4940000000000 1.0
C      1  0.5382390000000  0.4262420000000  0.4835500000000 1.0
C      1  0.5330120000000  0.4997150000000  0.4259770000000 1.0
C      1  0.5107950000000  0.4162940000000  0.5195170000000 1.0
C      1  0.5070780000000  0.5338020000000  0.4148180000000 1.0
C      1  0.5004050000000  0.4690210000000  0.5050960000000 1.0
C      1  0.4857590000000  0.4219280000000  0.5325090000000 1.0
C      1  0.4282670000000  0.5477460000000  0.4804010000000 1.0
C      1  0.5535340000000  0.4368430000000  0.5058890000000 1.0
C      1  0.5822110000000  0.5212300000000  0.4677780000000 1.0
C      1  0.5689750000000  0.5527510000000  0.4907980000000 1.0
C      1  0.5093990000000  0.5716700000000  0.4916880000000 1.0
C      1  0.4526490000000  0.5315660000000  0.5562720000000 1.0
C      1  0.4152430000000  0.5224840000000  0.4774430000000 1.0
C      1  0.4239650000000  0.4680750000000  0.4839620000000 1.0
C      1  0.5225060000000  0.4985560000000  0.5784790000000 1.0
C      1  0.4907630000000  0.5598160000000  0.5522420000000 1.0
C      1  0.4619730000000  0.4933670000000  0.5059580000000 1.0
C      1  0.4191090000000  0.4836640000000  0.5078900000000 1.0
C      1  0.5164560000000  0.5639510000000  0.4639390000000 1.0
C      1  0.4965830000000  0.4659180000000  0.4404710000000 1.0
C      1  0.4463440000000  0.5519070000000  0.4597460000000 1.0
C      1  0.5515000000000  0.5342270000000  0.5581540000000 1.0
C      1  0.5489670000000  0.4621400000000  0.5645140000000 1.0
C      1  0.4424600000000  0.4783240000000  0.5268240000000 1.0
C      1  0.5721430000000  0.4698590000000  0.4768850000000 1.0
C      1  0.4894540000000  0.5092750000000  0.4147090000000 1.0
C      1  0.4284070000000  0.5265910000000  0.5459320000000 1.0
C      1  0.4592250000000  0.5644230000000  0.5153690000000 1.0
C      1  0.5638480000000  0.5375190000000  0.5329940000000 1.0
C      1  0.4910660000000  0.4269940000000  0.4741050000000 1.0
C      1  0.5241530000000  0.4706990000000  0.5771660000000 1.0
C      1  0.4861620000000  0.5495350000000  0.4257660000000 1.0
C      1  0.4596660000000  0.4540390000000  0.5565490000000 1.0
C      1  0.4658350000000  0.5552950000000  0.5422750000000 1.0
C      1  0.4836940000000  0.4373130000000  0.5579210000000 1.0
C      1  0.4204780000000  0.5320150000000  0.5211630000000 1.0
C      1  0.4812820000000  0.5054490000000  0.4619700000000 1.0
C      1  0.5080170000000  0.4530160000000  0.5592350000000 1.0
C      1  0.5014140000000  0.5216960000000  0.5017940000000 1.0
C      1  0.4667680000000  0.5268420000000  0.4240600000000 1.0
C      1  0.4977910000000  0.4733090000000  0.5332070000000 1.0
C      1  0.5063610000000  0.4424150000000  0.4533250000000 1.0
C      1  0.5209950000000  0.5129990000000  0.5211680000000 1.0
C      1  0.4964370000000  0.5123190000000  0.5685230000000 1.0
C      1  0.4642470000000  0.4300560000000  0.4869350000000 1.0
C      1  0.5742110000000  0.4953280000000  0.4623230000000 1.0
C      1  0.5347980000000  0.4400200000000  0.4592690000000 1.0
C      1  0.4257280000000  0.5095680000000  0.4541110000000 1.0
C      1  0.5666340000000  0.4875000000000  0.5236030000000 1.0
END
