TITL C-151871-1527-9 -642.803318405437 125000 -690.60568710081 0 0 99 (C1) n - 1
REM
REM in /rds/project/t2_vol4/rds-t2-cs072/BORA/CARBON/from-Arr/AIRSS/Generating-Clusters/GAP-ML-2020/Only-C1/SD-CG/HFTN-CG
REM
REM
REM
REM
REM
REM ./C.cell (11c1c37f851c82e70ff6c80c92926a4b)
REM AIRSS Version 0.9.1 bugfix July 2018 build 013d7b7c2542+ Fri, 06 Jul 2018 19:26:36 +0100
REM compiler GCC version 9.3.0
REM options -cpp -mtune=generic -march=x86-64 -g -O0
REM seed 725385113 1141108566 848656417 -927319937 577513663 -321238705 2110045606 -417043916 -1211666566 1241353044 -549092088 -289182834 -2129814447 1038867792 -186362106 -998059615 1937490023 -1736515653 -1831598547 1286263150 1417268870 1709575518 -797894017 807612073 -1178208902 -1273802155 1732293590 -1136400612 1563283925 -2097427909 -824760189 598947503 -354498448
REM
CELL 1.54180   50.00000   50.00000   50.00000   90.00000   90.00000   90.00000
LATT -1
SFAC C  
C      1  0.4908420000000  0.5740420000000  0.4514780000000 1.0
C      1  0.5208770000000  0.4673810000000  0.4779090000000 1.0
C      1  0.5102960000000  0.4990110000000  0.5406410000000 1.0
C      1  0.5389480000000  0.4697410000000  0.4314710000000 1.0
C      1  0.5664190000000  0.4539740000000  0.5193530000000 1.0
C      1  0.5194980000000  0.5616830000000  0.4606030000000 1.0
C      1  0.5382720000000  0.5268670000000  0.5649780000000 1.0
C      1  0.4402150000000  0.5287150000000  0.5550190000000 1.0
C      1  0.5714440000000  0.4563460000000  0.4913880000000 1.0
C      1  0.4181520000000  0.5424520000000  0.5135830000000 1.0
C      1  0.5282420000000  0.5457020000000  0.4340610000000 1.0
C      1  0.4206540000000  0.5150270000000  0.4988580000000 1.0
C      1  0.4790680000000  0.5190150000000  0.5172450000000 1.0
C      1  0.5181520000000  0.5652900000000  0.5536340000000 1.0
C      1  0.5477530000000  0.4465720000000  0.4785760000000 1.0
C      1  0.5551720000000  0.5404380000000  0.5448680000000 1.0
C      1  0.5282970000000  0.4926200000000  0.4629440000000 1.0
C      1  0.4274320000000  0.5002510000000  0.4502520000000 1.0
C      1  0.4645580000000  0.5436430000000  0.5618550000000 1.0
C      1  0.4329230000000  0.4547520000000  0.4641390000000 1.0
C      1  0.4398130000000  0.5263140000000  0.4494110000000 1.0
C      1  0.5334330000000  0.5737610000000  0.5090840000000 1.0
C      1  0.4769360000000  0.4436130000000  0.4496890000000 1.0
C      1  0.4823390000000  0.5557660000000  0.4304250000000 1.0
C      1  0.5656390000000  0.5551520000000  0.4773080000000 1.0
C      1  0.5113270000000  0.4654080000000  0.4229370000000 1.0
C      1  0.5030160000000  0.4453410000000  0.5631280000000 1.0
C      1  0.4466330000000  0.4242270000000  0.5155910000000 1.0
C      1  0.5212030000000  0.4305110000000  0.4456730000000 1.0
C      1  0.5434640000000  0.4378410000000  0.5247530000000 1.0
C      1  0.5504090000000  0.5273580000000  0.4362970000000 1.0
C      1  0.5740920000000  0.5288750000000  0.5266310000000 1.0
C      1  0.4730220000000  0.5786270000000  0.4734760000000 1.0
C      1  0.5279920000000  0.4525650000000  0.5461100000000 1.0
C      1  0.4836450000000  0.4126310000000  0.5011060000000 1.0
C      1  0.5060890000000  0.5480900000000  0.4177660000000 1.0
C      1  0.5056380000000  0.5775030000000  0.5124260000000 1.0
C      1  0.5404180000000  0.5090850000000  0.4837490000000 1.0
C      1  0.4856260000000  0.5227970000000  0.4630450000000 1.0
C      1  0.4347300000000  0.4465830000000  0.5288980000000 1.0
C      1  0.4848290000000  0.5112380000000  0.5459230000000 1.0
C      1  0.5781890000000  0.4926250000000  0.4556710000000 1.0
C      1  0.4502500000000  0.4787240000000  0.5646260000000 1.0
C      1  0.5126850000000  0.4898680000000  0.5857710000000 1.0
C      1  0.4879050000000  0.5295080000000  0.5718550000000 1.0
C      1  0.4682620000000  0.5496380000000  0.5135460000000 1.0
C      1  0.4884050000000  0.5050940000000  0.5879460000000 1.0
C      1  0.4406240000000  0.4750520000000  0.4452040000000 1.0
C      1  0.5086410000000  0.4717210000000  0.5308480000000 1.0
C      1  0.5072250000000  0.4227040000000  0.4897830000000 1.0
C      1  0.4340760000000  0.4945300000000  0.5196120000000 1.0
C      1  0.4675630000000  0.4691540000000  0.4385420000000 1.0
C      1  0.4813080000000  0.4633340000000  0.5285180000000 1.0
C      1  0.5039630000000  0.4418630000000  0.4679370000000 1.0
C      1  0.5410160000000  0.5638610000000  0.5358770000000 1.0
C      1  0.5230130000000  0.5263810000000  0.4948720000000 1.0
C      1  0.4210840000000  0.5425700000000  0.5404600000000 1.0
C      1  0.5815040000000  0.5002190000000  0.5251570000000 1.0
C      1  0.4509800000000  0.4528490000000  0.5517500000000 1.0
C      1  0.4971170000000  0.4655750000000  0.5810960000000 1.0
C      1  0.5885910000000  0.5183690000000  0.4597100000000 1.0
C      1  0.5418110000000  0.5696700000000  0.4812530000000 1.0
C      1  0.4878880000000  0.5630010000000  0.4947060000000 1.0
C      1  0.5011760000000  0.4394170000000  0.4290380000000 1.0
C      1  0.4776960000000  0.4389060000000  0.5469420000000 1.0
C      1  0.5075690000000  0.4800570000000  0.5012570000000 1.0
C      1  0.4531990000000  0.4338870000000  0.4648870000000 1.0
C      1  0.5317210000000  0.4979100000000  0.5656060000000 1.0
C      1  0.5946570000000  0.4965450000000  0.4999500000000 1.0
C      1  0.4389290000000  0.5004570000000  0.5492200000000 1.0
C      1  0.5044800000000  0.5425290000000  0.4777570000000 1.0
C      1  0.4962830000000  0.5745920000000  0.5394090000000 1.0
C      1  0.5860430000000  0.4775780000000  0.4802440000000 1.0
C      1  0.5800330000000  0.5407610000000  0.4995210000000 1.0
C      1  0.4725310000000  0.4814510000000  0.5824490000000 1.0
C      1  0.5447510000000  0.4450480000000  0.4482290000000 1.0
C      1  0.4719710000000  0.5611920000000  0.5407230000000 1.0
C      1  0.4661840000000  0.5348450000000  0.4413700000000 1.0
C      1  0.5470070000000  0.4745640000000  0.5548950000000 1.0
C      1  0.5704250000000  0.5390660000000  0.4528920000000 1.0
C      1  0.4407880000000  0.5551850000000  0.4968890000000 1.0
C      1  0.4634370000000  0.4974120000000  0.5040510000000 1.0
C      1  0.4786740000000  0.4734380000000  0.5017770000000 1.0
C      1  0.4574490000000  0.4192510000000  0.4890350000000 1.0
C      1  0.4178630000000  0.4683440000000  0.4851620000000 1.0
C      1  0.4720650000000  0.4177450000000  0.5279190000000 1.0
C      1  0.5084180000000  0.5101950000000  0.5121900000000 1.0
C      1  0.4914360000000  0.4836890000000  0.4323330000000 1.0
C      1  0.5683750000000  0.4766340000000  0.5367190000000 1.0
C      1  0.5148280000000  0.5421890000000  0.5693260000000 1.0
C      1  0.5023620000000  0.5020220000000  0.4509360000000 1.0
C      1  0.5516670000000  0.4947190000000  0.4412790000000 1.0
C      1  0.4142320000000  0.4955420000000  0.4765620000000 1.0
C      1  0.5958080000000  0.5215350000000  0.4866880000000 1.0
C      1  0.5336870000000  0.4290160000000  0.4990130000000 1.0
C      1  0.4467850000000  0.5799750000000  0.4812770000000 1.0
C      1  0.4401890000000  0.5307020000000  0.4795110000000 1.0
C      1  0.4641890000000  0.5130660000000  0.4803190000000 1.0
C      1  0.4234840000000  0.4674170000000  0.5136020000000 1.0
END
