TITL C-158503-1806-3 -0.118614515877984 125000 -592.534127323599 0 0 85 (C1) n - 1
REM
REM in /rds/project/t2_vol4/rds-t2-cs072/BORA/CARBON/from-Arr/AIRSS/Generating-Clusters/GAP-ML-2020/Only-C1/SD-CG/HFTN-CG
REM
REM
REM
REM
REM
REM ./C.cell (11c1c37f851c82e70ff6c80c92926a4b)
REM AIRSS Version 0.9.1 bugfix July 2018 build 013d7b7c2542+ Fri, 06 Jul 2018 19:26:36 +0100
REM compiler GCC version 9.3.0
REM options -cpp -mtune=generic -march=x86-64 -g -O0
REM seed -432279308 1111330140 -846182153 51122956 899067999 21753930 -1058289447 -136797980 969361704 -342405479 -1440157232 -149285576 1099796322 555173433 676929306 1336573217 92702411 1030195963 1067822716 -2038971007 -674393787 -51911020 -708008152 -2047404095 479071118 -1348078332 -716597114 -578232976 -6241789 1916812171 -152810464 1778103288 -323766302
REM
CELL 1.54180   50.00000   50.00000   50.00000   90.00000   90.00000   90.00000
LATT -1
SFAC C  
C      1  0.4978060000000  0.4271380000000  0.4738530000000 1.0
C      1  0.4350960000000  0.5295130000000  0.5500780000000 1.0
C      1  0.4853310000000  0.5226540000000  0.5621070000000 1.0
C      1  0.4841370000000  0.4966880000000  0.5444340000000 1.0
C      1  0.5748990000000  0.4799420000000  0.5258520000000 1.0
C      1  0.4699820000000  0.5074540000000  0.4358960000000 1.0
C      1  0.4761550000000  0.4332190000000  0.5172690000000 1.0
C      1  0.5111810000000  0.4627460000000  0.4321170000000 1.0
C      1  0.5590190000000  0.4586460000000  0.4503380000000 1.0
C      1  0.4462040000000  0.5351870000000  0.4763760000000 1.0
C      1  0.5618760000000  0.4375470000000  0.5039220000000 1.0
C      1  0.5753200000000  0.4957590000000  0.4593810000000 1.0
C      1  0.4430120000000  0.4771060000000  0.5266360000000 1.0
C      1  0.5527200000000  0.4924400000000  0.5653930000000 1.0
C      1  0.5248110000000  0.4295850000000  0.4651270000000 1.0
C      1  0.5109750000000  0.4856130000000  0.5475100000000 1.0
C      1  0.4306650000000  0.4559870000000  0.5123660000000 1.0
C      1  0.4976980000000  0.4220750000000  0.5020340000000 1.0
C      1  0.4936180000000  0.5322100000000  0.5170920000000 1.0
C      1  0.4820520000000  0.5854670000000  0.5113900000000 1.0
C      1  0.4319610000000  0.4870390000000  0.4591990000000 1.0
C      1  0.5754330000000  0.5098980000000  0.5289300000000 1.0
C      1  0.5229500000000  0.5626840000000  0.4867140000000 1.0
C      1  0.5297590000000  0.5709190000000  0.5149510000000 1.0
C      1  0.4799360000000  0.4740310000000  0.4753650000000 1.0
C      1  0.4403630000000  0.4827280000000  0.5556850000000 1.0
C      1  0.5656280000000  0.5391780000000  0.4848690000000 1.0
C      1  0.4764670000000  0.5766890000000  0.4843260000000 1.0
C      1  0.5321810000000  0.4484150000000  0.4455950000000 1.0
C      1  0.5494060000000  0.5398770000000  0.5567570000000 1.0
C      1  0.4521610000000  0.4985870000000  0.5059680000000 1.0
C      1  0.4974790000000  0.5194160000000  0.4732830000000 1.0
C      1  0.5282540000000  0.4972690000000  0.5216070000000 1.0
C      1  0.4971490000000  0.5100440000000  0.4280110000000 1.0
C      1  0.4654470000000  0.4773130000000  0.4289500000000 1.0
C      1  0.4996990000000  0.5723270000000  0.4677910000000 1.0
C      1  0.5116440000000  0.5210610000000  0.5772590000000 1.0
C      1  0.4666640000000  0.4729270000000  0.5468480000000 1.0
C      1  0.4567630000000  0.4907900000000  0.4762460000000 1.0
C      1  0.4513700000000  0.4382370000000  0.5026370000000 1.0
C      1  0.4672130000000  0.5177330000000  0.4643840000000 1.0
C      1  0.5382740000000  0.4494480000000  0.5460380000000 1.0
C      1  0.4590600000000  0.5390410000000  0.5627410000000 1.0
C      1  0.4408740000000  0.5621620000000  0.5128080000000 1.0
C      1  0.5429020000000  0.5457900000000  0.5273870000000 1.0
C      1  0.5235380000000  0.5250800000000  0.5178050000000 1.0
C      1  0.4519890000000  0.5609250000000  0.4859030000000 1.0
C      1  0.4975820000000  0.4918890000000  0.4889490000000 1.0
C      1  0.5443770000000  0.4308300000000  0.5265070000000 1.0
C      1  0.5156870000000  0.4891380000000  0.4229010000000 1.0
C      1  0.4273260000000  0.4582340000000  0.4676500000000 1.0
C      1  0.5625040000000  0.4832820000000  0.4363660000000 1.0
C      1  0.4912690000000  0.5453830000000  0.5430350000000 1.0
C      1  0.5081570000000  0.5853040000000  0.5207460000000 1.0
C      1  0.4437200000000  0.4921130000000  0.4329350000000 1.0
C      1  0.4309450000000  0.5059090000000  0.5635540000000 1.0
C      1  0.5025490000000  0.5583400000000  0.4449350000000 1.0
C      1  0.5587090000000  0.4703540000000  0.5484430000000 1.0
C      1  0.5647740000000  0.5155060000000  0.5547550000000 1.0
C      1  0.4836630000000  0.4496100000000  0.5402960000000 1.0
C      1  0.5631240000000  0.5220780000000  0.4618460000000 1.0
C      1  0.4596920000000  0.5766240000000  0.5284390000000 1.0
C      1  0.4304460000000  0.5191790000000  0.4979030000000 1.0
C      1  0.5103010000000  0.4567430000000  0.5484350000000 1.0
C      1  0.5748930000000  0.4698890000000  0.4739420000000 1.0
C      1  0.5326450000000  0.5393790000000  0.5787930000000 1.0
C      1  0.4502160000000  0.4413330000000  0.4742850000000 1.0
C      1  0.5247180000000  0.4964640000000  0.5702290000000 1.0
C      1  0.5756340000000  0.4628240000000  0.5018450000000 1.0
C      1  0.5114660000000  0.5305640000000  0.4447160000000 1.0
C      1  0.5416780000000  0.4989750000000  0.4275610000000 1.0
C      1  0.5424220000000  0.4236770000000  0.4865340000000 1.0
C      1  0.4149310000000  0.4966700000000  0.4833720000000 1.0
C      1  0.5494540000000  0.5609230000000  0.4796110000000 1.0
C      1  0.4151950000000  0.4682760000000  0.4914220000000 1.0
C      1  0.5227810000000  0.4848690000000  0.4972620000000 1.0
C      1  0.4838700000000  0.4583210000000  0.4382950000000 1.0
C      1  0.4288030000000  0.5375820000000  0.5212650000000 1.0
C      1  0.4805410000000  0.5056580000000  0.5139080000000 1.0
C      1  0.4774070000000  0.4450210000000  0.4634470000000 1.0
C      1  0.5095790000000  0.5364760000000  0.4936620000000 1.0
C      1  0.5248960000000  0.4184680000000  0.5092080000000 1.0
C      1  0.5406890000000  0.5225210000000  0.4428670000000 1.0
C      1  0.4689200000000  0.5619720000000  0.5498850000000 1.0
C      1  0.5673190000000  0.5330370000000  0.5129690000000 1.0
END
