TITL C-152490-6995-4 0.0885933893450862 125000 -467.516556503019 0 0 68 (C1) n - 1
REM
REM in /rds/project/t2_vol4/rds-t2-cs072/BORA/CARBON/from-Arr/AIRSS/Generating-Clusters/GAP-ML-2020/Only-C1/SD-CG/HFTN-CG
REM
REM
REM
REM
REM
REM ./C.cell (11c1c37f851c82e70ff6c80c92926a4b)
REM AIRSS Version 0.9.1 bugfix July 2018 build 013d7b7c2542+ Fri, 06 Jul 2018 19:26:36 +0100
REM compiler GCC version 9.3.0
REM options -cpp -mtune=generic -march=x86-64 -g -O0
REM seed 874687124 -844654805 1902820267 -402536338 -423895511 2115016547 -1722927052 664341243 -201727448 372893981 -44814567 1139029695 -816274963 1379541579 456194690 1041388370 1156149099 -1214786400 -583393546 520297380 -453133732 1875738533 -1497318161 47739448 102130456 1892401998 1953340894 531962878 638869800 2027934710 1147758932 1094675732 1027930028
REM
CELL 1.54180   50.00000   50.00000   50.00000   90.00000   90.00000   90.00000
LATT -1
SFAC C  
C      1  0.5525840000000  0.4584700000000  0.4986830000000 1.0
C      1  0.4434750000000  0.5074010000000  0.5081660000000 1.0
C      1  0.5287250000000  0.5610010000000  0.4757200000000 1.0
C      1  0.5685610000000  0.4874430000000  0.5615290000000 1.0
C      1  0.4780420000000  0.5539960000000  0.5490730000000 1.0
C      1  0.4727750000000  0.5589930000000  0.4780280000000 1.0
C      1  0.5332920000000  0.4495910000000  0.5422190000000 1.0
C      1  0.4438770000000  0.4636030000000  0.4750480000000 1.0
C      1  0.5256630000000  0.5129760000000  0.5718200000000 1.0
C      1  0.5586500000000  0.4657340000000  0.4687010000000 1.0
C      1  0.5385530000000  0.4848200000000  0.5029720000000 1.0
C      1  0.5414610000000  0.4451920000000  0.4754880000000 1.0
C      1  0.5415180000000  0.5539010000000  0.5383400000000 1.0
C      1  0.5423660000000  0.4894340000000  0.5714800000000 1.0
C      1  0.4689810000000  0.4828670000000  0.4728430000000 1.0
C      1  0.4469710000000  0.4829980000000  0.5222940000000 1.0
C      1  0.5007840000000  0.5683770000000  0.4833570000000 1.0
C      1  0.4708300000000  0.4415130000000  0.5059010000000 1.0
C      1  0.5585810000000  0.5472470000000  0.5137730000000 1.0
C      1  0.5186910000000  0.4936610000000  0.4814660000000 1.0
C      1  0.5666620000000  0.5235080000000  0.4996210000000 1.0
C      1  0.4376390000000  0.5309620000000  0.4503060000000 1.0
C      1  0.4507450000000  0.5158370000000  0.4289100000000 1.0
C      1  0.5650790000000  0.4979270000000  0.5111680000000 1.0
C      1  0.5283430000000  0.5409290000000  0.5607750000000 1.0
C      1  0.4743230000000  0.4459680000000  0.4442670000000 1.0
C      1  0.4737060000000  0.5330480000000  0.4307160000000 1.0
C      1  0.4699340000000  0.5084760000000  0.5588130000000 1.0
C      1  0.4478010000000  0.5327390000000  0.5203290000000 1.0
C      1  0.5698460000000  0.4815160000000  0.5350120000000 1.0
C      1  0.4998660000000  0.5442070000000  0.5630520000000 1.0
C      1  0.5247290000000  0.4961460000000  0.4503730000000 1.0
C      1  0.5007830000000  0.4530910000000  0.4995310000000 1.0
C      1  0.4996690000000  0.4662990000000  0.5701140000000 1.0
C      1  0.4782550000000  0.5675690000000  0.5240150000000 1.0
C      1  0.4989270000000  0.5088940000000  0.4986890000000 1.0
C      1  0.4614580000000  0.4831520000000  0.5473820000000 1.0
C      1  0.4985100000000  0.5195840000000  0.4276250000000 1.0
C      1  0.4608740000000  0.5549570000000  0.5051260000000 1.0
C      1  0.4924460000000  0.4300900000000  0.4611440000000 1.0
C      1  0.4497130000000  0.4878530000000  0.4334540000000 1.0
C      1  0.5394780000000  0.5391640000000  0.4596930000000 1.0
C      1  0.5538230000000  0.4925960000000  0.4593770000000 1.0
C      1  0.4477530000000  0.4605560000000  0.5041540000000 1.0
C      1  0.4837670000000  0.4407500000000  0.5332440000000 1.0
C      1  0.4622440000000  0.5477450000000  0.4541680000000 1.0
C      1  0.4280220000000  0.5089130000000  0.4648440000000 1.0
C      1  0.5443850000000  0.5670030000000  0.4985610000000 1.0
C      1  0.4926740000000  0.4817820000000  0.4900980000000 1.0
C      1  0.4789620000000  0.4608670000000  0.5527500000000 1.0
C      1  0.5232660000000  0.4901960000000  0.5272870000000 1.0
C      1  0.4300260000000  0.4824710000000  0.4547020000000 1.0
C      1  0.5276400000000  0.5737490000000  0.5219000000000 1.0
C      1  0.4524090000000  0.4390980000000  0.4624760000000 1.0
C      1  0.4959330000000  0.5156240000000  0.5711180000000 1.0
C      1  0.5017610000000  0.5762470000000  0.5110100000000 1.0
C      1  0.5076990000000  0.5119520000000  0.5234990000000 1.0
C      1  0.4693420000000  0.4255920000000  0.4809950000000 1.0
C      1  0.4596670000000  0.5321890000000  0.5465150000000 1.0
C      1  0.5582860000000  0.5201280000000  0.4714160000000 1.0
C      1  0.5001310000000  0.4913630000000  0.4335200000000 1.0
C      1  0.4757570000000  0.4764200000000  0.4423910000000 1.0
C      1  0.5241330000000  0.5242990000000  0.4409270000000 1.0
C      1  0.4511090000000  0.5064570000000  0.4812520000000 1.0
C      1  0.5263850000000  0.4649810000000  0.5658890000000 1.0
C      1  0.5108800000000  0.4425170000000  0.5266650000000 1.0
C      1  0.5570050000000  0.4561220000000  0.5275100000000 1.0
C      1  0.5137760000000  0.4392480000000  0.4767140000000 1.0
END
