TITL C-158502-3072-8 -24.605906103458 125000 -571.296687631242 0 0 84 (C1) n - 1
REM
REM in /rds/project/t2_vol4/rds-t2-cs072/BORA/CARBON/from-Arr/AIRSS/Generating-Clusters/GAP-ML-2020/Only-C1/SD-CG/HFTN-CG
REM
REM
REM
REM
REM
REM ./C.cell (11c1c37f851c82e70ff6c80c92926a4b)
REM AIRSS Version 0.9.1 bugfix July 2018 build 013d7b7c2542+ Fri, 06 Jul 2018 19:26:36 +0100
REM compiler GCC version 9.3.0
REM options -cpp -mtune=generic -march=x86-64 -g -O0
REM seed -664860956 -702585632 523829766 1414332287 -2078278738 -1960259386 -490848576 1815232332 -184813418 1736673571 -306486292 -896609257 890330437 -506162597 -1637998329 1315224268 20367302 -31852787 1833283235 2022160090 1630507952 -2007798086 806279628 -441254299 -1880583105 1986114697 -916695932 1357441703 1122872359 495612198 1976641314 1803761408 -431589652
REM
CELL 1.54180   50.00000   50.00000   50.00000   90.00000   90.00000   90.00000
LATT -1
SFAC C  
C      1  0.4969290000000  0.4280980000000  0.4756300000000 1.0
C      1  0.5438920000000  0.5349770000000  0.4601310000000 1.0
C      1  0.4988070000000  0.4690690000000  0.4705020000000 1.0
C      1  0.4958720000000  0.4636710000000  0.4997100000000 1.0
C      1  0.4665040000000  0.5130310000000  0.5723750000000 1.0
C      1  0.5268930000000  0.4709490000000  0.5634120000000 1.0
C      1  0.5067500000000  0.5263530000000  0.4927450000000 1.0
C      1  0.5695190000000  0.5213370000000  0.4611490000000 1.0
C      1  0.5236510000000  0.5195100000000  0.5346160000000 1.0
C      1  0.5579290000000  0.5450770000000  0.5303810000000 1.0
C      1  0.4673310000000  0.4844530000000  0.4394730000000 1.0
C      1  0.5430250000000  0.4411990000000  0.4884390000000 1.0
C      1  0.4929330000000  0.5322260000000  0.4382780000000 1.0
C      1  0.5029550000000  0.4305280000000  0.5319360000000 1.0
C      1  0.4643590000000  0.5705450000000  0.5155300000000 1.0
C      1  0.5011680000000  0.5587670000000  0.4442640000000 1.0
C      1  0.4289630000000  0.5383990000000  0.5118040000000 1.0
C      1  0.4928300000000  0.5295010000000  0.5678240000000 1.0
C      1  0.4603430000000  0.4308590000000  0.5128800000000 1.0
C      1  0.5215660000000  0.4615030000000  0.4509260000000 1.0
C      1  0.4995250000000  0.5806690000000  0.4861730000000 1.0
C      1  0.4381920000000  0.4882920000000  0.5403910000000 1.0
C      1  0.5371090000000  0.4646870000000  0.5354820000000 1.0
C      1  0.5370400000000  0.4884100000000  0.4411180000000 1.0
C      1  0.5664360000000  0.5188100000000  0.5410530000000 1.0
C      1  0.4827180000000  0.5701590000000  0.4650940000000 1.0
C      1  0.5080730000000  0.5700760000000  0.5356500000000 1.0
C      1  0.4908880000000  0.4856040000000  0.5401650000000 1.0
C      1  0.5066020000000  0.5082880000000  0.5833470000000 1.0
C      1  0.4409150000000  0.5342700000000  0.5373570000000 1.0
C      1  0.4827570000000  0.5230710000000  0.5109870000000 1.0
C      1  0.4861070000000  0.4421890000000  0.5517070000000 1.0
C      1  0.4328260000000  0.4578430000000  0.5415090000000 1.0
C      1  0.4555270000000  0.4552100000000  0.4817470000000 1.0
C      1  0.5077800000000  0.5555260000000  0.5588730000000 1.0
C      1  0.5286960000000  0.5599420000000  0.4527880000000 1.0
C      1  0.4561300000000  0.5588610000000  0.4714920000000 1.0
C      1  0.4220800000000  0.4600330000000  0.5144510000000 1.0
C      1  0.4848340000000  0.4903730000000  0.5807720000000 1.0
C      1  0.4447130000000  0.5607280000000  0.4977690000000 1.0
C      1  0.4600270000000  0.4455200000000  0.5383470000000 1.0
C      1  0.5260140000000  0.5722820000000  0.4784370000000 1.0
C      1  0.5019720000000  0.5165020000000  0.4644060000000 1.0
C      1  0.5046710000000  0.4631300000000  0.4268470000000 1.0
C      1  0.4678620000000  0.4754890000000  0.5013500000000 1.0
C      1  0.5448550000000  0.4239970000000  0.5097210000000 1.0
C      1  0.4645250000000  0.4760210000000  0.5304280000000 1.0
C      1  0.5778070000000  0.4688080000000  0.4707980000000 1.0
C      1  0.5877490000000  0.4771380000000  0.4481780000000 1.0
C      1  0.5291690000000  0.5499830000000  0.5387140000000 1.0
C      1  0.5565550000000  0.4687180000000  0.4907690000000 1.0
C      1  0.4910830000000  0.5800080000000  0.5133290000000 1.0
C      1  0.4776230000000  0.4578740000000  0.4354460000000 1.0
C      1  0.4236200000000  0.5132120000000  0.4990770000000 1.0
C      1  0.4947450000000  0.5147460000000  0.5394560000000 1.0
C      1  0.4215890000000  0.4893630000000  0.5147320000000 1.0
C      1  0.4679390000000  0.5047060000000  0.4206510000000 1.0
C      1  0.5231230000000  0.5046960000000  0.5072800000000 1.0
C      1  0.5312710000000  0.4961880000000  0.5755240000000 1.0
C      1  0.4436670000000  0.5129340000000  0.5562600000000 1.0
C      1  0.4483210000000  0.5341310000000  0.4584680000000 1.0
C      1  0.5115360000000  0.4790590000000  0.5185990000000 1.0
C      1  0.4972320000000  0.4677570000000  0.5645360000000 1.0
C      1  0.4427430000000  0.5128720000000  0.4776850000000 1.0
C      1  0.5684030000000  0.5150610000000  0.4927300000000 1.0
C      1  0.4969870000000  0.5098980000000  0.4181700000000 1.0
C      1  0.5158250000000  0.4890340000000  0.4197460000000 1.0
C      1  0.4894530000000  0.4322370000000  0.5051200000000 1.0
C      1  0.5306420000000  0.5084530000000  0.4610840000000 1.0
C      1  0.5588740000000  0.5413180000000  0.5028990000000 1.0
C      1  0.4841980000000  0.4940370000000  0.4648580000000 1.0
C      1  0.5431170000000  0.4977300000000  0.4872980000000 1.0
C      1  0.5614660000000  0.4748130000000  0.5201660000000 1.0
C      1  0.5674940000000  0.4959740000000  0.4451310000000 1.0
C      1  0.5343980000000  0.5460640000000  0.4882650000000 1.0
C      1  0.4371530000000  0.4419160000000  0.4976460000000 1.0
C      1  0.4647210000000  0.5438940000000  0.5254150000000 1.0
C      1  0.5311120000000  0.4360540000000  0.5295380000000 1.0
C      1  0.5236910000000  0.4371910000000  0.4679830000000 1.0
C      1  0.4630530000000  0.5281740000000  0.4361500000000 1.0
C      1  0.4774210000000  0.4465360000000  0.4628660000000 1.0
C      1  0.5434190000000  0.5113020000000  0.5557340000000 1.0
C      1  0.5733570000000  0.5002400000000  0.5205840000000 1.0
C      1  0.4683520000000  0.5018510000000  0.4896520000000 1.0
END
