TITL C-152491-6993-8 0.023991993871018 125000 -144.504894426716 0 0 23 (C1) n - 1
REM
REM in /rds/project/t2_vol4/rds-t2-cs072/BORA/CARBON/from-Arr/AIRSS/Generating-Clusters/GAP-ML-2020/Only-C1/SD-CG/HFTN-CG
REM
REM
REM
REM
REM
REM ./C.cell (11c1c37f851c82e70ff6c80c92926a4b)
REM AIRSS Version 0.9.1 bugfix July 2018 build 013d7b7c2542+ Fri, 06 Jul 2018 19:26:36 +0100
REM compiler GCC version 9.3.0
REM options -cpp -mtune=generic -march=x86-64 -g -O0
REM seed 881631442 2144455896 -227635982 -1615099369 -1980934987 242868316 1292023580 -1737936361 -2055718867 1929573817 -1786482368 -881280474 1950682064 -1720947708 1324625411 1533347816 1394457835 -377747054 1166437439 -890788838 1728945332 -1252691405 206844892 -1140435809 2022185627 -52419038 1307537445 1915277655 1423414193 -1346044777 -87418047 -1510611663 1083230683
REM
CELL 1.54180   50.00000   50.00000   50.00000   90.00000   90.00000   90.00000
LATT -1
SFAC C  
C      1  0.4932500000000  0.5330970000000  0.5399530000000 1.0
C      1  0.4753570000000  0.4946180000000  0.5196710000000 1.0
C      1  0.4626170000000  0.5252440000000  0.4509250000000 1.0
C      1  0.4546970000000  0.5072580000000  0.5019150000000 1.0
C      1  0.4295740000000  0.5090590000000  0.5098890000000 1.0
C      1  0.5362510000000  0.4894020000000  0.4846000000000 1.0
C      1  0.5413410000000  0.4641420000000  0.4762030000000 1.0
C      1  0.5172210000000  0.4539960000000  0.4850070000000 1.0
C      1  0.5145600000000  0.5502210000000  0.4979400000000 1.0
C      1  0.5180720000000  0.4918600000000  0.5353850000000 1.0
C      1  0.5189120000000  0.5063330000000  0.4674950000000 1.0
C      1  0.4834710000000  0.4680350000000  0.5117290000000 1.0
C      1  0.4947120000000  0.5394240000000  0.5140330000000 1.0
C      1  0.5087170000000  0.4659480000000  0.5259140000000 1.0
C      1  0.5355020000000  0.5319190000000  0.5023190000000 1.0
C      1  0.4914880000000  0.4672170000000  0.4837740000000 1.0
C      1  0.4927620000000  0.4948140000000  0.4728510000000 1.0
C      1  0.5298600000000  0.5038540000000  0.5108930000000 1.0
C      1  0.5191840000000  0.4456060000000  0.5123570000000 1.0
C      1  0.4681780000000  0.5116880000000  0.4733550000000 1.0
C      1  0.5224820000000  0.5326060000000  0.4778880000000 1.0
C      1  0.4926700000000  0.5058770000000  0.5422340000000 1.0
C      1  0.4991200000000  0.5077810000000  0.5036700000000 1.0
END
