TITL C-151851-9564-6 -0.101184112555583 125000 -482.320558882741 0 0 70 (C1) n - 1
REM
REM in /rds/project/t2_vol4/rds-t2-cs072/BORA/CARBON/from-Arr/AIRSS/Generating-Clusters/GAP-ML-2020/Only-C1/SD-CG/HFTN-CG
REM
REM
REM
REM
REM
REM ./C.cell (11c1c37f851c82e70ff6c80c92926a4b)
REM AIRSS Version 0.9.1 bugfix July 2018 build 013d7b7c2542+ Fri, 06 Jul 2018 19:26:36 +0100
REM compiler GCC version 9.3.0
REM options -cpp -mtune=generic -march=x86-64 -g -O0
REM seed 1258255866 373636692 -222875553 779251090 -761083531 -1919331512 -860967595 -392083029 -237861725 -1729615227 -1258353633 284625997 557794013 -903816742 771351681 -1277605446 1628126214 -2091460255 -88123306 -452085339 -1362133452 -999921775 -12540969 606631604 1564669666 -684868281 -1041834287 631927685 -1823787361 2008898728 294310090 1792090022 529932259
REM
CELL 1.54180   50.00000   50.00000   50.00000   90.00000   90.00000   90.00000
LATT -1
SFAC C  
C      1  0.4503810000000  0.4954450000000  0.4511530000000 1.0
C      1  0.5253690000000  0.4943360000000  0.4362870000000 1.0
C      1  0.4444600000000  0.4599930000000  0.5317460000000 1.0
C      1  0.5294020000000  0.4757400000000  0.4583390000000 1.0
C      1  0.4434600000000  0.5221030000000  0.5288630000000 1.0
C      1  0.5719760000000  0.4969440000000  0.4711170000000 1.0
C      1  0.5181570000000  0.5152030000000  0.5619820000000 1.0
C      1  0.5357920000000  0.4661740000000  0.5453890000000 1.0
C      1  0.5340460000000  0.5320770000000  0.5416500000000 1.0
C      1  0.5160370000000  0.4867470000000  0.4850190000000 1.0
C      1  0.4931880000000  0.5143210000000  0.5142210000000 1.0
C      1  0.5756760000000  0.5104780000000  0.4958380000000 1.0
C      1  0.5192500000000  0.4431270000000  0.5408320000000 1.0
C      1  0.4307520000000  0.4649990000000  0.5066270000000 1.0
C      1  0.4311660000000  0.5161910000000  0.5033960000000 1.0
C      1  0.4947210000000  0.5284480000000  0.4353730000000 1.0
C      1  0.5688530000000  0.4995420000000  0.5220100000000 1.0
C      1  0.5384340000000  0.5458360000000  0.4942920000000 1.0
C      1  0.4977330000000  0.5006300000000  0.4330290000000 1.0
C      1  0.5268760000000  0.5609280000000  0.5384940000000 1.0
C      1  0.4437750000000  0.5333810000000  0.4842420000000 1.0
C      1  0.4619130000000  0.5507300000000  0.4987080000000 1.0
C      1  0.4705590000000  0.5394250000000  0.4469540000000 1.0
C      1  0.4915820000000  0.4474670000000  0.5486100000000 1.0
C      1  0.4693000000000  0.5359490000000  0.5237730000000 1.0
C      1  0.5375160000000  0.4364050000000  0.4931020000000 1.0
C      1  0.5189040000000  0.4407740000000  0.5136690000000 1.0
C      1  0.5203430000000  0.4301120000000  0.4699130000000 1.0
C      1  0.4687150000000  0.5098220000000  0.5701110000000 1.0
C      1  0.4500210000000  0.5239500000000  0.4575310000000 1.0
C      1  0.5644840000000  0.5357210000000  0.5043970000000 1.0
C      1  0.4336370000000  0.4803310000000  0.4678280000000 1.0
C      1  0.4704530000000  0.4485570000000  0.5283600000000 1.0
C      1  0.5105550000000  0.5484860000000  0.4508040000000 1.0
C      1  0.4933470000000  0.4691370000000  0.5669300000000 1.0
C      1  0.4916910000000  0.5896010000000  0.5286610000000 1.0
C      1  0.5059810000000  0.4888250000000  0.5270670000000 1.0
C      1  0.4235970000000  0.4901350000000  0.4942760000000 1.0
C      1  0.4756140000000  0.4831340000000  0.4408720000000 1.0
C      1  0.4803720000000  0.5686480000000  0.4864840000000 1.0
C      1  0.5552440000000  0.4578300000000  0.4953010000000 1.0
C      1  0.4856270000000  0.5596300000000  0.4606810000000 1.0
C      1  0.5609110000000  0.5259880000000  0.5318170000000 1.0
C      1  0.4913490000000  0.5259470000000  0.5658320000000 1.0
C      1  0.4834860000000  0.4586920000000  0.4521430000000 1.0
C      1  0.4917020000000  0.5039390000000  0.4872880000000 1.0
C      1  0.4448600000000  0.5076740000000  0.5524850000000 1.0
C      1  0.4395640000000  0.4550550000000  0.4803220000000 1.0
C      1  0.5004870000000  0.4100360000000  0.4714210000000 1.0
C      1  0.4460320000000  0.4783760000000  0.5534630000000 1.0
C      1  0.5308850000000  0.4953500000000  0.5092790000000 1.0
C      1  0.5516740000000  0.4760390000000  0.5211950000000 1.0
C      1  0.5055720000000  0.4658940000000  0.5059420000000 1.0
C      1  0.4673190000000  0.4455790000000  0.4766840000000 1.0
C      1  0.5354070000000  0.5465550000000  0.4642920000000 1.0
C      1  0.4689570000000  0.4812710000000  0.5719630000000 1.0
C      1  0.4765220000000  0.4167400000000  0.4770300000000 1.0
C      1  0.5222720000000  0.5241060000000  0.5137890000000 1.0
C      1  0.5120210000000  0.4522510000000  0.4543070000000 1.0
C      1  0.4700520000000  0.4882790000000  0.4936740000000 1.0
C      1  0.4827960000000  0.5472990000000  0.5488930000000 1.0
C      1  0.5465620000000  0.5120500000000  0.4303230000000 1.0
C      1  0.5542520000000  0.5356540000000  0.4453500000000 1.0
C      1  0.4782640000000  0.4600620000000  0.5014130000000 1.0
C      1  0.5008240000000  0.5803360000000  0.5045240000000 1.0
C      1  0.4999830000000  0.5696170000000  0.5464730000000 1.0
C      1  0.5271030000000  0.5678150000000  0.5105680000000 1.0
C      1  0.5165050000000  0.4861190000000  0.5560320000000 1.0
C      1  0.5566630000000  0.4733790000000  0.4718780000000 1.0
C      1  0.5690170000000  0.5125830000000  0.4476910000000 1.0
END
