TITL C-152507-7705-6 14.9717070479895 125000 -368.685800966398 0 0 55 (C1) n - 1
REM
REM in /rds/project/t2_vol4/rds-t2-cs072/BORA/CARBON/from-Arr/AIRSS/Generating-Clusters/GAP-ML-2020/Only-C1/SD-CG/HFTN-CG
REM
REM
REM
REM
REM
REM ./C.cell (11c1c37f851c82e70ff6c80c92926a4b)
REM AIRSS Version 0.9.1 bugfix July 2018 build 013d7b7c2542+ Fri, 06 Jul 2018 19:26:36 +0100
REM compiler GCC version 9.3.0
REM options -cpp -mtune=generic -march=x86-64 -g -O0
REM seed -437258567 -1032459233 -1133304561 941332124 1939696106 360049980 -477977770 -1120254278 1698713973 -1928910121 -666754901 -880061164 -1688239768 291191158 -675314420 -39336674 622773910 -1888616980 1144731973 -1382135452 -1707757430 1977419690 -150876474 -1192489048 -131258860 -185890048 671930314 2053719605 -1833817846 1955349120 -1494173822 -1709709172 -505156884
REM
CELL 1.54180   50.00000   50.00000   50.00000   90.00000   90.00000   90.00000
LATT -1
SFAC C  
C      1  0.4586220000000  0.4632430000000  0.5390520000000 1.0
C      1  0.4397080000000  0.5269780000000  0.4950210000000 1.0
C      1  0.5539590000000  0.5052950000000  0.5396400000000 1.0
C      1  0.5431890000000  0.5190120000000  0.4882710000000 1.0
C      1  0.5306840000000  0.5511540000000  0.4643370000000 1.0
C      1  0.4978260000000  0.4780230000000  0.5605780000000 1.0
C      1  0.5412180000000  0.5257620000000  0.4590740000000 1.0
C      1  0.4991140000000  0.5746010000000  0.5479090000000 1.0
C      1  0.5286120000000  0.4423630000000  0.4995760000000 1.0
C      1  0.4654030000000  0.5527390000000  0.5125130000000 1.0
C      1  0.5835850000000  0.4916790000000  0.5058030000000 1.0
C      1  0.4498630000000  0.4423390000000  0.4929950000000 1.0
C      1  0.5151270000000  0.4510210000000  0.5228980000000 1.0
C      1  0.5046940000000  0.5558020000000  0.4752700000000 1.0
C      1  0.4711910000000  0.4945470000000  0.5033360000000 1.0
C      1  0.5108870000000  0.4821010000000  0.4794960000000 1.0
C      1  0.4467080000000  0.5007970000000  0.4878710000000 1.0
C      1  0.5356580000000  0.5026050000000  0.4432040000000 1.0
C      1  0.4615240000000  0.4433160000000  0.5174540000000 1.0
C      1  0.4460200000000  0.5340230000000  0.5220530000000 1.0
C      1  0.5169610000000  0.4725960000000  0.5398150000000 1.0
C      1  0.4838700000000  0.5349420000000  0.4733360000000 1.0
C      1  0.4897950000000  0.4469850000000  0.5078370000000 1.0
C      1  0.5125530000000  0.5594610000000  0.5043970000000 1.0
C      1  0.5042860000000  0.4299500000000  0.4882090000000 1.0
C      1  0.5537080000000  0.4758330000000  0.4662580000000 1.0
C      1  0.5294360000000  0.4592690000000  0.4748610000000 1.0
C      1  0.4749460000000  0.5234830000000  0.5581760000000 1.0
C      1  0.4887690000000  0.4771940000000  0.4380030000000 1.0
C      1  0.4542780000000  0.5151380000000  0.5410910000000 1.0
C      1  0.5090510000000  0.5817730000000  0.5251440000000 1.0
C      1  0.5163200000000  0.5255190000000  0.5615110000000 1.0
C      1  0.4619140000000  0.4590220000000  0.4718680000000 1.0
C      1  0.4957620000000  0.5059350000000  0.5671170000000 1.0
C      1  0.5386830000000  0.5492010000000  0.4930380000000 1.0
C      1  0.5069300000000  0.4411170000000  0.4630090000000 1.0
C      1  0.5298260000000  0.4936770000000  0.5256380000000 1.0
C      1  0.4680050000000  0.4980340000000  0.4378900000000 1.0
C      1  0.5640240000000  0.4935650000000  0.4868680000000 1.0
C      1  0.4742780000000  0.4627540000000  0.5614480000000 1.0
C      1  0.4955260000000  0.5436830000000  0.5486060000000 1.0
C      1  0.5428050000000  0.5213980000000  0.5584670000000 1.0
C      1  0.4591200000000  0.5458760000000  0.4853390000000 1.0
C      1  0.4924700000000  0.5169490000000  0.5010360000000 1.0
C      1  0.4861540000000  0.5167230000000  0.4509580000000 1.0
C      1  0.5795060000000  0.4990700000000  0.5304130000000 1.0
C      1  0.5193610000000  0.5031400000000  0.4988700000000 1.0
C      1  0.4584750000000  0.4899370000000  0.5289150000000 1.0
C      1  0.5079350000000  0.4955660000000  0.4517510000000 1.0
C      1  0.4834060000000  0.4524300000000  0.4512640000000 1.0
C      1  0.4443720000000  0.4834380000000  0.4653030000000 1.0
C      1  0.5558250000000  0.4840870000000  0.4398610000000 1.0
C      1  0.4410980000000  0.4917100000000  0.4385830000000 1.0
C      1  0.4927180000000  0.5413290000000  0.5183820000000 1.0
C      1  0.4842440000000  0.4718150000000  0.4903840000000 1.0
END
