TITL C-152512-7924-7 -59.3929363699514 125000 -689.433464883159 0 0 99 (C1) n - 1
REM
REM in /rds/project/t2_vol4/rds-t2-cs072/BORA/CARBON/from-Arr/AIRSS/Generating-Clusters/GAP-ML-2020/Only-C1/SD-CG/HFTN-CG
REM
REM
REM
REM
REM
REM ./C.cell (11c1c37f851c82e70ff6c80c92926a4b)
REM AIRSS Version 0.9.1 bugfix July 2018 build 013d7b7c2542+ Fri, 06 Jul 2018 19:26:36 +0100
REM compiler GCC version 9.3.0
REM options -cpp -mtune=generic -march=x86-64 -g -O0
REM seed 2047076253 -1552547374 -754470193 1649546164 79040711 1780421962 1653618203 -2069929794 -1836883091 1067288315 1993269664 -2041658298 75424469 -1461931194 1056931940 744237525 1513862022 553152301 -1766730994 56725307 1837961447 1805677736 1864826945 186699029 452608768 390144330 1972840136 -2118345038 1628353705 841189528 -158819925 1017848156 -770572712
REM
CELL 1.54180   50.00000   50.00000   50.00000   90.00000   90.00000   90.00000
LATT -1
SFAC C  
C      1  0.4274050000000  0.4342660000000  0.5141150000000 1.0
C      1  0.5242770000000  0.4987650000000  0.5841800000000 1.0
C      1  0.4460340000000  0.4379240000000  0.4727910000000 1.0
C      1  0.5372610000000  0.5180010000000  0.5095810000000 1.0
C      1  0.4543180000000  0.5216830000000  0.5185230000000 1.0
C      1  0.5055570000000  0.5350180000000  0.4800810000000 1.0
C      1  0.4465470000000  0.4602530000000  0.4895340000000 1.0
C      1  0.5699890000000  0.4517380000000  0.4981480000000 1.0
C      1  0.5777130000000  0.4831340000000  0.4587180000000 1.0
C      1  0.4783130000000  0.5020930000000  0.5887070000000 1.0
C      1  0.5298720000000  0.4343570000000  0.4597310000000 1.0
C      1  0.4962110000000  0.4023730000000  0.5182810000000 1.0
C      1  0.5425280000000  0.4893790000000  0.4187710000000 1.0
C      1  0.4748750000000  0.4702490000000  0.5255280000000 1.0
C      1  0.4373230000000  0.5182780000000  0.4727110000000 1.0
C      1  0.4792130000000  0.5621990000000  0.5044730000000 1.0
C      1  0.4455390000000  0.4781370000000  0.5353250000000 1.0
C      1  0.5670290000000  0.5224750000000  0.5127070000000 1.0
C      1  0.4638240000000  0.5058640000000  0.4644680000000 1.0
C      1  0.4818450000000  0.5374150000000  0.4352360000000 1.0
C      1  0.5628480000000  0.5483750000000  0.4472660000000 1.0
C      1  0.4510610000000  0.4711990000000  0.5633890000000 1.0
C      1  0.4279970000000  0.4639270000000  0.5132560000000 1.0
C      1  0.5541770000000  0.5706030000000  0.4635160000000 1.0
C      1  0.4892720000000  0.5875650000000  0.5162170000000 1.0
C      1  0.4532640000000  0.4960840000000  0.5773430000000 1.0
C      1  0.5221200000000  0.5645460000000  0.4313310000000 1.0
C      1  0.4721170000000  0.4506580000000  0.5647630000000 1.0
C      1  0.4726170000000  0.4656850000000  0.4340490000000 1.0
C      1  0.4664390000000  0.5585690000000  0.4766280000000 1.0
C      1  0.5276810000000  0.5179200000000  0.4799120000000 1.0
C      1  0.4847830000000  0.5762950000000  0.4589040000000 1.0
C      1  0.5741390000000  0.5413660000000  0.4925950000000 1.0
C      1  0.5220440000000  0.4928560000000  0.5224650000000 1.0
C      1  0.5081370000000  0.5873050000000  0.4711650000000 1.0
C      1  0.5301680000000  0.5805940000000  0.4537810000000 1.0
C      1  0.4994310000000  0.4826970000000  0.5890970000000 1.0
C      1  0.4746000000000  0.4656710000000  0.4963960000000 1.0
C      1  0.4389920000000  0.5469020000000  0.4786730000000 1.0
C      1  0.4488250000000  0.4232400000000  0.4995780000000 1.0
C      1  0.5344460000000  0.5678720000000  0.5082110000000 1.0
C      1  0.5800550000000  0.5319820000000  0.4654180000000 1.0
C      1  0.5251620000000  0.5427200000000  0.5239450000000 1.0
C      1  0.4270310000000  0.5589040000000  0.5255850000000 1.0
C      1  0.5000210000000  0.4590210000000  0.4261500000000 1.0
C      1  0.5224730000000  0.4294570000000  0.4879750000000 1.0
C      1  0.4846600000000  0.4317500000000  0.4619890000000 1.0
C      1  0.5492640000000  0.4444220000000  0.5550990000000 1.0
C      1  0.5331080000000  0.5359650000000  0.5544190000000 1.0
C      1  0.5746690000000  0.5100040000000  0.5367220000000 1.0
C      1  0.5494590000000  0.4932450000000  0.5723270000000 1.0
C      1  0.4092540000000  0.4852570000000  0.5051060000000 1.0
C      1  0.5066330000000  0.4381220000000  0.4446760000000 1.0
C      1  0.5560930000000  0.5167900000000  0.5572210000000 1.0
C      1  0.4622940000000  0.4439560000000  0.4509710000000 1.0
C      1  0.5077880000000  0.5054890000000  0.4095910000000 1.0
C      1  0.5166250000000  0.5259010000000  0.5761850000000 1.0
C      1  0.5111730000000  0.4831830000000  0.4806760000000 1.0
C      1  0.5904470000000  0.5066080000000  0.4613190000000 1.0
C      1  0.4045550000000  0.5273180000000  0.5028690000000 1.0
C      1  0.5341300000000  0.5175970000000  0.4146820000000 1.0
C      1  0.4688490000000  0.5761680000000  0.5300540000000 1.0
C      1  0.4891530000000  0.5286610000000  0.5841160000000 1.0
C      1  0.4203800000000  0.5507580000000  0.5009070000000 1.0
C      1  0.4793490000000  0.5329490000000  0.4638500000000 1.0
C      1  0.5784570000000  0.4811240000000  0.5380740000000 1.0
C      1  0.5122470000000  0.5848080000000  0.5000770000000 1.0
C      1  0.5185790000000  0.4027070000000  0.5015610000000 1.0
C      1  0.4353410000000  0.5077550000000  0.5363720000000 1.0
C      1  0.5492780000000  0.4807860000000  0.4459480000000 1.0
C      1  0.5400790000000  0.4456740000000  0.5066300000000 1.0
C      1  0.4910150000000  0.4386750000000  0.4905170000000 1.0
C      1  0.5160920000000  0.4780040000000  0.4126820000000 1.0
C      1  0.5605770000000  0.4692800000000  0.5591100000000 1.0
C      1  0.4936620000000  0.5629360000000  0.4344780000000 1.0
C      1  0.5249220000000  0.4722200000000  0.5042830000000 1.0
C      1  0.5214490000000  0.4083880000000  0.5297620000000 1.0
C      1  0.4141110000000  0.5065070000000  0.4848660000000 1.0
C      1  0.4914250000000  0.4569900000000  0.5826810000000 1.0
C      1  0.4070110000000  0.5078380000000  0.5235440000000 1.0
C      1  0.4941100000000  0.4944890000000  0.5305020000000 1.0
C      1  0.4832670000000  0.5124040000000  0.4218190000000 1.0
C      1  0.4766380000000  0.4441540000000  0.5368180000000 1.0
C      1  0.5732130000000  0.4567160000000  0.4704900000000 1.0
C      1  0.5837590000000  0.4658520000000  0.5165980000000 1.0
C      1  0.5573220000000  0.5649490000000  0.4913670000000 1.0
C      1  0.5378410000000  0.4319810000000  0.5337030000000 1.0
C      1  0.4684560000000  0.4935190000000  0.4370490000000 1.0
C      1  0.4710220000000  0.5491530000000  0.5831680000000 1.0
C      1  0.4970940000000  0.5384000000000  0.5084660000000 1.0
C      1  0.5419760000000  0.5428710000000  0.4261880000000 1.0
C      1  0.4502260000000  0.5450890000000  0.5661300000000 1.0
C      1  0.4829210000000  0.4917260000000  0.4860110000000 1.0
C      1  0.4810040000000  0.5135280000000  0.5128620000000 1.0
C      1  0.4412480000000  0.5177690000000  0.5631400000000 1.0
C      1  0.5508430000000  0.4512130000000  0.4534520000000 1.0
C      1  0.5275670000000  0.4957620000000  0.4629630000000 1.0
C      1  0.4767440000000  0.4238370000000  0.5135470000000 1.0
C      1  0.4470440000000  0.5631350000000  0.5431460000000 1.0
END
