TITL C-152512-7924-1 -0.447542058841267 125000 -921.045589346901 0 0 131 (C1) n - 1
REM
REM in /rds/project/t2_vol4/rds-t2-cs072/BORA/CARBON/from-Arr/AIRSS/Generating-Clusters/GAP-ML-2020/Only-C1/SD-CG/HFTN-CG
REM
REM
REM
REM
REM
REM ./C.cell (11c1c37f851c82e70ff6c80c92926a4b)
REM AIRSS Version 0.9.1 bugfix July 2018 build 013d7b7c2542+ Fri, 06 Jul 2018 19:26:36 +0100
REM compiler GCC version 9.3.0
REM options -cpp -mtune=generic -march=x86-64 -g -O0
REM seed 904543351 -297871561 1837895362 1790576826 -776208872 -2103761749 1537728910 1601903151 -2011912929 -725144256 2054779728 722019416 841305058 -342027763 -1977506658 -65991620 1264817665 1647806940 -1466972790 -1469671436 838546314 -522671108 1826722741 1228027708 1457970770 1345511344 1721719774 1163326240 -515336096 1799471224 1419868522 -354739230 -1854797171
REM
CELL 1.54180   50.00000   50.00000   50.00000   90.00000   90.00000   90.00000
LATT -1
SFAC C  
C      1  0.5736150000000  0.5245320000000  0.4933860000000 1.0
C      1  0.5250630000000  0.5793920000000  0.5479240000000 1.0
C      1  0.4284040000000  0.4338660000000  0.4691930000000 1.0
C      1  0.5213390000000  0.4264170000000  0.5625950000000 1.0
C      1  0.4563930000000  0.4362830000000  0.5489750000000 1.0
C      1  0.4274100000000  0.5210560000000  0.5435990000000 1.0
C      1  0.4509450000000  0.4893360000000  0.4788580000000 1.0
C      1  0.4430840000000  0.4557420000000  0.5664210000000 1.0
C      1  0.4273780000000  0.4762380000000  0.5559180000000 1.0
C      1  0.4838310000000  0.4437440000000  0.4497640000000 1.0
C      1  0.4725100000000  0.5261530000000  0.4936440000000 1.0
C      1  0.5410800000000  0.4637330000000  0.4384280000000 1.0
C      1  0.4125540000000  0.4548700000000  0.4546180000000 1.0
C      1  0.5259690000000  0.4529430000000  0.5125370000000 1.0
C      1  0.5780320000000  0.5374220000000  0.4668250000000 1.0
C      1  0.4259790000000  0.4682670000000  0.4330270000000 1.0
C      1  0.4210320000000  0.5250860000000  0.4745210000000 1.0
C      1  0.4709200000000  0.4062030000000  0.4720220000000 1.0
C      1  0.5596070000000  0.5327010000000  0.5568640000000 1.0
C      1  0.5124100000000  0.5981580000000  0.5293170000000 1.0
C      1  0.4299410000000  0.4785710000000  0.5255430000000 1.0
C      1  0.5394150000000  0.5162340000000  0.4946540000000 1.0
C      1  0.4453740000000  0.5425910000000  0.5479830000000 1.0
C      1  0.5231150000000  0.4682190000000  0.4640280000000 1.0
C      1  0.5284010000000  0.6006710000000  0.5040920000000 1.0
C      1  0.5421890000000  0.5495960000000  0.4248690000000 1.0
C      1  0.5582680000000  0.4614340000000  0.5576470000000 1.0
C      1  0.4806940000000  0.5125040000000  0.4141950000000 1.0
C      1  0.5499380000000  0.4715110000000  0.5121700000000 1.0
C      1  0.4584070000000  0.5859830000000  0.4841670000000 1.0
C      1  0.4228870000000  0.5509860000000  0.4854660000000 1.0
C      1  0.4759940000000  0.4209960000000  0.5619710000000 1.0
C      1  0.4651260000000  0.4360460000000  0.5024750000000 1.0
C      1  0.5885140000000  0.4988620000000  0.4985020000000 1.0
C      1  0.4594600000000  0.4354970000000  0.4363870000000 1.0
C      1  0.5510520000000  0.5764290000000  0.5363220000000 1.0
C      1  0.5436320000000  0.5072510000000  0.5477390000000 1.0
C      1  0.3899520000000  0.4654990000000  0.4664960000000 1.0
C      1  0.5667100000000  0.5529140000000  0.5369110000000 1.0
C      1  0.4945660000000  0.5354370000000  0.5664740000000 1.0
C      1  0.5436750000000  0.4827570000000  0.5720510000000 1.0
C      1  0.4711680000000  0.4980450000000  0.5402600000000 1.0
C      1  0.5998750000000  0.5034850000000  0.5684950000000 1.0
C      1  0.5531310000000  0.5883450000000  0.5104370000000 1.0
C      1  0.5182180000000  0.4723800000000  0.5845020000000 1.0
C      1  0.5073870000000  0.5181370000000  0.5877360000000 1.0
C      1  0.4618790000000  0.5882930000000  0.5313760000000 1.0
C      1  0.5832210000000  0.4806360000000  0.4771350000000 1.0
C      1  0.5622380000000  0.4809100000000  0.4319220000000 1.0
C      1  0.4193000000000  0.4613610000000  0.5054030000000 1.0
C      1  0.5168620000000  0.5447860000000  0.4114890000000 1.0
C      1  0.5707210000000  0.4698240000000  0.5327160000000 1.0
C      1  0.5061140000000  0.4967120000000  0.5225610000000 1.0
C      1  0.5455480000000  0.5695840000000  0.4457010000000 1.0
C      1  0.4557780000000  0.4957460000000  0.4070210000000 1.0
C      1  0.5035800000000  0.4655980000000  0.5275420000000 1.0
C      1  0.4559990000000  0.5403410000000  0.4449480000000 1.0
C      1  0.5593690000000  0.5268120000000  0.4246710000000 1.0
C      1  0.4490870000000  0.4189940000000  0.4574700000000 1.0
C      1  0.5216790000000  0.4964440000000  0.4765360000000 1.0
C      1  0.4728860000000  0.5397610000000  0.4224930000000 1.0
C      1  0.5673800000000  0.4586430000000  0.4874840000000 1.0
C      1  0.5083300000000  0.5177580000000  0.4035330000000 1.0
C      1  0.4302380000000  0.5026990000000  0.5658320000000 1.0
C      1  0.4859560000000  0.4958900000000  0.4422920000000 1.0
C      1  0.5778730000000  0.5202260000000  0.4456780000000 1.0
C      1  0.4057950000000  0.5052590000000  0.4927980000000 1.0
C      1  0.5924510000000  0.4871840000000  0.5252770000000 1.0
C      1  0.4628830000000  0.4612460000000  0.5855320000000 1.0
C      1  0.5795640000000  0.4919710000000  0.4512890000000 1.0
C      1  0.5547810000000  0.5036600000000  0.5906330000000 1.0
C      1  0.5646110000000  0.4312250000000  0.4865690000000 1.0
C      1  0.4939760000000  0.5588220000000  0.4225420000000 1.0
C      1  0.4396840000000  0.5666270000000  0.4981500000000 1.0
C      1  0.4742730000000  0.5737860000000  0.4639660000000 1.0
C      1  0.5146820000000  0.4482160000000  0.4847270000000 1.0
C      1  0.5396680000000  0.5445280000000  0.5757810000000 1.0
C      1  0.4851670000000  0.6027970000000  0.5277800000000 1.0
C      1  0.4585550000000  0.4937290000000  0.4522520000000 1.0
C      1  0.5361500000000  0.5008380000000  0.5206080000000 1.0
C      1  0.4830600000000  0.4523350000000  0.4825510000000 1.0
C      1  0.5510630000000  0.4141520000000  0.5036290000000 1.0
C      1  0.5079340000000  0.5521000000000  0.5114650000000 1.0
C      1  0.4240390000000  0.5067020000000  0.5169810000000 1.0
C      1  0.5771300000000  0.5157510000000  0.5764070000000 1.0
C      1  0.5758440000000  0.5491320000000  0.5101100000000 1.0
C      1  0.4538240000000  0.4699730000000  0.3981300000000 1.0
C      1  0.4995270000000  0.4048330000000  0.5182890000000 1.0
C      1  0.5169810000000  0.5578790000000  0.5655570000000 1.0
C      1  0.4733560000000  0.4788610000000  0.4920370000000 1.0
C      1  0.5520300000000  0.5015850000000  0.4143460000000 1.0
C      1  0.4020890000000  0.4773710000000  0.4877940000000 1.0
C      1  0.5047630000000  0.5371910000000  0.4668380000000 1.0
C      1  0.4531400000000  0.5103640000000  0.5813070000000 1.0
C      1  0.5259010000000  0.4952530000000  0.4058150000000 1.0
C      1  0.5680650000000  0.5712870000000  0.4935180000000 1.0
C      1  0.5660600000000  0.5633870000000  0.4657550000000 1.0
C      1  0.4633700000000  0.5352880000000  0.5701090000000 1.0
C      1  0.5201250000000  0.4702040000000  0.4194760000000 1.0
C      1  0.4440750000000  0.5142000000000  0.4939280000000 1.0
C      1  0.4733380000000  0.4519390000000  0.5269680000000 1.0
C      1  0.4675200000000  0.6015440000000  0.5060290000000 1.0
C      1  0.4941050000000  0.4161220000000  0.4590600000000 1.0
C      1  0.5159590000000  0.4201190000000  0.4762560000000 1.0
C      1  0.5071710000000  0.5109740000000  0.4576870000000 1.0
C      1  0.4952260000000  0.5784060000000  0.4436760000000 1.0
C      1  0.4553770000000  0.5597020000000  0.5260990000000 1.0
C      1  0.4444970000000  0.4523310000000  0.4181810000000 1.0
C      1  0.4374310000000  0.4962960000000  0.4316750000000 1.0
C      1  0.4997250000000  0.4124890000000  0.5469830000000 1.0
C      1  0.4901390000000  0.5185880000000  0.5377310000000 1.0
C      1  0.4745940000000  0.4085130000000  0.5014630000000 1.0
C      1  0.5465290000000  0.4349700000000  0.5524170000000 1.0
C      1  0.5341730000000  0.5233480000000  0.5931790000000 1.0
C      1  0.5098950000000  0.4450180000000  0.5818550000000 1.0
C      1  0.5219360000000  0.5857860000000  0.4544720000000 1.0
C      1  0.4612780000000  0.4780150000000  0.5222120000000 1.0
C      1  0.4818880000000  0.5411870000000  0.5175290000000 1.0
C      1  0.5212450000000  0.5401830000000  0.4913560000000 1.0
C      1  0.6095440000000  0.4935730000000  0.5465950000000 1.0
C      1  0.4349730000000  0.4402400000000  0.4954460000000 1.0
C      1  0.5206500000000  0.5995710000000  0.4780990000000 1.0
C      1  0.4752650000000  0.5440310000000  0.4688480000000 1.0
C      1  0.4983870000000  0.4919350000000  0.5909970000000 1.0
C      1  0.5228270000000  0.4050940000000  0.4996790000000 1.0
C      1  0.4336520000000  0.5221720000000  0.4468280000000 1.0
C      1  0.4701820000000  0.4883980000000  0.5902610000000 1.0
C      1  0.4992130000000  0.4679620000000  0.4408900000000 1.0
C      1  0.4823100000000  0.4400620000000  0.5826670000000 1.0
C      1  0.5441260000000  0.4299950000000  0.5249060000000 1.0
C      1  0.4935440000000  0.5001600000000  0.4942020000000 1.0
END
