TITL C-151874-9560-1 23.929954286797 125000 -784.531250191267 0 0 112 (C1) n - 1
REM
REM in /rds/project/t2_vol4/rds-t2-cs072/BORA/CARBON/from-Arr/AIRSS/Generating-Clusters/GAP-ML-2020/Only-C1/SD-CG/HFTN-CG
REM
REM
REM
REM
REM
REM ./C.cell (11c1c37f851c82e70ff6c80c92926a4b)
REM AIRSS Version 0.9.1 bugfix July 2018 build 013d7b7c2542+ Fri, 06 Jul 2018 19:26:36 +0100
REM compiler GCC version 9.3.0
REM options -cpp -mtune=generic -march=x86-64 -g -O0
REM seed 2006335683 -1742071654 -579458823 -906766881 2020609520 -1024880886 949170576 627682084 592354566 -2010186004 -1099354186 1885530608 507987235 -1586266145 -1869378725 1452454749 1937599400 1328636536 -1690576382 -186252328 1743702507 -1728358973 -453778305 -352343710 -575205346 -1213483182 1319190627 -377286814 -1276241422 1907478433 1855863986 -1659737642 1068165551
REM
CELL 1.54180   50.00000   50.00000   50.00000   90.00000   90.00000   90.00000
LATT -1
SFAC C  
C      1  0.5498490000000  0.4502140000000  0.4336700000000 1.0
C      1  0.5657580000000  0.5367340000000  0.4905250000000 1.0
C      1  0.4135730000000  0.4693930000000  0.4969780000000 1.0
C      1  0.5323950000000  0.4987370000000  0.4996150000000 1.0
C      1  0.4714620000000  0.4544630000000  0.4315120000000 1.0
C      1  0.4307860000000  0.4796880000000  0.4485540000000 1.0
C      1  0.4339390000000  0.4655790000000  0.4747130000000 1.0
C      1  0.4831220000000  0.4211230000000  0.5315740000000 1.0
C      1  0.5297820000000  0.5111460000000  0.4732090000000 1.0
C      1  0.5047100000000  0.4739270000000  0.5930630000000 1.0
C      1  0.4351670000000  0.5284410000000  0.4443800000000 1.0
C      1  0.4654780000000  0.5876690000000  0.5142790000000 1.0
C      1  0.4745120000000  0.5706230000000  0.4508310000000 1.0
C      1  0.5525080000000  0.4602370000000  0.5836270000000 1.0
C      1  0.5630690000000  0.4805930000000  0.5406440000000 1.0
C      1  0.4930470000000  0.5436630000000  0.5170610000000 1.0
C      1  0.4462750000000  0.5775830000000  0.4954120000000 1.0
C      1  0.5154020000000  0.4242650000000  0.4497070000000 1.0
C      1  0.5455520000000  0.5629570000000  0.4356030000000 1.0
C      1  0.4976860000000  0.4991060000000  0.5778550000000 1.0
C      1  0.4838450000000  0.5259070000000  0.5795450000000 1.0
C      1  0.4523600000000  0.4266910000000  0.4983000000000 1.0
C      1  0.5293300000000  0.5354550000000  0.5726280000000 1.0
C      1  0.5112360000000  0.5327610000000  0.4746160000000 1.0
C      1  0.4657360000000  0.4340670000000  0.4517670000000 1.0
C      1  0.4538980000000  0.4912220000000  0.4882840000000 1.0
C      1  0.4981050000000  0.5171300000000  0.5252940000000 1.0
C      1  0.4406490000000  0.5552570000000  0.5363270000000 1.0
C      1  0.4925570000000  0.4661240000000  0.4983570000000 1.0
C      1  0.4845700000000  0.5236780000000  0.4767600000000 1.0
C      1  0.4767030000000  0.5488760000000  0.4309570000000 1.0
C      1  0.5647510000000  0.4554670000000  0.5585950000000 1.0
C      1  0.4953170000000  0.4772570000000  0.4725800000000 1.0
C      1  0.4080300000000  0.5124400000000  0.4791600000000 1.0
C      1  0.4418610000000  0.4388730000000  0.5224270000000 1.0
C      1  0.4313010000000  0.4819880000000  0.5412330000000 1.0
C      1  0.5638170000000  0.4665050000000  0.5130970000000 1.0
C      1  0.5352260000000  0.5852530000000  0.5277650000000 1.0
C      1  0.4329340000000  0.5482070000000  0.4643130000000 1.0
C      1  0.4916030000000  0.5644160000000  0.5463890000000 1.0
C      1  0.4552960000000  0.5228610000000  0.5750660000000 1.0
C      1  0.5138470000000  0.4588000000000  0.5169430000000 1.0
C      1  0.4248790000000  0.4618160000000  0.5222920000000 1.0
C      1  0.5037160000000  0.5439520000000  0.4240930000000 1.0
C      1  0.5161610000000  0.5177810000000  0.4186580000000 1.0
C      1  0.4434500000000  0.5084680000000  0.5319280000000 1.0
C      1  0.4873800000000  0.4826610000000  0.5534280000000 1.0
C      1  0.4455390000000  0.5168720000000  0.5028380000000 1.0
C      1  0.5329070000000  0.4777840000000  0.5905970000000 1.0
C      1  0.5476600000000  0.5599860000000  0.5337010000000 1.0
C      1  0.5358710000000  0.5912790000000  0.5009800000000 1.0
C      1  0.5645240000000  0.4336510000000  0.5391260000000 1.0
C      1  0.4762380000000  0.4977910000000  0.5313260000000 1.0
C      1  0.5112610000000  0.5825050000000  0.4871600000000 1.0
C      1  0.4987960000000  0.4618720000000  0.4243030000000 1.0
C      1  0.5272530000000  0.5121880000000  0.5233800000000 1.0
C      1  0.4750610000000  0.4980210000000  0.4677800000000 1.0
C      1  0.5166220000000  0.5516560000000  0.4969210000000 1.0
C      1  0.4502090000000  0.5706480000000  0.4672110000000 1.0
C      1  0.5811130000000  0.5050790000000  0.5371810000000 1.0
C      1  0.5425770000000  0.5419340000000  0.5110110000000 1.0
C      1  0.4539260000000  0.4767300000000  0.4316550000000 1.0
C      1  0.4596600000000  0.5265860000000  0.4304650000000 1.0
C      1  0.5347960000000  0.4930660000000  0.5463870000000 1.0
C      1  0.5274730000000  0.5050490000000  0.5734200000000 1.0
C      1  0.4297500000000  0.5583400000000  0.5094980000000 1.0
C      1  0.5268550000000  0.4172450000000  0.4765270000000 1.0
C      1  0.5594330000000  0.4505900000000  0.4629350000000 1.0
C      1  0.5533940000000  0.5448020000000  0.5580180000000 1.0
C      1  0.5013690000000  0.5788020000000  0.4577180000000 1.0
C      1  0.4981870000000  0.4107380000000  0.4845440000000 1.0
C      1  0.5636680000000  0.4354730000000  0.5118950000000 1.0
C      1  0.4681640000000  0.4575870000000  0.5631840000000 1.0
C      1  0.5076810000000  0.4323410000000  0.5354920000000 1.0
C      1  0.5183260000000  0.5657400000000  0.4375290000000 1.0
C      1  0.5613520000000  0.4945000000000  0.4284410000000 1.0
C      1  0.5364160000000  0.4705160000000  0.5004870000000 1.0
C      1  0.4720510000000  0.4997650000000  0.4348440000000 1.0
C      1  0.4415630000000  0.5307700000000  0.5503310000000 1.0
C      1  0.5621270000000  0.4688030000000  0.4185480000000 1.0
C      1  0.5585450000000  0.5226770000000  0.4652390000000 1.0
C      1  0.4929210000000  0.5924410000000  0.5097490000000 1.0
C      1  0.5526230000000  0.4279730000000  0.4854180000000 1.0
C      1  0.4711950000000  0.4795740000000  0.5094020000000 1.0
C      1  0.5745640000000  0.5283080000000  0.5500530000000 1.0
C      1  0.5783440000000  0.4746670000000  0.4691330000000 1.0
C      1  0.5109560000000  0.4451600000000  0.5605920000000 1.0
C      1  0.5070210000000  0.5860870000000  0.5338410000000 1.0
C      1  0.5549010000000  0.5379260000000  0.4391390000000 1.0
C      1  0.5137520000000  0.4714690000000  0.5444870000000 1.0
C      1  0.4632040000000  0.5732010000000  0.5390360000000 1.0
C      1  0.5836020000000  0.4798000000000  0.4961370000000 1.0
C      1  0.4715770000000  0.5336710000000  0.4991820000000 1.0
C      1  0.5015920000000  0.5466900000000  0.5702810000000 1.0
C      1  0.4780440000000  0.4140620000000  0.5044390000000 1.0
C      1  0.5447770000000  0.5174440000000  0.4217350000000 1.0
C      1  0.5923060000000  0.5040810000000  0.5094370000000 1.0
C      1  0.5191910000000  0.4866850000000  0.4585560000000 1.0
C      1  0.4885620000000  0.4188100000000  0.4583870000000 1.0
C      1  0.4209660000000  0.5058570000000  0.4537020000000 1.0
C      1  0.5212540000000  0.4436380000000  0.4303770000000 1.0
C      1  0.4242170000000  0.5357900000000  0.4899240000000 1.0
C      1  0.3984260000000  0.4918460000000  0.4935710000000 1.0
C      1  0.5899200000000  0.5285920000000  0.4979120000000 1.0
C      1  0.5726400000000  0.4979080000000  0.4542990000000 1.0
C      1  0.4916440000000  0.4508650000000  0.5814620000000 1.0
C      1  0.5350090000000  0.4648240000000  0.4716680000000 1.0
C      1  0.4435810000000  0.4752800000000  0.5665520000000 1.0
C      1  0.4473830000000  0.4397400000000  0.4733300000000 1.0
C      1  0.4490090000000  0.4970000000000  0.5814830000000 1.0
C      1  0.5019170000000  0.4928120000000  0.4291320000000 1.0
C      1  0.4619040000000  0.4363560000000  0.5432970000000 1.0
END
