TITL C-154596-4072-3 85.1507244149921 125000 -645.543401537519 0 0 92 (C1) n - 1
REM
REM in /rds/project/t2_vol4/rds-t2-cs072/BORA/CARBON/from-Arr/AIRSS/Generating-Clusters/GAP-ML-2020/Only-C1/SD-CG/HFTN-CG
REM
REM
REM
REM
REM
REM ./C.cell (11c1c37f851c82e70ff6c80c92926a4b)
REM AIRSS Version 0.9.1 bugfix July 2018 build 013d7b7c2542+ Fri, 06 Jul 2018 19:26:36 +0100
REM compiler GCC version 9.3.0
REM options -cpp -mtune=generic -march=x86-64 -g -O0
REM seed 1318248388 326144960 -1205759925 -297894203 1016079444 577687848 -1623982764 9207412 1799941499 -1033685495 354268965 435625377 1119976622 -1222581166 -87009207 40689655 1135637057 558812305 -1693523055 1356274157 -922606007 -1848187310 -1258972892 -908252386 -1356798388 609746879 -1948275968 -1479217547 -1182873319 1962843551 905176305 -2024803874 -1045282891
REM
CELL 1.54180   50.00000   50.00000   50.00000   90.00000   90.00000   90.00000
LATT -1
SFAC C  
C      1  0.5409800000000  0.4956050000000  0.5672860000000 1.0
C      1  0.5784640000000  0.4846410000000  0.4665980000000 1.0
C      1  0.4733020000000  0.4891150000000  0.4789840000000 1.0
C      1  0.4943190000000  0.4755870000000  0.5167700000000 1.0
C      1  0.5239020000000  0.4259700000000  0.5271830000000 1.0
C      1  0.5062190000000  0.5729740000000  0.4664500000000 1.0
C      1  0.5433260000000  0.5463480000000  0.4570970000000 1.0
C      1  0.4805330000000  0.4376700000000  0.4562400000000 1.0
C      1  0.5219150000000  0.4267600000000  0.4766570000000 1.0
C      1  0.4578490000000  0.5258310000000  0.5742530000000 1.0
C      1  0.4673890000000  0.4290880000000  0.4804240000000 1.0
C      1  0.4772550000000  0.5251110000000  0.4099470000000 1.0
C      1  0.5199540000000  0.4528640000000  0.5585450000000 1.0
C      1  0.5336720000000  0.4970110000000  0.5084600000000 1.0
C      1  0.5432940000000  0.4936210000000  0.4380860000000 1.0
C      1  0.5627140000000  0.4481330000000  0.4884080000000 1.0
C      1  0.5443770000000  0.4658350000000  0.4418090000000 1.0
C      1  0.4455410000000  0.5015490000000  0.5795700000000 1.0
C      1  0.5351030000000  0.4488850000000  0.4882990000000 1.0
C      1  0.5724490000000  0.5304300000000  0.4913700000000 1.0
C      1  0.4271800000000  0.5031370000000  0.5242770000000 1.0
C      1  0.5080130000000  0.4327240000000  0.4532250000000 1.0
C      1  0.4401010000000  0.5544920000000  0.5294430000000 1.0
C      1  0.5357910000000  0.5241160000000  0.5714270000000 1.0
C      1  0.4771240000000  0.5709020000000  0.4662180000000 1.0
C      1  0.5871180000000  0.4846310000000  0.4942980000000 1.0
C      1  0.4550260000000  0.4980730000000  0.5227390000000 1.0
C      1  0.5048570000000  0.5149140000000  0.4646620000000 1.0
C      1  0.5397970000000  0.5642840000000  0.5138370000000 1.0
C      1  0.4903360000000  0.5601190000000  0.5083880000000 1.0
C      1  0.4320210000000  0.5304270000000  0.4830880000000 1.0
C      1  0.4332420000000  0.4405620000000  0.5124080000000 1.0
C      1  0.5866990000000  0.5090350000000  0.5069510000000 1.0
C      1  0.4224800000000  0.4771920000000  0.5367300000000 1.0
C      1  0.5646230000000  0.5495570000000  0.5115320000000 1.0
C      1  0.4177470000000  0.4790690000000  0.4895830000000 1.0
C      1  0.5175670000000  0.4779700000000  0.5712050000000 1.0
C      1  0.5191140000000  0.4540790000000  0.4369880000000 1.0
C      1  0.5221570000000  0.5105340000000  0.5294890000000 1.0
C      1  0.5173480000000  0.4752310000000  0.4976330000000 1.0
C      1  0.5024140000000  0.4322980000000  0.5453620000000 1.0
C      1  0.5165770000000  0.5606330000000  0.4933050000000 1.0
C      1  0.4970330000000  0.4995760000000  0.5353660000000 1.0
C      1  0.5058550000000  0.5233040000000  0.4151130000000 1.0
C      1  0.4830590000000  0.4210940000000  0.5039400000000 1.0
C      1  0.4765890000000  0.4277600000000  0.5315830000000 1.0
C      1  0.4747670000000  0.5167450000000  0.5271030000000 1.0
C      1  0.5113350000000  0.4190860000000  0.5016190000000 1.0
C      1  0.5092730000000  0.5593670000000  0.5542100000000 1.0
C      1  0.4996890000000  0.4736060000000  0.4324700000000 1.0
C      1  0.5072700000000  0.5511980000000  0.4245990000000 1.0
C      1  0.5253440000000  0.5329940000000  0.4775560000000 1.0
C      1  0.4609900000000  0.5646930000000  0.5446610000000 1.0
C      1  0.4783510000000  0.5510280000000  0.4237770000000 1.0
C      1  0.4906110000000  0.4917400000000  0.5675110000000 1.0
C      1  0.5641510000000  0.4607270000000  0.4624850000000 1.0
C      1  0.5230410000000  0.5630300000000  0.4446630000000 1.0
C      1  0.4684460000000  0.4795750000000  0.5054420000000 1.0
C      1  0.5095720000000  0.5360660000000  0.5724680000000 1.0
C      1  0.4165780000000  0.4633820000000  0.5136990000000 1.0
C      1  0.5682900000000  0.5329450000000  0.4607650000000 1.0
C      1  0.5418060000000  0.4461700000000  0.5403100000000 1.0
C      1  0.4868020000000  0.5199600000000  0.5766010000000 1.0
C      1  0.4459210000000  0.5493680000000  0.5015200000000 1.0
C      1  0.4767370000000  0.5195430000000  0.4761480000000 1.0
C      1  0.5137280000000  0.5027530000000  0.4348820000000 1.0
C      1  0.4332200000000  0.4640040000000  0.4710570000000 1.0
C      1  0.4668000000000  0.5698820000000  0.4919940000000 1.0
C      1  0.5667940000000  0.5057600000000  0.4509700000000 1.0
C      1  0.4878300000000  0.5658490000000  0.5371390000000 1.0
C      1  0.4568780000000  0.5083240000000  0.4143900000000 1.0
C      1  0.4509190000000  0.4398130000000  0.5361720000000 1.0
C      1  0.5780010000000  0.5095800000000  0.5344840000000 1.0
C      1  0.5431300000000  0.5144070000000  0.4900650000000 1.0
C      1  0.5509360000000  0.5429640000000  0.5556850000000 1.0
C      1  0.4484510000000  0.5047980000000  0.4401350000000 1.0
C      1  0.4630240000000  0.5542210000000  0.4472830000000 1.0
C      1  0.4762150000000  0.5327180000000  0.5033330000000 1.0
C      1  0.4200470000000  0.5076940000000  0.4957530000000 1.0
C      1  0.5344490000000  0.5623190000000  0.5422480000000 1.0
C      1  0.4441280000000  0.4631260000000  0.5527290000000 1.0
C      1  0.5032310000000  0.4859210000000  0.4747380000000 1.0
C      1  0.4742800000000  0.4615670000000  0.4417510000000 1.0
C      1  0.4509690000000  0.5288900000000  0.4591770000000 1.0
C      1  0.5640460000000  0.4886470000000  0.5492830000000 1.0
C      1  0.4608010000000  0.4799460000000  0.5705460000000 1.0
C      1  0.4535100000000  0.4786460000000  0.4542040000000 1.0
C      1  0.4421040000000  0.4399670000000  0.4850640000000 1.0
C      1  0.5697310000000  0.5361170000000  0.5370000000000 1.0
C      1  0.5763880000000  0.4624850000000  0.5087630000000 1.0
C      1  0.5640430000000  0.4634940000000  0.5348880000000 1.0
C      1  0.4449490000000  0.5461490000000  0.5574350000000 1.0
END
