TITL C-158487-1894-2 -0.00867724121724418 125000 -814.993917259308 0 0 115 (C1) n - 1
REM
REM in /rds/project/t2_vol4/rds-t2-cs072/BORA/CARBON/from-Arr/AIRSS/Generating-Clusters/GAP-ML-2020/Only-C1/SD-CG/HFTN-CG
REM
REM
REM
REM
REM
REM ./C.cell (11c1c37f851c82e70ff6c80c92926a4b)
REM AIRSS Version 0.9.1 bugfix July 2018 build 013d7b7c2542+ Fri, 06 Jul 2018 19:26:36 +0100
REM compiler GCC version 9.3.0
REM options -cpp -mtune=generic -march=x86-64 -g -O0
REM seed -682531768 -428094887 -1850157557 -1932430242 -2042878474 490182337 -1933469320 888433250 -1963684646 -1195123998 1517190223 -1401075259 1904286923 -1611903110 -752231185 -71804175 -1395352586 1066963225 1005301998 266984191 -2063562644 -1772240247 662418956 396862098 -1094032289 -1978879255 -2060057932 1508061555 -458221297 -66434147 653526810 1767245882 1755711357
REM
CELL 1.54180   50.00000   50.00000   50.00000   90.00000   90.00000   90.00000
LATT -1
SFAC C  
C      1  0.4994280000000  0.5361470000000  0.4111230000000 1.0
C      1  0.4365820000000  0.5567390000000  0.5294940000000 1.0
C      1  0.5596100000000  0.4323160000000  0.5021510000000 1.0
C      1  0.4393400000000  0.4767620000000  0.5317070000000 1.0
C      1  0.4591230000000  0.5724370000000  0.5392270000000 1.0
C      1  0.5520500000000  0.5235960000000  0.5316910000000 1.0
C      1  0.4502660000000  0.4570430000000  0.4352340000000 1.0
C      1  0.4877000000000  0.4232490000000  0.4430430000000 1.0
C      1  0.5497620000000  0.5688990000000  0.5215050000000 1.0
C      1  0.5881730000000  0.5185000000000  0.4915830000000 1.0
C      1  0.5206220000000  0.4714730000000  0.4860190000000 1.0
C      1  0.4428120000000  0.5687070000000  0.4812310000000 1.0
C      1  0.4889180000000  0.4552060000000  0.5218530000000 1.0
C      1  0.3951360000000  0.5150800000000  0.5052580000000 1.0
C      1  0.5021800000000  0.5087730000000  0.4575780000000 1.0
C      1  0.4365150000000  0.5239990000000  0.4722510000000 1.0
C      1  0.5115830000000  0.4814180000000  0.4096150000000 1.0
C      1  0.4772130000000  0.5794310000000  0.5165290000000 1.0
C      1  0.4965580000000  0.5730930000000  0.4462820000000 1.0
C      1  0.4996160000000  0.4129760000000  0.4672650000000 1.0
C      1  0.5494230000000  0.5303540000000  0.4444040000000 1.0
C      1  0.5473790000000  0.4935990000000  0.5761210000000 1.0
C      1  0.4844950000000  0.4243730000000  0.5148300000000 1.0
C      1  0.5802590000000  0.4638480000000  0.4744070000000 1.0
C      1  0.5138840000000  0.4316590000000  0.5532180000000 1.0
C      1  0.5121240000000  0.5902800000000  0.4870470000000 1.0
C      1  0.4385170000000  0.5260600000000  0.5288340000000 1.0
C      1  0.5363310000000  0.4958950000000  0.4835970000000 1.0
C      1  0.4948720000000  0.5066050000000  0.4086170000000 1.0
C      1  0.5091830000000  0.5517090000000  0.5432490000000 1.0
C      1  0.4339280000000  0.4761320000000  0.4494820000000 1.0
C      1  0.4804240000000  0.4152180000000  0.4875500000000 1.0
C      1  0.5712660000000  0.4576290000000  0.5478020000000 1.0
C      1  0.4866380000000  0.5500070000000  0.5199390000000 1.0
C      1  0.5138420000000  0.4183510000000  0.5260750000000 1.0
C      1  0.5350330000000  0.5775270000000  0.4755460000000 1.0
C      1  0.5433160000000  0.4305530000000  0.4569660000000 1.0
C      1  0.4667290000000  0.4700260000000  0.4159750000000 1.0
C      1  0.4664780000000  0.5258420000000  0.5173650000000 1.0
C      1  0.5563110000000  0.5661750000000  0.4930040000000 1.0
C      1  0.4157960000000  0.4722120000000  0.5147760000000 1.0
C      1  0.5055320000000  0.5891970000000  0.5139650000000 1.0
C      1  0.4381770000000  0.4726380000000  0.4768580000000 1.0
C      1  0.4610550000000  0.4332820000000  0.4489850000000 1.0
C      1  0.4931460000000  0.4599260000000  0.4116410000000 1.0
C      1  0.5739120000000  0.5047440000000  0.5366950000000 1.0
C      1  0.4912300000000  0.5258340000000  0.4773860000000 1.0
C      1  0.4564610000000  0.4245720000000  0.4763560000000 1.0
C      1  0.5262910000000  0.4156410000000  0.4752280000000 1.0
C      1  0.5617250000000  0.4386360000000  0.5650970000000 1.0
C      1  0.5336920000000  0.4177430000000  0.5038270000000 1.0
C      1  0.5749460000000  0.5451850000000  0.4839090000000 1.0
C      1  0.4704340000000  0.4789810000000  0.5156040000000 1.0
C      1  0.5030510000000  0.5427700000000  0.4964420000000 1.0
C      1  0.5352350000000  0.4433770000000  0.5701620000000 1.0
C      1  0.5314470000000  0.4427590000000  0.4328890000000 1.0
C      1  0.4878430000000  0.4838720000000  0.4663790000000 1.0
C      1  0.5592310000000  0.5511760000000  0.5420120000000 1.0
C      1  0.4905970000000  0.4483590000000  0.5520730000000 1.0
C      1  0.4886380000000  0.5856860000000  0.4710760000000 1.0
C      1  0.4636910000000  0.5168510000000  0.4874300000000 1.0
C      1  0.5235860000000  0.5480050000000  0.4057130000000 1.0
C      1  0.4851060000000  0.5166030000000  0.5966450000000 1.0
C      1  0.5147540000000  0.4653240000000  0.5127480000000 1.0
C      1  0.5262870000000  0.4854760000000  0.5280520000000 1.0
C      1  0.5236810000000  0.5743810000000  0.5294670000000 1.0
C      1  0.4520550000000  0.5498520000000  0.5829500000000 1.0
C      1  0.4472640000000  0.5009940000000  0.5731230000000 1.0
C      1  0.5742330000000  0.4514410000000  0.5192070000000 1.0
C      1  0.4347450000000  0.5046950000000  0.4476550000000 1.0
C      1  0.4500750000000  0.5169490000000  0.4274550000000 1.0
C      1  0.4960950000000  0.5535030000000  0.5689750000000 1.0
C      1  0.5351750000000  0.5079330000000  0.5088460000000 1.0
C      1  0.5344490000000  0.5234980000000  0.5764920000000 1.0
C      1  0.5644980000000  0.4398310000000  0.4746320000000 1.0
C      1  0.4629890000000  0.4777510000000  0.5807150000000 1.0
C      1  0.4685900000000  0.5629340000000  0.5654800000000 1.0
C      1  0.4666390000000  0.5823140000000  0.4885410000000 1.0
C      1  0.5091260000000  0.4740380000000  0.5984180000000 1.0
C      1  0.5740900000000  0.5339930000000  0.4568920000000 1.0
C      1  0.4859000000000  0.4873260000000  0.5958360000000 1.0
C      1  0.5057550000000  0.5327670000000  0.5865750000000 1.0
C      1  0.5257610000000  0.5255110000000  0.5481900000000 1.0
C      1  0.4359590000000  0.5022720000000  0.5473830000000 1.0
C      1  0.4272340000000  0.5582470000000  0.5031690000000 1.0
C      1  0.4679610000000  0.4989690000000  0.4133150000000 1.0
C      1  0.5043340000000  0.4371440000000  0.4252880000000 1.0
C      1  0.5528590000000  0.5459090000000  0.5690960000000 1.0
C      1  0.5079280000000  0.5006930000000  0.5439560000000 1.0
C      1  0.5860170000000  0.5092320000000  0.4643360000000 1.0
C      1  0.5763720000000  0.4845650000000  0.4547750000000 1.0
C      1  0.5250850000000  0.5702730000000  0.4487540000000 1.0
C      1  0.3948100000000  0.4904850000000  0.5122780000000 1.0
C      1  0.5676630000000  0.4863450000000  0.5566610000000 1.0
C      1  0.5855200000000  0.4712550000000  0.5020470000000 1.0
C      1  0.5331830000000  0.5075350000000  0.4559290000000 1.0
C      1  0.5035130000000  0.4626920000000  0.4676580000000 1.0
C      1  0.5082840000000  0.5164200000000  0.5037260000000 1.0
C      1  0.4655030000000  0.4546140000000  0.5642830000000 1.0
C      1  0.4251090000000  0.4551170000000  0.4945520000000 1.0
C      1  0.4541040000000  0.4299100000000  0.5233740000000 1.0
C      1  0.4466350000000  0.4499850000000  0.5435570000000 1.0
C      1  0.4567360000000  0.5444000000000  0.4352990000000 1.0
C      1  0.5362970000000  0.4704430000000  0.4229600000000 1.0
C      1  0.4421910000000  0.5500150000000  0.4593010000000 1.0
C      1  0.5513360000000  0.4871650000000  0.4396300000000 1.0
C      1  0.4582650000000  0.5237850000000  0.5874680000000 1.0
C      1  0.4205700000000  0.5291900000000  0.4996620000000 1.0
C      1  0.5876180000000  0.4985940000000  0.5119870000000 1.0
C      1  0.4402660000000  0.4323650000000  0.4987760000000 1.0
C      1  0.4826620000000  0.5539810000000  0.4284940000000 1.0
C      1  0.5321250000000  0.4703280000000  0.5849350000000 1.0
C      1  0.4862640000000  0.5042050000000  0.5243920000000 1.0
C      1  0.4645590000000  0.4861240000000  0.4868890000000 1.0
C      1  0.5364330000000  0.5514920000000  0.4300070000000 1.0
END
