TITL C-151020-9098-4 0.904793014049662 125000 -29.1208928539577 0 0 5 (C2v) n - 1
REM
REM in /rds/project/t2_vol4/rds-t2-cs072/BORA/CARBON/from-Arr/AIRSS/Generating-Clusters/GAP-ML-2020/Only-C1/SD-CG/HFTN-CG
REM
REM
REM
REM
REM
REM ./C.cell (11c1c37f851c82e70ff6c80c92926a4b)
REM AIRSS Version 0.9.1 bugfix July 2018 build 013d7b7c2542+ Fri, 06 Jul 2018 19:26:36 +0100
REM compiler GCC version 9.3.0
REM options -cpp -mtune=generic -march=x86-64 -g -O0
REM seed 413378068 -240768681 -2083131137 1238477000 625985055 1127778754 -997554133 -2053728857 -1108162608 1737358948 970353142 1317674055 -1097143848 838463838 1812713884 269213665 -1444707356 -1351546706 1042353682 1507518060 -2095113732 -100173942 1235681046 -531084084 1447399610 -1821772570 55221480 1532494243 -1008050157 1153932628 -1394150366 -1451817611 164401243
REM
CELL 1.54180   50.00000   50.00000   50.00000   90.00000   90.00000   90.00000
LATT -1
SFAC C  
C      1  0.5024410000000  0.4963930000000  0.4951660000000 1.0
C      1  0.4825110000000  0.5258450000000  0.5346330000000 1.0
C      1  0.5224950000000  0.4819150000000  0.4835590000000 1.0
C      1  0.5005240000000  0.4840680000000  0.4708570000000 1.0
C      1  0.4920290000000  0.5117790000000  0.5157840000000 1.0
END
