TITL C-154616-4110-1 -138.413277405649 125000 -635.244529205744 0 0 92 (C1) n - 1
REM
REM in /rds/project/t2_vol4/rds-t2-cs072/BORA/CARBON/from-Arr/AIRSS/Generating-Clusters/GAP-ML-2020/Only-C1/SD-CG/HFTN-CG
REM
REM
REM
REM
REM
REM ./C.cell (11c1c37f851c82e70ff6c80c92926a4b)
REM AIRSS Version 0.9.1 bugfix July 2018 build 013d7b7c2542+ Fri, 06 Jul 2018 19:26:36 +0100
REM compiler GCC version 9.3.0
REM options -cpp -mtune=generic -march=x86-64 -g -O0
REM seed 310113337 1952858861 -1433493545 972136339 1007077486 -1380966249 1176277769 -116192934 -1610274508 1528428400 176148879 539148386 -1223676035 -1007476247 763210547 -1248073365 -71965768 -176392202 345347195 -624839178 -365782574 -329400297 -2144698712 651808190 -1842046555 -549989977 1839036720 527390419 -571061295 286487238 1610016365 -1020180678 -72777992
REM
CELL 1.54180   50.00000   50.00000   50.00000   90.00000   90.00000   90.00000
LATT -1
SFAC C  
C      1  0.5512520000000  0.4790520000000  0.4483970000000 1.0
C      1  0.4583390000000  0.4722860000000  0.5048010000000 1.0
C      1  0.4905670000000  0.4889810000000  0.4673050000000 1.0
C      1  0.4897650000000  0.5484750000000  0.5542600000000 1.0
C      1  0.5800390000000  0.4646790000000  0.5058910000000 1.0
C      1  0.4456170000000  0.4477930000000  0.4945970000000 1.0
C      1  0.4641730000000  0.4803620000000  0.5761870000000 1.0
C      1  0.4998590000000  0.5752330000000  0.4889170000000 1.0
C      1  0.4720810000000  0.5171630000000  0.5009170000000 1.0
C      1  0.5299220000000  0.5058520000000  0.4884890000000 1.0
C      1  0.4759830000000  0.5608110000000  0.5305460000000 1.0
C      1  0.5371230000000  0.4370030000000  0.4667840000000 1.0
C      1  0.5247480000000  0.5423830000000  0.4465210000000 1.0
C      1  0.5422490000000  0.5362070000000  0.5569360000000 1.0
C      1  0.4842440000000  0.4415390000000  0.4655980000000 1.0
C      1  0.4256650000000  0.4610800000000  0.4747260000000 1.0
C      1  0.4322680000000  0.4836230000000  0.4562850000000 1.0
C      1  0.4761590000000  0.5551910000000  0.4480040000000 1.0
C      1  0.5216220000000  0.5748830000000  0.5302670000000 1.0
C      1  0.4256170000000  0.4831040000000  0.5493740000000 1.0
C      1  0.5380110000000  0.5150890000000  0.5183720000000 1.0
C      1  0.5296090000000  0.4724650000000  0.5258720000000 1.0
C      1  0.5751390000000  0.5412630000000  0.4917940000000 1.0
C      1  0.5053700000000  0.4595090000000  0.4353980000000 1.0
C      1  0.5881820000000  0.4954720000000  0.5068430000000 1.0
C      1  0.5170770000000  0.5032060000000  0.4230500000000 1.0
C      1  0.4556710000000  0.4850060000000  0.4404810000000 1.0
C      1  0.5258160000000  0.4453810000000  0.5398460000000 1.0
C      1  0.4952980000000  0.5776360000000  0.5178790000000 1.0
C      1  0.4833340000000  0.5254080000000  0.5702510000000 1.0
C      1  0.5494140000000  0.4661070000000  0.5023880000000 1.0
C      1  0.5053320000000  0.5053570000000  0.5737530000000 1.0
C      1  0.5759880000000  0.5222190000000  0.4571020000000 1.0
C      1  0.5813570000000  0.5078960000000  0.5318390000000 1.0
C      1  0.5413530000000  0.4936530000000  0.5424720000000 1.0
C      1  0.4781720000000  0.4698680000000  0.5240140000000 1.0
C      1  0.4884150000000  0.4285750000000  0.5130740000000 1.0
C      1  0.5673930000000  0.5486650000000  0.4653990000000 1.0
C      1  0.4331950000000  0.4464990000000  0.5218370000000 1.0
C      1  0.5430180000000  0.5726130000000  0.5110310000000 1.0
C      1  0.5736730000000  0.4587090000000  0.5353260000000 1.0
C      1  0.4446630000000  0.4654550000000  0.5621570000000 1.0
C      1  0.4809490000000  0.5721420000000  0.4686120000000 1.0
C      1  0.5138220000000  0.5273880000000  0.4751820000000 1.0
C      1  0.5135040000000  0.5468440000000  0.4955440000000 1.0
C      1  0.5109300000000  0.4390600000000  0.4546410000000 1.0
C      1  0.4784450000000  0.4934950000000  0.5425970000000 1.0
C      1  0.4201040000000  0.5085490000000  0.4657780000000 1.0
C      1  0.5166130000000  0.4308910000000  0.5139750000000 1.0
C      1  0.4342640000000  0.5445880000000  0.4915680000000 1.0
C      1  0.4788800000000  0.4424090000000  0.5380860000000 1.0
C      1  0.5778730000000  0.5106770000000  0.4846710000000 1.0
C      1  0.3997610000000  0.4614180000000  0.4822620000000 1.0
C      1  0.5011070000000  0.4513720000000  0.5566430000000 1.0
C      1  0.5425560000000  0.5613200000000  0.4608310000000 1.0
C      1  0.5815540000000  0.4507130000000  0.4795560000000 1.0
C      1  0.4346160000000  0.5334440000000  0.4646460000000 1.0
C      1  0.4042850000000  0.4804530000000  0.5018930000000 1.0
C      1  0.5545530000000  0.4417850000000  0.5453970000000 1.0
C      1  0.4326040000000  0.5295260000000  0.5308440000000 1.0
C      1  0.4596160000000  0.5085470000000  0.5671680000000 1.0
C      1  0.4926600000000  0.4781540000000  0.5686040000000 1.0
C      1  0.4933450000000  0.5091810000000  0.5207390000000 1.0
C      1  0.4794320000000  0.4680210000000  0.4491460000000 1.0
C      1  0.4920550000000  0.5174160000000  0.4247060000000 1.0
C      1  0.5261730000000  0.4775570000000  0.4310230000000 1.0
C      1  0.4645870000000  0.5115080000000  0.4317520000000 1.0
C      1  0.4984090000000  0.5437580000000  0.4337820000000 1.0
C      1  0.4540320000000  0.5359610000000  0.4443190000000 1.0
C      1  0.5617540000000  0.5322220000000  0.5332750000000 1.0
C      1  0.5188950000000  0.5512320000000  0.5468620000000 1.0
C      1  0.5312350000000  0.5109770000000  0.5643700000000 1.0
C      1  0.5043170000000  0.4814150000000  0.5128750000000 1.0
C      1  0.5512020000000  0.4889310000000  0.4795430000000 1.0
C      1  0.5605990000000  0.5069860000000  0.4394920000000 1.0
C      1  0.4061520000000  0.5074090000000  0.4916760000000 1.0
C      1  0.4858050000000  0.5159090000000  0.4742840000000 1.0
C      1  0.4512040000000  0.4971740000000  0.4979070000000 1.0
C      1  0.4503860000000  0.4438710000000  0.5447900000000 1.0
C      1  0.4160800000000  0.5291700000000  0.5073020000000 1.0
C      1  0.5698230000000  0.4863380000000  0.5451020000000 1.0
C      1  0.5644880000000  0.5536810000000  0.5144430000000 1.0
C      1  0.5377190000000  0.5209110000000  0.4305230000000 1.0
C      1  0.4156680000000  0.4700380000000  0.5262290000000 1.0
C      1  0.5141240000000  0.5314350000000  0.5213600000000 1.0
C      1  0.4344500000000  0.5108830000000  0.5521970000000 1.0
C      1  0.5101590000000  0.4836660000000  0.4856500000000 1.0
C      1  0.5307050000000  0.5728310000000  0.4851170000000 1.0
C      1  0.4562390000000  0.5427860000000  0.5146870000000 1.0
C      1  0.4716490000000  0.4334220000000  0.4895340000000 1.0
C      1  0.5619510000000  0.4515660000000  0.4590600000000 1.0
C      1  0.5358960000000  0.4392160000000  0.4947740000000 1.0
END
