TITL C-150998-9551-8 2.23361060660386 125000 -109.038174754526 0 0 17 (C1) n - 1
REM
REM in /rds/project/t2_vol4/rds-t2-cs072/BORA/CARBON/from-Arr/AIRSS/Generating-Clusters/GAP-ML-2020/Only-C1/SD-CG/HFTN-CG
REM
REM
REM
REM
REM
REM ./C.cell (11c1c37f851c82e70ff6c80c92926a4b)
REM AIRSS Version 0.9.1 bugfix July 2018 build 013d7b7c2542+ Fri, 06 Jul 2018 19:26:36 +0100
REM compiler GCC version 9.3.0
REM options -cpp -mtune=generic -march=x86-64 -g -O0
REM seed -2044838044 33232107 -1073106219 -1236490820 552044598 -1041900944 -429997513 -596907270 214772071 1945640153 -1350743178 252779080 641040624 -110088892 -1565143754 -49752353 -1467030662 -996883324 1106842425 -1251566784 1333137902 -1457237818 1780929042 930475782 -932308046 1604792575 -1145135119 -1041021344 -2103874215 -579633747 1838085905 1149302590 -318082169
REM
CELL 1.54180   50.00000   50.00000   50.00000   90.00000   90.00000   90.00000
LATT -1
SFAC C  
C      1  0.4855980000000  0.5119780000000  0.5567750000000 1.0
C      1  0.5122460000000  0.4960480000000  0.4323710000000 1.0
C      1  0.4520790000000  0.4826490000000  0.5090460000000 1.0
C      1  0.4893840000000  0.4925040000000  0.4796520000000 1.0
C      1  0.5323920000000  0.4891130000000  0.5347430000000 1.0
C      1  0.4832680000000  0.4883530000000  0.5433570000000 1.0
C      1  0.4977990000000  0.5342540000000  0.5549530000000 1.0
C      1  0.4617250000000  0.4872270000000  0.4853170000000 1.0
C      1  0.5206470000000  0.4807060000000  0.4105410000000 1.0
C      1  0.5117020000000  0.5036390000000  0.4052480000000 1.0
C      1  0.5093480000000  0.4912210000000  0.5006610000000 1.0
C      1  0.5063920000000  0.4798450000000  0.5277330000000 1.0
C      1  0.5323860000000  0.5363550000000  0.5187890000000 1.0
C      1  0.4581470000000  0.4795420000000  0.5340070000000 1.0
C      1  0.5001120000000  0.4962620000000  0.4551880000000 1.0
C      1  0.5166270000000  0.5414840000000  0.5386950000000 1.0
C      1  0.5301490000000  0.5088200000000  0.5129230000000 1.0
END
