TITL C-158511-2042-8 -0.00491666763822526 125000 -114.31273361292 0 0 18 (C1) n - 1
REM
REM in /rds/project/t2_vol4/rds-t2-cs072/BORA/CARBON/from-Arr/AIRSS/Generating-Clusters/GAP-ML-2020/Only-C1/SD-CG/HFTN-CG
REM
REM
REM
REM
REM
REM ./C.cell (11c1c37f851c82e70ff6c80c92926a4b)
REM AIRSS Version 0.9.1 bugfix July 2018 build 013d7b7c2542+ Fri, 06 Jul 2018 19:26:36 +0100
REM compiler GCC version 9.3.0
REM options -cpp -mtune=generic -march=x86-64 -g -O0
REM seed 1311462632 1921930844 546412259 1577359011 -690267090 744852288 316465992 502762548 -1458740971 -1280795819 -165448935 -738374356 1084907059 -26095480 -324637558 452152666 1455433451 -1856035135 -1441390559 -729245814 -768641987 -1538639884 1222656857 1054594589 -1536663628 126816990 1243786965 -263976339 2023101274 -1922115968 673965120 1432783864 259307995
REM
CELL 1.54180   50.00000   50.00000   50.00000   90.00000   90.00000   90.00000
LATT -1
SFAC C  
C      1  0.5233210000000  0.4774610000000  0.4563060000000 1.0
C      1  0.5068430000000  0.4773570000000  0.4755140000000 1.0
C      1  0.4906280000000  0.4749840000000  0.4981540000000 1.0
C      1  0.4653210000000  0.5301430000000  0.4715160000000 1.0
C      1  0.4452440000000  0.5214160000000  0.5191700000000 1.0
C      1  0.4682250000000  0.4915490000000  0.5037930000000 1.0
C      1  0.5766060000000  0.5082060000000  0.4982890000000 1.0
C      1  0.4966120000000  0.4605150000000  0.5214250000000 1.0
C      1  0.4972010000000  0.4768990000000  0.5439210000000 1.0
C      1  0.4836230000000  0.5357190000000  0.4554070000000 1.0
C      1  0.5224820000000  0.4880180000000  0.5484330000000 1.0
C      1  0.5399480000000  0.4959360000000  0.5318470000000 1.0
C      1  0.5075700000000  0.5313730000000  0.4448230000000 1.0
C      1  0.4562070000000  0.5160540000000  0.4929880000000 1.0
C      1  0.5572520000000  0.5055970000000  0.5148430000000 1.0
C      1  0.4592700000000  0.4977980000000  0.5301830000000 1.0
C      1  0.4720740000000  0.4877400000000  0.5519590000000 1.0
C      1  0.5315740000000  0.5232360000000  0.4414280000000 1.0
END
