TITL C-152507-7705-4 51.2410113198157 125000 -597.572101145951 0 0 83 (C1) n - 1
REM
REM in /rds/project/t2_vol4/rds-t2-cs072/BORA/CARBON/from-Arr/AIRSS/Generating-Clusters/GAP-ML-2020/Only-C1/SD-CG/HFTN-CG
REM
REM
REM
REM
REM
REM ./C.cell (11c1c37f851c82e70ff6c80c92926a4b)
REM AIRSS Version 0.9.1 bugfix July 2018 build 013d7b7c2542+ Fri, 06 Jul 2018 19:26:36 +0100
REM compiler GCC version 9.3.0
REM options -cpp -mtune=generic -march=x86-64 -g -O0
REM seed -1892536915 1055773283 -2120486804 -1468373757 344225980 -1636964939 -1936372138 1382509240 -1012130116 -265779144 -195299856 -2068482107 -1256521169 1921038305 210342861 1450069220 1729085961 2101463190 -2098011529 1926267553 331964759 -682879016 -934934623 -1744701390 -1294638861 63310130 -1549270339 -1425915612 1356770960 2059909185 824071660 -180312945 348619585
REM
CELL 1.54180   50.00000   50.00000   50.00000   90.00000   90.00000   90.00000
LATT -1
SFAC C  
C      1  0.5549700000000  0.5644160000000  0.4773850000000 1.0
C      1  0.5306440000000  0.4135280000000  0.5360570000000 1.0
C      1  0.5257150000000  0.5099210000000  0.4221580000000 1.0
C      1  0.5074720000000  0.4120560000000  0.5206310000000 1.0
C      1  0.5138710000000  0.5413380000000  0.5625040000000 1.0
C      1  0.5718380000000  0.4964850000000  0.5288210000000 1.0
C      1  0.5201010000000  0.4680370000000  0.5761300000000 1.0
C      1  0.4816790000000  0.4378170000000  0.5549110000000 1.0
C      1  0.5446400000000  0.4984190000000  0.4405210000000 1.0
C      1  0.5167440000000  0.5217050000000  0.5031360000000 1.0
C      1  0.4820010000000  0.4935450000000  0.5903850000000 1.0
C      1  0.5279270000000  0.5544610000000  0.4442530000000 1.0
C      1  0.4614940000000  0.5649630000000  0.4614180000000 1.0
C      1  0.5558160000000  0.5609650000000  0.5037670000000 1.0
C      1  0.5160140000000  0.5365340000000  0.4257240000000 1.0
C      1  0.5580680000000  0.5347400000000  0.5516970000000 1.0
C      1  0.4460340000000  0.5232620000000  0.4404080000000 1.0
C      1  0.5029870000000  0.5072960000000  0.4657680000000 1.0
C      1  0.5100050000000  0.4936700000000  0.5854960000000 1.0
C      1  0.5589240000000  0.4872300000000  0.5534510000000 1.0
C      1  0.5525980000000  0.5477400000000  0.4559730000000 1.0
C      1  0.5441180000000  0.4644870000000  0.5611470000000 1.0
C      1  0.5086760000000  0.5740780000000  0.5137700000000 1.0
C      1  0.4665100000000  0.4275890000000  0.5083670000000 1.0
C      1  0.5170540000000  0.5037990000000  0.5246240000000 1.0
C      1  0.4685680000000  0.5217770000000  0.4228780000000 1.0
C      1  0.4259560000000  0.5060950000000  0.4781550000000 1.0
C      1  0.4625580000000  0.5622570000000  0.5112610000000 1.0
C      1  0.4631840000000  0.4774870000000  0.5780020000000 1.0
C      1  0.4331890000000  0.5329680000000  0.4846170000000 1.0
C      1  0.4815790000000  0.4250420000000  0.4833870000000 1.0
C      1  0.4802010000000  0.4771530000000  0.5260240000000 1.0
C      1  0.4276940000000  0.4859820000000  0.4973660000000 1.0
C      1  0.5363540000000  0.5531170000000  0.5483470000000 1.0
C      1  0.5060960000000  0.4902810000000  0.4164850000000 1.0
C      1  0.4460820000000  0.4538380000000  0.4642020000000 1.0
C      1  0.4782120000000  0.4958250000000  0.4163910000000 1.0
C      1  0.4712440000000  0.5732590000000  0.4867250000000 1.0
C      1  0.4834740000000  0.5634560000000  0.4437690000000 1.0
C      1  0.4939690000000  0.4751250000000  0.5018810000000 1.0
C      1  0.4826380000000  0.4217190000000  0.5310440000000 1.0
C      1  0.4349840000000  0.4590930000000  0.4896900000000 1.0
C      1  0.5687950000000  0.4917210000000  0.5008730000000 1.0
C      1  0.5557990000000  0.5183310000000  0.4611340000000 1.0
C      1  0.4339000000000  0.5000360000000  0.4513320000000 1.0
C      1  0.4473010000000  0.5191930000000  0.5290970000000 1.0
C      1  0.4603340000000  0.4573010000000  0.5589240000000 1.0
C      1  0.4378080000000  0.4925730000000  0.5230530000000 1.0
C      1  0.4628230000000  0.5062900000000  0.5743470000000 1.0
C      1  0.4846530000000  0.4538330000000  0.4375790000000 1.0
C      1  0.5309780000000  0.5087150000000  0.4774170000000 1.0
C      1  0.5315810000000  0.4376530000000  0.4899980000000 1.0
C      1  0.5334650000000  0.4508610000000  0.5170250000000 1.0
C      1  0.5073730000000  0.5705290000000  0.4577690000000 1.0
C      1  0.4918640000000  0.4989220000000  0.5397390000000 1.0
C      1  0.4995210000000  0.5773030000000  0.4859320000000 1.0
C      1  0.4656200000000  0.4729880000000  0.4275580000000 1.0
C      1  0.5422570000000  0.4825730000000  0.4887800000000 1.0
C      1  0.5091020000000  0.4195110000000  0.4919260000000 1.0
C      1  0.4514660000000  0.4673760000000  0.5324660000000 1.0
C      1  0.4852230000000  0.4933150000000  0.4823520000000 1.0
C      1  0.4878380000000  0.5424010000000  0.4253330000000 1.0
C      1  0.5735570000000  0.5158120000000  0.4856970000000 1.0
C      1  0.4912460000000  0.5199880000000  0.4881900000000 1.0
C      1  0.5356090000000  0.4699760000000  0.4457190000000 1.0
C      1  0.5499730000000  0.5120150000000  0.5665330000000 1.0
C      1  0.5111570000000  0.4655430000000  0.4305040000000 1.0
C      1  0.5230330000000  0.4773790000000  0.5105870000000 1.0
C      1  0.5735560000000  0.5254510000000  0.5303380000000 1.0
C      1  0.4435020000000  0.5437820000000  0.4603020000000 1.0
C      1  0.5073170000000  0.4453260000000  0.5637890000000 1.0
C      1  0.4879560000000  0.5455530000000  0.5509010000000 1.0
C      1  0.5316720000000  0.4406830000000  0.5450890000000 1.0
C      1  0.4713570000000  0.4396280000000  0.4604340000000 1.0
C      1  0.4435670000000  0.5403880000000  0.5103080000000 1.0
C      1  0.5237090000000  0.5167720000000  0.5760560000000 1.0
C      1  0.4460590000000  0.4465430000000  0.5119850000000 1.0
C      1  0.5348260000000  0.5674980000000  0.5236580000000 1.0
C      1  0.4705040000000  0.5202650000000  0.5487030000000 1.0
C      1  0.5404080000000  0.4581330000000  0.4716940000000 1.0
C      1  0.4855550000000  0.5636480000000  0.5288930000000 1.0
C      1  0.5726640000000  0.5372640000000  0.5046810000000 1.0
C      1  0.4431830000000  0.4743760000000  0.4445780000000 1.0
END
