TITL C-154599-4103-2 -2.67508780030985 125000 -650.338829151337 0 0 95 (C1) n - 1
REM
REM in /rds/project/t2_vol4/rds-t2-cs072/BORA/CARBON/from-Arr/AIRSS/Generating-Clusters/GAP-ML-2020/Only-C1/SD-CG/HFTN-CG
REM
REM
REM
REM
REM
REM ./C.cell (11c1c37f851c82e70ff6c80c92926a4b)
REM AIRSS Version 0.9.1 bugfix July 2018 build 013d7b7c2542+ Fri, 06 Jul 2018 19:26:36 +0100
REM compiler GCC version 9.3.0
REM options -cpp -mtune=generic -march=x86-64 -g -O0
REM seed -614381950 937268901 1032618071 -1023681764 -1664821354 52127923 1480613478 2073919605 -573842738 -1483962797 1722060593 171794196 -878884294 -1612051080 645513777 1066720149 -778835051 434197686 1068449376 -1146819010 902914824 -169996319 1493915109 -1052325374 813351701 -1321794426 -2051979089 639879848 -1525273885 584480630 1398080771 -1603307102 -1719943515
REM
CELL 1.54180   50.00000   50.00000   50.00000   90.00000   90.00000   90.00000
LATT -1
SFAC C  
C      1  0.5014590000000  0.4654320000000  0.4963020000000 1.0
C      1  0.5504780000000  0.5355360000000  0.5621600000000 1.0
C      1  0.4974780000000  0.5354250000000  0.4187170000000 1.0
C      1  0.4602070000000  0.4343770000000  0.4750090000000 1.0
C      1  0.5451110000000  0.5602910000000  0.5287800000000 1.0
C      1  0.4373460000000  0.4792780000000  0.5337340000000 1.0
C      1  0.4773700000000  0.4987120000000  0.4526420000000 1.0
C      1  0.4557440000000  0.5207820000000  0.5525430000000 1.0
C      1  0.5413720000000  0.4272450000000  0.5231550000000 1.0
C      1  0.5784370000000  0.4874670000000  0.5212480000000 1.0
C      1  0.5077430000000  0.4873620000000  0.4098780000000 1.0
C      1  0.4490070000000  0.5357300000000  0.4183690000000 1.0
C      1  0.4697960000000  0.5550210000000  0.4516100000000 1.0
C      1  0.5626740000000  0.5381990000000  0.5350220000000 1.0
C      1  0.5087580000000  0.4725310000000  0.5244720000000 1.0
C      1  0.4887730000000  0.5710160000000  0.4674270000000 1.0
C      1  0.5226770000000  0.4566010000000  0.4344790000000 1.0
C      1  0.4696860000000  0.4652600000000  0.4293210000000 1.0
C      1  0.5354460000000  0.5738940000000  0.5051110000000 1.0
C      1  0.4232460000000  0.5104850000000  0.4892430000000 1.0
C      1  0.4823210000000  0.4940100000000  0.5861930000000 1.0
C      1  0.4687110000000  0.5188370000000  0.5788800000000 1.0
C      1  0.5434440000000  0.4842940000000  0.4842050000000 1.0
C      1  0.5321990000000  0.4530200000000  0.5602010000000 1.0
C      1  0.4628120000000  0.4295800000000  0.5229980000000 1.0
C      1  0.5359470000000  0.5026680000000  0.5794920000000 1.0
C      1  0.5843610000000  0.4986940000000  0.4760730000000 1.0
C      1  0.4957970000000  0.5246250000000  0.5072540000000 1.0
C      1  0.4504880000000  0.4458820000000  0.5009610000000 1.0
C      1  0.4521340000000  0.5047480000000  0.4938210000000 1.0
C      1  0.5024460000000  0.5185100000000  0.5342860000000 1.0
C      1  0.4259780000000  0.4653200000000  0.5091890000000 1.0
C      1  0.5078390000000  0.4388650000000  0.4783520000000 1.0
C      1  0.5291680000000  0.4408730000000  0.4574690000000 1.0
C      1  0.5091600000000  0.4353760000000  0.5561530000000 1.0
C      1  0.5402090000000  0.4830510000000  0.5562920000000 1.0
C      1  0.4888200000000  0.5791930000000  0.5180110000000 1.0
C      1  0.4613200000000  0.4885380000000  0.5173010000000 1.0
C      1  0.5093050000000  0.5237690000000  0.4615540000000 1.0
C      1  0.5137410000000  0.5896900000000  0.5133330000000 1.0
C      1  0.4622560000000  0.4812940000000  0.4709890000000 1.0
C      1  0.5148630000000  0.4855570000000  0.4795970000000 1.0
C      1  0.5625980000000  0.4908500000000  0.4606040000000 1.0
C      1  0.4596260000000  0.4367440000000  0.5499210000000 1.0
C      1  0.4857130000000  0.4782610000000  0.5423290000000 1.0
C      1  0.5539860000000  0.4369860000000  0.4714510000000 1.0
C      1  0.5528680000000  0.4456710000000  0.5424580000000 1.0
C      1  0.4254460000000  0.5242580000000  0.5165180000000 1.0
C      1  0.5301830000000  0.5543110000000  0.5529580000000 1.0
C      1  0.5126160000000  0.4221040000000  0.5302210000000 1.0
C      1  0.5070970000000  0.4943620000000  0.4529380000000 1.0
C      1  0.4853900000000  0.4223020000000  0.4841110000000 1.0
C      1  0.5293570000000  0.4865610000000  0.4293980000000 1.0
C      1  0.4815060000000  0.5618480000000  0.5408580000000 1.0
C      1  0.4122930000000  0.4832090000000  0.4945280000000 1.0
C      1  0.4392190000000  0.5488460000000  0.5181350000000 1.0
C      1  0.4712800000000  0.4694140000000  0.4966130000000 1.0
C      1  0.4308310000000  0.5257250000000  0.4606810000000 1.0
C      1  0.4891850000000  0.5085470000000  0.4107850000000 1.0
C      1  0.4405100000000  0.5156100000000  0.4340010000000 1.0
C      1  0.4533380000000  0.5554200000000  0.4935690000000 1.0
C      1  0.5468330000000  0.5310590000000  0.4444040000000 1.0
C      1  0.4748390000000  0.4703200000000  0.5693260000000 1.0
C      1  0.5391850000000  0.5634040000000  0.4776490000000 1.0
C      1  0.5848490000000  0.4766440000000  0.4959760000000 1.0
C      1  0.5251900000000  0.4965760000000  0.5308570000000 1.0
C      1  0.5739060000000  0.4503190000000  0.4880190000000 1.0
C      1  0.4969710000000  0.4619380000000  0.4205040000000 1.0
C      1  0.4706870000000  0.5272500000000  0.4913320000000 1.0
C      1  0.5578710000000  0.5419380000000  0.4689760000000 1.0
C      1  0.4835090000000  0.4416450000000  0.5657490000000 1.0
C      1  0.4430100000000  0.5506140000000  0.4661220000000 1.0
C      1  0.5162940000000  0.5648360000000  0.4604030000000 1.0
C      1  0.4316150000000  0.5084440000000  0.5392160000000 1.0
C      1  0.4600640000000  0.4559180000000  0.4548330000000 1.0
C      1  0.5514920000000  0.5035010000000  0.4382730000000 1.0
C      1  0.5540260000000  0.5231000000000  0.5861500000000 1.0
C      1  0.4772710000000  0.5050130000000  0.5367970000000 1.0
C      1  0.5194310000000  0.5421840000000  0.4401130000000 1.0
C      1  0.4650210000000  0.4961120000000  0.4265680000000 1.0
C      1  0.5405730000000  0.5049650000000  0.5058590000000 1.0
C      1  0.5025380000000  0.5448280000000  0.5532260000000 1.0
C      1  0.4877930000000  0.4192600000000  0.5133690000000 1.0
C      1  0.4725960000000  0.5490040000000  0.4235100000000 1.0
C      1  0.5082140000000  0.5077150000000  0.5861800000000 1.0
C      1  0.4947530000000  0.5325590000000  0.5787740000000 1.0
C      1  0.5162010000000  0.5149900000000  0.4900630000000 1.0
C      1  0.5648380000000  0.4724010000000  0.5414740000000 1.0
C      1  0.4565040000000  0.5488260000000  0.5411310000000 1.0
C      1  0.5680090000000  0.5169500000000  0.5146800000000 1.0
C      1  0.5754270000000  0.5240460000000  0.4859660000000 1.0
C      1  0.4756890000000  0.5743840000000  0.4927510000000 1.0
C      1  0.4483500000000  0.4632940000000  0.5557560000000 1.0
C      1  0.5570780000000  0.4303700000000  0.4987060000000 1.0
C      1  0.4802080000000  0.5275320000000  0.4633840000000 1.0
END
