TITL C-154592-4141-7 20.2793748776274 125000 -266.744178485966 0 0 40 (C1) n - 1
REM
REM in /rds/project/t2_vol4/rds-t2-cs072/BORA/CARBON/from-Arr/AIRSS/Generating-Clusters/GAP-ML-2020/Only-C1/SD-CG/HFTN-CG
REM
REM
REM
REM
REM
REM ./C.cell (11c1c37f851c82e70ff6c80c92926a4b)
REM AIRSS Version 0.9.1 bugfix July 2018 build 013d7b7c2542+ Fri, 06 Jul 2018 19:26:36 +0100
REM compiler GCC version 9.3.0
REM options -cpp -mtune=generic -march=x86-64 -g -O0
REM seed 1985442688 -1448667135 800224556 -560582791 -1657358189 -888471674 -1541712874 -11499776 1147514463 -205495790 1080822907 1487678514 -1079890232 1315641199 -1856950606 8471036 1898336584 948177067 -502598836 1262398382 -371022020 -35623603 804366785 1808575131 679786537 -97801174 569071122 -507999450 271597590 -1462686295 -1049383430 -752629542 -449532872
REM
CELL 1.54180   50.00000   50.00000   50.00000   90.00000   90.00000   90.00000
LATT -1
SFAC C  
C      1  0.4955370000000  0.5095130000000  0.4386660000000 1.0
C      1  0.4717340000000  0.4457440000000  0.4823690000000 1.0
C      1  0.4861140000000  0.4415670000000  0.4575280000000 1.0
C      1  0.5558750000000  0.4894520000000  0.4952860000000 1.0
C      1  0.5369720000000  0.5216960000000  0.4612390000000 1.0
C      1  0.5481450000000  0.4853160000000  0.5490980000000 1.0
C      1  0.4869490000000  0.5105320000000  0.5029830000000 1.0
C      1  0.5534190000000  0.4974040000000  0.5234600000000 1.0
C      1  0.5237800000000  0.4905440000000  0.5571020000000 1.0
C      1  0.5084570000000  0.5592070000000  0.4904030000000 1.0
C      1  0.4884490000000  0.4729860000000  0.5313790000000 1.0
C      1  0.4574140000000  0.5214060000000  0.5380380000000 1.0
C      1  0.5132100000000  0.4289220000000  0.5048340000000 1.0
C      1  0.4795830000000  0.5571800000000  0.4923660000000 1.0
C      1  0.5420800000000  0.4687130000000  0.4820830000000 1.0
C      1  0.4953050000000  0.5575480000000  0.5155430000000 1.0
C      1  0.4971110000000  0.4933520000000  0.5506290000000 1.0
C      1  0.4348820000000  0.5054380000000  0.5076420000000 1.0
C      1  0.5071860000000  0.4736070000000  0.5080900000000 1.0
C      1  0.4568160000000  0.5401490000000  0.4879530000000 1.0
C      1  0.4455790000000  0.4935110000000  0.4842610000000 1.0
C      1  0.4575990000000  0.4677500000000  0.4933450000000 1.0
C      1  0.4460630000000  0.4948800000000  0.5310700000000 1.0
C      1  0.5256160000000  0.4540230000000  0.5009180000000 1.0
C      1  0.5023000000000  0.5412010000000  0.5376640000000 1.0
C      1  0.5505580000000  0.5357300000000  0.4970090000000 1.0
C      1  0.4619340000000  0.4729240000000  0.5229960000000 1.0
C      1  0.5073750000000  0.4549020000000  0.4542600000000 1.0
C      1  0.4556460000000  0.5162680000000  0.4678840000000 1.0
C      1  0.5305650000000  0.5460940000000  0.4792320000000 1.0
C      1  0.5561710000000  0.5130890000000  0.4803610000000 1.0
C      1  0.5210200000000  0.5021590000000  0.4485920000000 1.0
C      1  0.5261820000000  0.4745120000000  0.4583160000000 1.0
C      1  0.4839290000000  0.5206230000000  0.5470250000000 1.0
C      1  0.5106760000000  0.5006180000000  0.4983000000000 1.0
C      1  0.5289360000000  0.5367990000000  0.5396610000000 1.0
C      1  0.4714250000000  0.5150190000000  0.4450310000000 1.0
C      1  0.4449570000000  0.5316120000000  0.5128750000000 1.0
C      1  0.4877010000000  0.4322740000000  0.5017490000000 1.0
C      1  0.5467480000000  0.5257350000000  0.5227610000000 1.0
END
