TITL C-150990-9196-4 61.334950587774 125000 -613.077508252789 0 0 89 (C1) n - 1
REM
REM in /rds/project/t2_vol4/rds-t2-cs072/BORA/CARBON/from-Arr/AIRSS/Generating-Clusters/GAP-ML-2020/Only-C1/SD-CG/HFTN-CG
REM
REM
REM
REM
REM
REM ./C.cell (11c1c37f851c82e70ff6c80c92926a4b)
REM AIRSS Version 0.9.1 bugfix July 2018 build 013d7b7c2542+ Fri, 06 Jul 2018 19:26:36 +0100
REM compiler GCC version 9.3.0
REM options -cpp -mtune=generic -march=x86-64 -g -O0
REM seed 916212406 183772554 -360059874 1397424399 -2141061071 1717789973 1310810959 -205617992 -1666346874 931059340 -410957961 1628446983 711583915 1777991193 -422849190 -1205012699 904470230 -884068913 456715910 -1316336209 1555332398 -607298587 -1916118774 742374091 -203511653 1369239290 2053769676 1650928318 -914024620 1895162099 1597488000 441838958 1198971908
REM
CELL 1.54180   50.00000   50.00000   50.00000   90.00000   90.00000   90.00000
LATT -1
SFAC C  
C      1  0.5489330000000  0.5519990000000  0.4979880000000 1.0
C      1  0.5376140000000  0.4798450000000  0.4937690000000 1.0
C      1  0.4636130000000  0.5667130000000  0.4955520000000 1.0
C      1  0.4238020000000  0.4536860000000  0.5291940000000 1.0
C      1  0.4239570000000  0.4695200000000  0.4777250000000 1.0
C      1  0.5248710000000  0.5162990000000  0.4393850000000 1.0
C      1  0.4266590000000  0.4728170000000  0.4505520000000 1.0
C      1  0.4194620000000  0.4798010000000  0.5215630000000 1.0
C      1  0.5486150000000  0.5550720000000  0.5518580000000 1.0
C      1  0.4583150000000  0.5099050000000  0.5625730000000 1.0
C      1  0.5133690000000  0.4904440000000  0.5698680000000 1.0
C      1  0.4967390000000  0.5388260000000  0.4771420000000 1.0
C      1  0.4471950000000  0.4856560000000  0.5223100000000 1.0
C      1  0.4359290000000  0.4962130000000  0.4355360000000 1.0
C      1  0.4520400000000  0.5589160000000  0.5657160000000 1.0
C      1  0.5311320000000  0.5417190000000  0.5719530000000 1.0
C      1  0.5527780000000  0.4383110000000  0.4734320000000 1.0
C      1  0.5559870000000  0.4678780000000  0.4713020000000 1.0
C      1  0.5101860000000  0.4705760000000  0.4998170000000 1.0
C      1  0.5149750000000  0.5623730000000  0.4673290000000 1.0
C      1  0.4647500000000  0.4409790000000  0.4483230000000 1.0
C      1  0.5117000000000  0.5135260000000  0.4666840000000 1.0
C      1  0.4866200000000  0.5105260000000  0.5174430000000 1.0
C      1  0.4865000000000  0.5808100000000  0.5055970000000 1.0
C      1  0.5509410000000  0.4937250000000  0.5414980000000 1.0
C      1  0.4454960000000  0.5304720000000  0.4689330000000 1.0
C      1  0.5073590000000  0.4702950000000  0.5276850000000 1.0
C      1  0.4823060000000  0.4263660000000  0.4944650000000 1.0
C      1  0.4180720000000  0.4916360000000  0.4952810000000 1.0
C      1  0.5848700000000  0.5179210000000  0.5118500000000 1.0
C      1  0.5746290000000  0.5429410000000  0.5146050000000 1.0
C      1  0.4673790000000  0.5477200000000  0.4752850000000 1.0
C      1  0.4566520000000  0.5115670000000  0.5313790000000 1.0
C      1  0.5077460000000  0.5588220000000  0.5724580000000 1.0
C      1  0.4646930000000  0.5353920000000  0.5742400000000 1.0
C      1  0.4982000000000  0.4746950000000  0.4366040000000 1.0
C      1  0.5610850000000  0.5124020000000  0.4679470000000 1.0
C      1  0.5425470000000  0.4377710000000  0.4459960000000 1.0
C      1  0.5586130000000  0.4775430000000  0.5181100000000 1.0
C      1  0.5115480000000  0.5797290000000  0.4921760000000 1.0
C      1  0.5729480000000  0.5497850000000  0.5416830000000 1.0
C      1  0.4861490000000  0.4857820000000  0.4919620000000 1.0
C      1  0.5385260000000  0.4306890000000  0.5198700000000 1.0
C      1  0.5419160000000  0.4516950000000  0.5563050000000 1.0
C      1  0.5340910000000  0.5752370000000  0.5087290000000 1.0
C      1  0.4471190000000  0.5580270000000  0.5166460000000 1.0
C      1  0.5765740000000  0.4896840000000  0.4747400000000 1.0
C      1  0.5390570000000  0.4785780000000  0.5629450000000 1.0
C      1  0.5019620000000  0.5345000000000  0.4285810000000 1.0
C      1  0.4916720000000  0.5371420000000  0.5827290000000 1.0
C      1  0.4452760000000  0.4563550000000  0.4355160000000 1.0
C      1  0.4771770000000  0.5183310000000  0.4281570000000 1.0
C      1  0.4923100000000  0.4921230000000  0.4652250000000 1.0
C      1  0.4507250000000  0.5191400000000  0.4430470000000 1.0
C      1  0.4893200000000  0.4702560000000  0.5689310000000 1.0
C      1  0.5344540000000  0.4254630000000  0.4927530000000 1.0
C      1  0.5078690000000  0.4212240000000  0.4816170000000 1.0
C      1  0.5146320000000  0.5184200000000  0.5802250000000 1.0
C      1  0.4841920000000  0.5803570000000  0.5340210000000 1.0
C      1  0.5072010000000  0.4984160000000  0.5365040000000 1.0
C      1  0.5308910000000  0.5265910000000  0.5075870000000 1.0
C      1  0.4443090000000  0.4394960000000  0.5183210000000 1.0
C      1  0.5490680000000  0.5307030000000  0.4504480000000 1.0
C      1  0.5444180000000  0.4671190000000  0.4435320000000 1.0
C      1  0.5807370000000  0.4926900000000  0.5033820000000 1.0
C      1  0.5320310000000  0.5127330000000  0.5324070000000 1.0
C      1  0.5063350000000  0.5601680000000  0.4379370000000 1.0
C      1  0.5318980000000  0.5740260000000  0.5369610000000 1.0
C      1  0.5295450000000  0.4166440000000  0.4360050000000 1.0
C      1  0.5015170000000  0.5328820000000  0.5056280000000 1.0
C      1  0.5569490000000  0.4502020000000  0.5305190000000 1.0
C      1  0.4590020000000  0.5679700000000  0.5410890000000 1.0
C      1  0.5080400000000  0.4255740000000  0.4522910000000 1.0
C      1  0.4735330000000  0.4342610000000  0.5217260000000 1.0
C      1  0.4613280000000  0.4329690000000  0.4755880000000 1.0
C      1  0.4910800000000  0.4457620000000  0.4411100000000 1.0
C      1  0.4387930000000  0.5308160000000  0.5163390000000 1.0
C      1  0.4530920000000  0.4788210000000  0.4193060000000 1.0
C      1  0.4435970000000  0.4499190000000  0.4899700000000 1.0
C      1  0.5429580000000  0.5521310000000  0.4687990000000 1.0
C      1  0.5204870000000  0.4354440000000  0.5437310000000 1.0
C      1  0.4301230000000  0.5187700000000  0.4915130000000 1.0
C      1  0.4597970000000  0.4763300000000  0.4983180000000 1.0
C      1  0.4931960000000  0.4489720000000  0.5427690000000 1.0
C      1  0.5070060000000  0.5761950000000  0.5501740000000 1.0
C      1  0.4694140000000  0.4873060000000  0.5737660000000 1.0
C      1  0.4785280000000  0.4900980000000  0.4201590000000 1.0
C      1  0.5257040000000  0.4852810000000  0.4340990000000 1.0
C      1  0.5355760000000  0.5075140000000  0.4852200000000 1.0
END
