TITL C-152506-7433-4 -0.137587464808065 125000 -673.745914316873 0 0 98 (C1) n - 1
REM
REM in /rds/project/t2_vol4/rds-t2-cs072/BORA/CARBON/from-Arr/AIRSS/Generating-Clusters/GAP-ML-2020/Only-C1/SD-CG/HFTN-CG
REM
REM
REM
REM
REM
REM ./C.cell (11c1c37f851c82e70ff6c80c92926a4b)
REM AIRSS Version 0.9.1 bugfix July 2018 build 013d7b7c2542+ Fri, 06 Jul 2018 19:26:36 +0100
REM compiler GCC version 9.3.0
REM options -cpp -mtune=generic -march=x86-64 -g -O0
REM seed -197491264 148265270 275804614 237687745 -16518564 1233693446 1785501838 605253654 602671215 537285646 1055201672 1558508931 -283665890 -140436471 165624677 -1852906347 573906674 699887036 1300805136 1512778542 -205723161 571590060 -1368675535 -1668679436 -148123702 940747822 2077204573 2092973123 -1352227829 -1958970267 -167499362 -780565263 -1636351362
REM
CELL 1.54180   50.00000   50.00000   50.00000   90.00000   90.00000   90.00000
LATT -1
SFAC C  
C      1  0.5176990000000  0.5332830000000  0.5749950000000 1.0
C      1  0.5021350000000  0.5692280000000  0.4438510000000 1.0
C      1  0.5064640000000  0.5363490000000  0.4197280000000 1.0
C      1  0.5820970000000  0.5192880000000  0.5074850000000 1.0
C      1  0.4079630000000  0.4831940000000  0.4912870000000 1.0
C      1  0.4999290000000  0.4791850000000  0.4634300000000 1.0
C      1  0.5163390000000  0.5095130000000  0.4200700000000 1.0
C      1  0.5032380000000  0.5279800000000  0.5339260000000 1.0
C      1  0.4707770000000  0.5010680000000  0.5137870000000 1.0
C      1  0.4490180000000  0.4396080000000  0.5400350000000 1.0
C      1  0.4307000000000  0.4769470000000  0.4524410000000 1.0
C      1  0.5683560000000  0.4846850000000  0.5353080000000 1.0
C      1  0.5336200000000  0.4799490000000  0.4998790000000 1.0
C      1  0.5252370000000  0.5538020000000  0.4340460000000 1.0
C      1  0.5498200000000  0.5681790000000  0.4851570000000 1.0
C      1  0.4620460000000  0.5387100000000  0.4458560000000 1.0
C      1  0.4827260000000  0.5764980000000  0.4887970000000 1.0
C      1  0.5428180000000  0.5222690000000  0.4864340000000 1.0
C      1  0.4704770000000  0.4239520000000  0.5331150000000 1.0
C      1  0.4961700000000  0.4725930000000  0.5733560000000 1.0
C      1  0.5453820000000  0.5477190000000  0.5312480000000 1.0
C      1  0.4749320000000  0.5715080000000  0.5344900000000 1.0
C      1  0.4217230000000  0.5090610000000  0.4871560000000 1.0
C      1  0.4862520000000  0.4155880000000  0.4856660000000 1.0
C      1  0.6032670000000  0.5126130000000  0.4666960000000 1.0
C      1  0.5174270000000  0.5009810000000  0.5417660000000 1.0
C      1  0.4283990000000  0.5195270000000  0.5409120000000 1.0
C      1  0.5021980000000  0.5814790000000  0.4687660000000 1.0
C      1  0.4309330000000  0.4785660000000  0.5623140000000 1.0
C      1  0.5142300000000  0.5255340000000  0.4854750000000 1.0
C      1  0.4690750000000  0.5258970000000  0.4731280000000 1.0
C      1  0.5234940000000  0.5441590000000  0.5490350000000 1.0
C      1  0.4757180000000  0.4751960000000  0.5269200000000 1.0
C      1  0.5738440000000  0.4714070000000  0.4554470000000 1.0
C      1  0.4687520000000  0.4719600000000  0.5796000000000 1.0
C      1  0.5425980000000  0.4971680000000  0.5256750000000 1.0
C      1  0.5537360000000  0.5238270000000  0.5156560000000 1.0
C      1  0.5447600000000  0.4349480000000  0.4753120000000 1.0
C      1  0.4600280000000  0.5486860000000  0.5211360000000 1.0
C      1  0.5434780000000  0.5699830000000  0.5144930000000 1.0
C      1  0.5007950000000  0.4860860000000  0.4239380000000 1.0
C      1  0.4917010000000  0.5850820000000  0.5154830000000 1.0
C      1  0.4505510000000  0.4950440000000  0.5753580000000 1.0
C      1  0.4198300000000  0.4915910000000  0.5397660000000 1.0
C      1  0.5203910000000  0.5869100000000  0.5111730000000 1.0
C      1  0.4775300000000  0.5658500000000  0.5620250000000 1.0
C      1  0.4824210000000  0.4557430000000  0.5058700000000 1.0
C      1  0.4725350000000  0.5235340000000  0.5346670000000 1.0
C      1  0.5241260000000  0.4785820000000  0.5791530000000 1.0
C      1  0.5956080000000  0.4858960000000  0.4686830000000 1.0
C      1  0.4748750000000  0.5481330000000  0.4946790000000 1.0
C      1  0.5465640000000  0.4941690000000  0.4791540000000 1.0
C      1  0.4538330000000  0.4505610000000  0.4925690000000 1.0
C      1  0.5468400000000  0.4856430000000  0.4494860000000 1.0
C      1  0.4920060000000  0.5465200000000  0.5789430000000 1.0
C      1  0.4965210000000  0.4998820000000  0.4989290000000 1.0
C      1  0.4614700000000  0.4270060000000  0.4763970000000 1.0
C      1  0.4528000000000  0.5020300000000  0.4871820000000 1.0
C      1  0.5971910000000  0.4751370000000  0.4963270000000 1.0
C      1  0.5234700000000  0.5056430000000  0.5705230000000 1.0
C      1  0.5822060000000  0.4506890000000  0.4970510000000 1.0
C      1  0.4746380000000  0.4372990000000  0.4534080000000 1.0
C      1  0.5621990000000  0.4585490000000  0.5437950000000 1.0
C      1  0.5272700000000  0.5854170000000  0.4815160000000 1.0
C      1  0.4741370000000  0.4669000000000  0.4539650000000 1.0
C      1  0.4913170000000  0.4264780000000  0.5137490000000 1.0
C      1  0.4521410000000  0.4740960000000  0.4733130000000 1.0
C      1  0.4525750000000  0.5203920000000  0.5596350000000 1.0
C      1  0.5187440000000  0.4510870000000  0.5423370000000 1.0
C      1  0.5233940000000  0.4400560000000  0.4569390000000 1.0
C      1  0.4952550000000  0.5099920000000  0.4713050000000 1.0
C      1  0.5423970000000  0.4305210000000  0.5054800000000 1.0
C      1  0.4177710000000  0.4729160000000  0.5167320000000 1.0
C      1  0.5592770000000  0.5431980000000  0.4707490000000 1.0
C      1  0.5864180000000  0.5291720000000  0.4801810000000 1.0
C      1  0.4193920000000  0.5379650000000  0.4940020000000 1.0
C      1  0.5194420000000  0.4304730000000  0.5221590000000 1.0
C      1  0.4713580000000  0.4839130000000  0.4301410000000 1.0
C      1  0.5054490000000  0.4727690000000  0.4926660000000 1.0
C      1  0.4200460000000  0.5293770000000  0.4668660000000 1.0
C      1  0.4646790000000  0.5440460000000  0.5746390000000 1.0
C      1  0.4310930000000  0.5404840000000  0.5199910000000 1.0
C      1  0.4481640000000  0.4556620000000  0.5638890000000 1.0
C      1  0.5412260000000  0.5107970000000  0.4340500000000 1.0
C      1  0.5886170000000  0.4932420000000  0.5165280000000 1.0
C      1  0.4384710000000  0.5246080000000  0.4431700000000 1.0
C      1  0.4443860000000  0.4963640000000  0.4354370000000 1.0
C      1  0.5023720000000  0.5405900000000  0.5061100000000 1.0
C      1  0.5468360000000  0.5382730000000  0.4432770000000 1.0
C      1  0.5651030000000  0.4424690000000  0.5186380000000 1.0
C      1  0.4065990000000  0.4729730000000  0.4652660000000 1.0
C      1  0.5211290000000  0.4694190000000  0.4444790000000 1.0
C      1  0.4360160000000  0.4512280000000  0.5162320000000 1.0
C      1  0.4997650000000  0.4746430000000  0.5434960000000 1.0
C      1  0.4832710000000  0.5501860000000  0.4315090000000 1.0
C      1  0.5385960000000  0.4598270000000  0.5602820000000 1.0
C      1  0.4996590000000  0.4252400000000  0.4615530000000 1.0
C      1  0.5696830000000  0.4475640000000  0.4712840000000 1.0
END
