TITL C-158509-2020-11 -187.557831273488 125000 -465.541144278155 0 0 69 (C1) n - 1
REM
REM in /rds/project/t2_vol4/rds-t2-cs072/BORA/CARBON/from-Arr/AIRSS/Generating-Clusters/GAP-ML-2020/Only-C1/SD-CG/HFTN-CG
REM
REM
REM
REM
REM
REM ./C.cell (11c1c37f851c82e70ff6c80c92926a4b)
REM AIRSS Version 0.9.1 bugfix July 2018 build 013d7b7c2542+ Fri, 06 Jul 2018 19:26:36 +0100
REM compiler GCC version 9.3.0
REM options -cpp -mtune=generic -march=x86-64 -g -O0
REM seed -1891011456 176614116 -203151616 -683731090 1799040312 226350278 -2009782296 -1010184697 -1548020579 2028595832 1238706900 1507317978 1864462036 -1219456428 -1535696891 1172286990 -2125934798 -764541664 631602739 -341064871 -575067787 -1954125077 -965364624 -314623422 -30516983 -1352248617 -904602981 2122134014 1219096208 2114418904 -745935333 -439370098 475921599
REM
CELL 1.54180   50.00000   50.00000   50.00000   90.00000   90.00000   90.00000
LATT -1
SFAC C  
C      1  0.5218330000000  0.5192670000000  0.5597210000000 1.0
C      1  0.4987540000000  0.4583150000000  0.4383040000000 1.0
C      1  0.4895890000000  0.5243630000000  0.4898220000000 1.0
C      1  0.4891040000000  0.4326540000000  0.4429200000000 1.0
C      1  0.4967110000000  0.5031880000000  0.4274560000000 1.0
C      1  0.5265380000000  0.4995780000000  0.5150920000000 1.0
C      1  0.4814200000000  0.4359860000000  0.4687550000000 1.0
C      1  0.5766750000000  0.4977990000000  0.5085960000000 1.0
C      1  0.4720120000000  0.5029800000000  0.4802040000000 1.0
C      1  0.4783140000000  0.5067100000000  0.5320300000000 1.0
C      1  0.4662370000000  0.5431230000000  0.5697230000000 1.0
C      1  0.5692320000000  0.4713710000000  0.4635510000000 1.0
C      1  0.4596470000000  0.4580950000000  0.4750170000000 1.0
C      1  0.5491500000000  0.5399200000000  0.5203210000000 1.0
C      1  0.4460810000000  0.5043450000000  0.4659760000000 1.0
C      1  0.5259640000000  0.4728900000000  0.4441320000000 1.0
C      1  0.5041200000000  0.4695950000000  0.4902780000000 1.0
C      1  0.5529900000000  0.4614790000000  0.4469490000000 1.0
C      1  0.4630840000000  0.4819490000000  0.5216810000000 1.0
C      1  0.4357060000000  0.4803390000000  0.5073870000000 1.0
C      1  0.4528650000000  0.4392930000000  0.5189320000000 1.0
C      1  0.4558320000000  0.4785480000000  0.4524320000000 1.0
C      1  0.4721190000000  0.5156580000000  0.5753370000000 1.0
C      1  0.4671560000000  0.5549770000000  0.5425300000000 1.0
C      1  0.5496930000000  0.4609850000000  0.5404920000000 1.0
C      1  0.4759640000000  0.4771890000000  0.4930610000000 1.0
C      1  0.4799300000000  0.5671140000000  0.4634830000000 1.0
C      1  0.4894840000000  0.5699310000000  0.5321800000000 1.0
C      1  0.5191720000000  0.4723110000000  0.5143820000000 1.0
C      1  0.4696120000000  0.4190530000000  0.5228090000000 1.0
C      1  0.5383230000000  0.5051990000000  0.4881040000000 1.0
C      1  0.5693640000000  0.5209880000000  0.5255170000000 1.0
C      1  0.5413180000000  0.5372880000000  0.4917520000000 1.0
C      1  0.5001290000000  0.5142100000000  0.5137150000000 1.0
C      1  0.5328750000000  0.4740110000000  0.5606870000000 1.0
C      1  0.4496180000000  0.5332530000000  0.4605950000000 1.0
C      1  0.5129090000000  0.5639170000000  0.5455120000000 1.0
C      1  0.5424330000000  0.5009270000000  0.5629210000000 1.0
C      1  0.5692910000000  0.4806530000000  0.5317330000000 1.0
C      1  0.4447510000000  0.5468520000000  0.4853070000000 1.0
C      1  0.4375290000000  0.5283570000000  0.5063190000000 1.0
C      1  0.4630980000000  0.5683390000000  0.4877830000000 1.0
C      1  0.5036890000000  0.5698920000000  0.4793820000000 1.0
C      1  0.4953070000000  0.5287480000000  0.4412970000000 1.0
C      1  0.5663970000000  0.5043290000000  0.5486760000000 1.0
C      1  0.5668510000000  0.4954900000000  0.4804970000000 1.0
C      1  0.4941890000000  0.4281330000000  0.5348380000000 1.0
C      1  0.4801160000000  0.4798120000000  0.4352070000000 1.0
C      1  0.5403520000000  0.5184050000000  0.4416440000000 1.0
C      1  0.5265360000000  0.5535410000000  0.4727160000000 1.0
C      1  0.5227640000000  0.5395650000000  0.4475080000000 1.0
C      1  0.4318810000000  0.5032370000000  0.4926580000000 1.0
C      1  0.4724500000000  0.5452270000000  0.4481570000000 1.0
C      1  0.4944930000000  0.5027060000000  0.5593040000000 1.0
C      1  0.4866370000000  0.5739070000000  0.5038150000000 1.0
C      1  0.5175770000000  0.4899770000000  0.4710920000000 1.0
C      1  0.5042800000000  0.4732270000000  0.5619440000000 1.0
C      1  0.5246630000000  0.4973140000000  0.4282800000000 1.0
C      1  0.4555510000000  0.5294460000000  0.5303090000000 1.0
C      1  0.4640660000000  0.4584730000000  0.5375400000000 1.0
C      1  0.4981700000000  0.5108260000000  0.4658870000000 1.0
C      1  0.4401120000000  0.4536530000000  0.4963450000000 1.0
C      1  0.5305570000000  0.5435730000000  0.5449800000000 1.0
C      1  0.5625300000000  0.5155460000000  0.4569800000000 1.0
C      1  0.5330350000000  0.4483420000000  0.5216390000000 1.0
C      1  0.5013370000000  0.4396840000000  0.4893690000000 1.0
C      1  0.4484490000000  0.5219170000000  0.5612090000000 1.0
C      1  0.4881330000000  0.4520570000000  0.5512260000000 1.0
C      1  0.5132520000000  0.4299770000000  0.5139980000000 1.0
END
