TITL C-151849-9487-7 -6.97379169616039 125000 -965.537096109655 0 0 137 (C1) n - 1
REM
REM in /rds/project/t2_vol4/rds-t2-cs072/BORA/CARBON/from-Arr/AIRSS/Generating-Clusters/GAP-ML-2020/Only-C1/SD-CG/HFTN-CG
REM
REM
REM
REM
REM
REM ./C.cell (11c1c37f851c82e70ff6c80c92926a4b)
REM AIRSS Version 0.9.1 bugfix July 2018 build 013d7b7c2542+ Fri, 06 Jul 2018 19:26:36 +0100
REM compiler GCC version 9.3.0
REM options -cpp -mtune=generic -march=x86-64 -g -O0
REM seed 1481063318 1540401743 922533471 1347087379 -395158052 -1305265001 -916247418 895699499 -1071078567 -195159799 265065059 -955371270 -1525703303 -1436212616 1206743661 945501448 -1959845860 786649561 -617426207 1868568641 1344089792 -1389864079 -290475054 -58545718 1570810240 283355882 -1226319710 760666685 -1029710509 1001951198 2110498225 17558121 704964298
REM
CELL 1.54180   50.00000   50.00000   50.00000   90.00000   90.00000   90.00000
LATT -1
SFAC C  
C      1  0.4770750000000  0.5711940000000  0.4266700000000 1.0
C      1  0.5051010000000  0.5336020000000  0.4392290000000 1.0
C      1  0.5165760000000  0.4445430000000  0.4650620000000 1.0
C      1  0.5026670000000  0.5110240000000  0.6026820000000 1.0
C      1  0.5239150000000  0.4530640000000  0.4163990000000 1.0
C      1  0.4807370000000  0.5144810000000  0.4358680000000 1.0
C      1  0.5404600000000  0.4864830000000  0.5395360000000 1.0
C      1  0.4656950000000  0.5243040000000  0.4112860000000 1.0
C      1  0.5234980000000  0.4477690000000  0.5637340000000 1.0
C      1  0.4575200000000  0.4578190000000  0.5055950000000 1.0
C      1  0.4385840000000  0.5616730000000  0.5366430000000 1.0
C      1  0.5300680000000  0.5245140000000  0.4246790000000 1.0
C      1  0.4777060000000  0.4355950000000  0.5697790000000 1.0
C      1  0.3902250000000  0.4718680000000  0.4800440000000 1.0
C      1  0.5222970000000  0.4193560000000  0.5086050000000 1.0
C      1  0.4696950000000  0.4191040000000  0.4514520000000 1.0
C      1  0.5411380000000  0.5571810000000  0.5546130000000 1.0
C      1  0.4557360000000  0.4132090000000  0.5303520000000 1.0
C      1  0.4790660000000  0.4645880000000  0.5233280000000 1.0
C      1  0.4837880000000  0.5924950000000  0.4724840000000 1.0
C      1  0.5579630000000  0.5779950000000  0.4898710000000 1.0
C      1  0.5035220000000  0.4670800000000  0.5062540000000 1.0
C      1  0.5828190000000  0.4556320000000  0.4649660000000 1.0
C      1  0.5119580000000  0.5493330000000  0.5891130000000 1.0
C      1  0.5666350000000  0.5667970000000  0.5148890000000 1.0
C      1  0.4750610000000  0.4880980000000  0.5370220000000 1.0
C      1  0.5136510000000  0.4797610000000  0.4128530000000 1.0
C      1  0.5370050000000  0.4919660000000  0.5684870000000 1.0
C      1  0.4671790000000  0.5824170000000  0.4511610000000 1.0
C      1  0.4424530000000  0.4730760000000  0.4415310000000 1.0
C      1  0.5520660000000  0.5401340000000  0.4326130000000 1.0
C      1  0.5588920000000  0.4846340000000  0.4231250000000 1.0
C      1  0.4956220000000  0.4803210000000  0.5873450000000 1.0
C      1  0.4343060000000  0.4102500000000  0.4848290000000 1.0
C      1  0.4283370000000  0.4484240000000  0.4577410000000 1.0
C      1  0.5507560000000  0.4645980000000  0.4980710000000 1.0
C      1  0.5213160000000  0.4697250000000  0.5802930000000 1.0
C      1  0.4849420000000  0.5574200000000  0.5895640000000 1.0
C      1  0.4299690000000  0.5586740000000  0.5094180000000 1.0
C      1  0.5814460000000  0.5017010000000  0.5527880000000 1.0
C      1  0.5038110000000  0.4282240000000  0.5592080000000 1.0
C      1  0.5851380000000  0.4782530000000  0.5360340000000 1.0
C      1  0.4189370000000  0.4926930000000  0.5364500000000 1.0
C      1  0.5738890000000  0.4255990000000  0.5058300000000 1.0
C      1  0.5089890000000  0.5386870000000  0.4702680000000 1.0
C      1  0.5305180000000  0.5281280000000  0.4840690000000 1.0
C      1  0.4802790000000  0.5295600000000  0.5957190000000 1.0
C      1  0.5904460000000  0.4772360000000  0.5079280000000 1.0
C      1  0.5458140000000  0.5737760000000  0.5330770000000 1.0
C      1  0.4668140000000  0.4618660000000  0.4801530000000 1.0
C      1  0.5146830000000  0.5123860000000  0.5556810000000 1.0
C      1  0.4625780000000  0.5110270000000  0.5220820000000 1.0
C      1  0.4596530000000  0.5802830000000  0.5443350000000 1.0
C      1  0.4434610000000  0.4982410000000  0.5750750000000 1.0
C      1  0.5228820000000  0.5783530000000  0.4451110000000 1.0
C      1  0.4608290000000  0.5530890000000  0.4120250000000 1.0
C      1  0.5068190000000  0.4964800000000  0.5039370000000 1.0
C      1  0.5792670000000  0.4527680000000  0.4937330000000 1.0
C      1  0.5635640000000  0.4402720000000  0.4501510000000 1.0
C      1  0.4679520000000  0.5153150000000  0.5729710000000 1.0
C      1  0.4685980000000  0.4648520000000  0.4284090000000 1.0
C      1  0.5633040000000  0.5000560000000  0.5767090000000 1.0
C      1  0.4997260000000  0.5987420000000  0.5260270000000 1.0
C      1  0.5497830000000  0.4574020000000  0.4305220000000 1.0
C      1  0.4540020000000  0.4828490000000  0.4670990000000 1.0
C      1  0.4323030000000  0.5480190000000  0.4476640000000 1.0
C      1  0.4656060000000  0.5921830000000  0.4956870000000 1.0
C      1  0.5669940000000  0.5656130000000  0.4666470000000 1.0
C      1  0.4216700000000  0.4636140000000  0.5364650000000 1.0
C      1  0.5705400000000  0.4533310000000  0.5422910000000 1.0
C      1  0.5207190000000  0.5823300000000  0.5179620000000 1.0
C      1  0.5288600000000  0.4513310000000  0.5129370000000 1.0
C      1  0.5787740000000  0.5290610000000  0.5441350000000 1.0
C      1  0.4911750000000  0.5501270000000  0.5445490000000 1.0
C      1  0.4633940000000  0.5098710000000  0.4668030000000 1.0
C      1  0.4655340000000  0.5312240000000  0.5457710000000 1.0
C      1  0.5230600000000  0.5007450000000  0.4794760000000 1.0
C      1  0.5493310000000  0.4152340000000  0.4930090000000 1.0
C      1  0.4787850000000  0.5701650000000  0.5632570000000 1.0
C      1  0.5169580000000  0.4185240000000  0.4526530000000 1.0
C      1  0.5040260000000  0.5519360000000  0.5164650000000 1.0
C      1  0.5799870000000  0.4292890000000  0.5320990000000 1.0
C      1  0.3927870000000  0.4972640000000  0.4797690000000 1.0
C      1  0.4735620000000  0.4600320000000  0.5845630000000 1.0
C      1  0.4355730000000  0.4200630000000  0.5100880000000 1.0
C      1  0.4197430000000  0.5321780000000  0.5041600000000 1.0
C      1  0.5350050000000  0.4983050000000  0.4153060000000 1.0
C      1  0.5058540000000  0.4132170000000  0.5351670000000 1.0
C      1  0.5877800000000  0.4840670000000  0.4621900000000 1.0
C      1  0.4894790000000  0.4978560000000  0.5619320000000 1.0
C      1  0.4306710000000  0.5003180000000  0.4345060000000 1.0
C      1  0.5460710000000  0.4205430000000  0.4645910000000 1.0
C      1  0.4424930000000  0.5759000000000  0.4896740000000 1.0
C      1  0.4360470000000  0.4518080000000  0.5579230000000 1.0
C      1  0.4954510000000  0.4622610000000  0.4779490000000 1.0
C      1  0.5742740000000  0.5263760000000  0.4441230000000 1.0
C      1  0.5157350000000  0.5432160000000  0.5602750000000 1.0
C      1  0.4283330000000  0.4503340000000  0.5098020000000 1.0
C      1  0.4825550000000  0.4055800000000  0.5207880000000 1.0
C      1  0.5279030000000  0.5327450000000  0.5131640000000 1.0
C      1  0.5058650000000  0.4838450000000  0.4590960000000 1.0
C      1  0.4542420000000  0.4292770000000  0.5541330000000 1.0
C      1  0.5313090000000  0.5890440000000  0.4912780000000 1.0
C      1  0.4729250000000  0.5952670000000  0.5233820000000 1.0
C      1  0.4778780000000  0.5159340000000  0.4958710000000 1.0
C      1  0.5264160000000  0.5271830000000  0.6010350000000 1.0
C      1  0.5617070000000  0.5413930000000  0.5648010000000 1.0
C      1  0.4376580000000  0.5162400000000  0.4131050000000 1.0
C      1  0.5885990000000  0.5269000000000  0.4922210000000 1.0
C      1  0.5074310000000  0.4338740000000  0.4288210000000 1.0
C      1  0.5770980000000  0.4984120000000  0.4400230000000 1.0
C      1  0.4972180000000  0.4079810000000  0.4950280000000 1.0
C      1  0.4258550000000  0.5107470000000  0.5574300000000 1.0
C      1  0.4346740000000  0.5458880000000  0.4195970000000 1.0
C      1  0.4474730000000  0.4699300000000  0.5772270000000 1.0
C      1  0.4903120000000  0.4861440000000  0.4312450000000 1.0
C      1  0.5129860000000  0.5917080000000  0.4694170000000 1.0
C      1  0.4421770000000  0.4229460000000  0.4611020000000 1.0
C      1  0.4926250000000  0.4082760000000  0.4664110000000 1.0
C      1  0.5447420000000  0.4817800000000  0.4770790000000 1.0
C      1  0.5533320000000  0.5240460000000  0.5868380000000 1.0
C      1  0.5228550000000  0.5075320000000  0.5268880000000 1.0
C      1  0.4139660000000  0.4555930000000  0.4823100000000 1.0
C      1  0.5484300000000  0.5655950000000  0.4449020000000 1.0
C      1  0.5401390000000  0.4564350000000  0.5404610000000 1.0
C      1  0.5813480000000  0.5404970000000  0.4679780000000 1.0
C      1  0.5920350000000  0.4976910000000  0.4881410000000 1.0
C      1  0.4435270000000  0.5701320000000  0.4617270000000 1.0
C      1  0.5325230000000  0.4662330000000  0.4557300000000 1.0
C      1  0.4893770000000  0.5424090000000  0.4918190000000 1.0
C      1  0.5034030000000  0.5631860000000  0.4309750000000 1.0
C      1  0.4314860000000  0.5089770000000  0.5161940000000 1.0
C      1  0.4323310000000  0.5204140000000  0.4587910000000 1.0
C      1  0.4788830000000  0.4380240000000  0.4315580000000 1.0
C      1  0.4116850000000  0.5178650000000  0.4808040000000 1.0
C      1  0.5814210000000  0.5414800000000  0.5173970000000 1.0
C      1  0.4378510000000  0.5384190000000  0.5527680000000 1.0
END
