TITL C-151008-9172-3 -37.8190619624368 125000 -356.165387000779 0 0 51 (C1) n - 1
REM
REM in /rds/project/t2_vol4/rds-t2-cs072/BORA/CARBON/from-Arr/AIRSS/Generating-Clusters/GAP-ML-2020/Only-C1/SD-CG/HFTN-CG
REM
REM
REM
REM
REM
REM ./C.cell (11c1c37f851c82e70ff6c80c92926a4b)
REM AIRSS Version 0.9.1 bugfix July 2018 build 013d7b7c2542+ Fri, 06 Jul 2018 19:26:36 +0100
REM compiler GCC version 9.3.0
REM options -cpp -mtune=generic -march=x86-64 -g -O0
REM seed -1308033313 -977253389 -257520462 321421476 1868931772 165897810 2099776546 935228804 200980789 2130289155 1487577838 -1554991428 -1657302937 1253657585 1442558364 -1237770666 -1292777182 152016448 1475743064 1482681862 926764936 -995329812 -1720971568 2087756887 -243833835 472988868 -462649613 528291914 1785003466 3080996 1241701405 -601836443 -635847523
REM
CELL 1.54180   50.00000   50.00000   50.00000   90.00000   90.00000   90.00000
LATT -1
SFAC C  
C      1  0.4717310000000  0.4496870000000  0.5086640000000 1.0
C      1  0.4856550000000  0.4919170000000  0.4942810000000 1.0
C      1  0.5527940000000  0.5356500000000  0.4980660000000 1.0
C      1  0.5141460000000  0.5600200000000  0.5123260000000 1.0
C      1  0.4563710000000  0.5329660000000  0.5432550000000 1.0
C      1  0.4476900000000  0.5307690000000  0.4941530000000 1.0
C      1  0.4580010000000  0.4846760000000  0.5431830000000 1.0
C      1  0.5256220000000  0.4477880000000  0.4563650000000 1.0
C      1  0.5171900000000  0.5266900000000  0.4482500000000 1.0
C      1  0.5273860000000  0.5006320000000  0.4435300000000 1.0
C      1  0.5476330000000  0.4632710000000  0.4656830000000 1.0
C      1  0.5433360000000  0.4497370000000  0.4923700000000 1.0
C      1  0.5369360000000  0.4924710000000  0.5511710000000 1.0
C      1  0.5270830000000  0.5030640000000  0.4969730000000 1.0
C      1  0.5486740000000  0.4637980000000  0.5153920000000 1.0
C      1  0.5312010000000  0.5541210000000  0.4900620000000 1.0
C      1  0.4381680000000  0.4853020000000  0.4987270000000 1.0
C      1  0.4412040000000  0.5241290000000  0.5215020000000 1.0
C      1  0.5025320000000  0.4573600000000  0.4445360000000 1.0
C      1  0.5024340000000  0.4680000000000  0.5473690000000 1.0
C      1  0.4564520000000  0.4912630000000  0.4569650000000 1.0
C      1  0.4806720000000  0.4489500000000  0.4614300000000 1.0
C      1  0.5310230000000  0.4663530000000  0.5387190000000 1.0
C      1  0.5495160000000  0.4908760000000  0.4605960000000 1.0
C      1  0.4860330000000  0.5461460000000  0.4681730000000 1.0
C      1  0.4658560000000  0.5089250000000  0.5575410000000 1.0
C      1  0.4928140000000  0.5147700000000  0.5644250000000 1.0
C      1  0.5598070000000  0.4906500000000  0.5113520000000 1.0
C      1  0.4441390000000  0.5059260000000  0.4789330000000 1.0
C      1  0.4578250000000  0.4640560000000  0.4652030000000 1.0
C      1  0.4695440000000  0.5500000000000  0.4908310000000 1.0
C      1  0.4398190000000  0.4954480000000  0.5240880000000 1.0
C      1  0.5510510000000  0.5332370000000  0.5269170000000 1.0
C      1  0.5031690000000  0.4845870000000  0.4366170000000 1.0
C      1  0.4901780000000  0.4393170000000  0.4870650000000 1.0
C      1  0.5096870000000  0.4848530000000  0.4845260000000 1.0
C      1  0.4765850000000  0.4627760000000  0.5352670000000 1.0
C      1  0.5188970000000  0.4367780000000  0.4827170000000 1.0
C      1  0.5237500000000  0.5426250000000  0.5341010000000 1.0
C      1  0.4851050000000  0.5595790000000  0.5133050000000 1.0
C      1  0.5158580000000  0.5479600000000  0.4676860000000 1.0
C      1  0.5127770000000  0.5182980000000  0.5155040000000 1.0
C      1  0.5544160000000  0.5073310000000  0.4867550000000 1.0
C      1  0.4870060000000  0.5100830000000  0.5148710000000 1.0
C      1  0.4876780000000  0.5262040000000  0.4475910000000 1.0
C      1  0.4785020000000  0.5502790000000  0.5394600000000 1.0
C      1  0.4791410000000  0.5002220000000  0.4416660000000 1.0
C      1  0.5013060000000  0.5401390000000  0.5531900000000 1.0
C      1  0.5098990000000  0.4932800000000  0.5610850000000 1.0
C      1  0.5557200000000  0.5063380000000  0.5347000000000 1.0
C      1  0.4499880000000  0.4607030000000  0.4928590000000 1.0
END
