TITL C-151869-9562-4 1104.41402279165 125000 -182.062170794038 0 0 28 (C1) n - 1
REM
REM in /rds/project/t2_vol4/rds-t2-cs072/BORA/CARBON/from-Arr/AIRSS/Generating-Clusters/GAP-ML-2020/Only-C1/SD-CG/HFTN-CG
REM
REM
REM
REM
REM
REM ./C.cell (11c1c37f851c82e70ff6c80c92926a4b)
REM AIRSS Version 0.9.1 bugfix July 2018 build 013d7b7c2542+ Fri, 06 Jul 2018 19:26:36 +0100
REM compiler GCC version 9.3.0
REM options -cpp -mtune=generic -march=x86-64 -g -O0
REM seed 1398701739 673774723 -1072443895 -664872992 539762696 480619440 1168451404 -2052976239 187822924 1721751015 -758617276 -1869174802 642874503 -1372001313 -3397012 -1373619911 -1793104983 -586499337 1306416229 2063447138 960938962 1581360574 2068320080 373364885 -1308116196 -652402119 -23878289 1152300792 640629294 444283046 -2144841267 372495042 1663059344
REM
CELL 1.54180   50.00000   50.00000   50.00000   90.00000   90.00000   90.00000
LATT -1
SFAC C  
C      1  0.4862140000000  0.4833430000000  0.4633310000000 1.0
C      1  0.5580170000000  0.4664460000000  0.4748030000000 1.0
C      1  0.5176100000000  0.4684530000000  0.5008800000000 1.0
C      1  0.4962510000000  0.4499440000000  0.4901170000000 1.0
C      1  0.4907460000000  0.5145340000000  0.5507420000000 1.0
C      1  0.4788280000000  0.4938060000000  0.4918080000000 1.0
C      1  0.5449730000000  0.5187030000000  0.5031380000000 1.0
C      1  0.4919430000000  0.5026890000000  0.4450620000000 1.0
C      1  0.5042590000000  0.4923750000000  0.5070480000000 1.0
C      1  0.4970230000000  0.5394060000000  0.5117350000000 1.0
C      1  0.4905080000000  0.4557800000000  0.4637160000000 1.0
C      1  0.4658970000000  0.5186470000000  0.4940180000000 1.0
C      1  0.4528910000000  0.4919720000000  0.5283060000000 1.0
C      1  0.4895220000000  0.5489360000000  0.4621630000000 1.0
C      1  0.4479710000000  0.5180910000000  0.5155780000000 1.0
C      1  0.4561870000000  0.5335510000000  0.5385340000000 1.0
C      1  0.5449870000000  0.4674150000000  0.4988020000000 1.0
C      1  0.5606740000000  0.4848500000000  0.5156440000000 1.0
C      1  0.4631200000000  0.5059810000000  0.5516140000000 1.0
C      1  0.5082570000000  0.5018250000000  0.5337280000000 1.0
C      1  0.4724240000000  0.4489060000000  0.5048730000000 1.0
C      1  0.4642770000000  0.4745540000000  0.5090040000000 1.0
C      1  0.5698410000000  0.5095280000000  0.5052270000000 1.0
C      1  0.4818580000000  0.5423400000000  0.4876860000000 1.0
C      1  0.5182420000000  0.5191250000000  0.5113730000000 1.0
C      1  0.5704390000000  0.4802160000000  0.4578790000000 1.0
C      1  0.4930830000000  0.5283940000000  0.4459750000000 1.0
C      1  0.4839590000000  0.5401890000000  0.5372150000000 1.0
END
