TITL C-154596-4072-1 -0.10457308706697 125000 -446.178562639955 0 0 65 (C1) n - 1
REM
REM in /rds/project/t2_vol4/rds-t2-cs072/BORA/CARBON/from-Arr/AIRSS/Generating-Clusters/GAP-ML-2020/Only-C1/SD-CG/HFTN-CG
REM
REM
REM
REM
REM
REM ./C.cell (11c1c37f851c82e70ff6c80c92926a4b)
REM AIRSS Version 0.9.1 bugfix July 2018 build 013d7b7c2542+ Fri, 06 Jul 2018 19:26:36 +0100
REM compiler GCC version 9.3.0
REM options -cpp -mtune=generic -march=x86-64 -g -O0
REM seed 544861297 -1942155021 -340958384 1473533183 -306357673 -535975361 -2143511840 1053234954 1572718293 -298388835 -1680093641 -765516725 1057041408 91233035 668329883 640222486 -1301621877 -468366928 -71006623 279947979 1818056434 940312902 -1797508848 -600596068 -1529084584 1019487058 -810582716 1697504616 1394438233 1316835866 -1467884622 -326411809 -184055684
REM
CELL 1.54180   50.00000   50.00000   50.00000   90.00000   90.00000   90.00000
LATT -1
SFAC C  
C      1  0.5230070000000  0.5188340000000  0.5727180000000 1.0
C      1  0.4724180000000  0.5723430000000  0.5115390000000 1.0
C      1  0.5343470000000  0.4414130000000  0.5434780000000 1.0
C      1  0.4566400000000  0.4351370000000  0.5196480000000 1.0
C      1  0.5031590000000  0.4367990000000  0.5153430000000 1.0
C      1  0.4840770000000  0.5207730000000  0.4922510000000 1.0
C      1  0.4533110000000  0.4858580000000  0.4562030000000 1.0
C      1  0.4510810000000  0.5548760000000  0.5050550000000 1.0
C      1  0.5529160000000  0.4656590000000  0.4929800000000 1.0
C      1  0.5364430000000  0.5474840000000  0.5272590000000 1.0
C      1  0.4405220000000  0.5304970000000  0.5178790000000 1.0
C      1  0.5517050000000  0.5066630000000  0.4724070000000 1.0
C      1  0.5464820000000  0.4357360000000  0.4954090000000 1.0
C      1  0.4606780000000  0.4615180000000  0.5297450000000 1.0
C      1  0.4382310000000  0.5261830000000  0.4716260000000 1.0
C      1  0.5005630000000  0.5241040000000  0.5545550000000 1.0
C      1  0.4682230000000  0.4642670000000  0.4462530000000 1.0
C      1  0.5256720000000  0.4771490000000  0.5020000000000 1.0
C      1  0.5109570000000  0.5496650000000  0.5413650000000 1.0
C      1  0.4781300000000  0.4302180000000  0.4769650000000 1.0
C      1  0.4302670000000  0.5144660000000  0.4961120000000 1.0
C      1  0.4839610000000  0.5005750000000  0.5103200000000 1.0
C      1  0.4932780000000  0.5703670000000  0.4642100000000 1.0
C      1  0.5379780000000  0.4863120000000  0.4549430000000 1.0
C      1  0.4797230000000  0.4618570000000  0.5522520000000 1.0
C      1  0.5496290000000  0.4856780000000  0.5444730000000 1.0
C      1  0.4495230000000  0.5512560000000  0.4760700000000 1.0
C      1  0.5332610000000  0.4377110000000  0.4688720000000 1.0
C      1  0.5031310000000  0.5176750000000  0.4389080000000 1.0
C      1  0.4781190000000  0.4740260000000  0.5014180000000 1.0
C      1  0.5486640000000  0.5335830000000  0.4611070000000 1.0
C      1  0.4905340000000  0.5819020000000  0.4899630000000 1.0
C      1  0.4535310000000  0.5129350000000  0.4518940000000 1.0
C      1  0.5029300000000  0.5029770000000  0.5325480000000 1.0
C      1  0.5637460000000  0.5021770000000  0.5224090000000 1.0
C      1  0.4772990000000  0.4247080000000  0.5054720000000 1.0
C      1  0.5539940000000  0.4584010000000  0.5516950000000 1.0
C      1  0.5670440000000  0.4932870000000  0.4956110000000 1.0
C      1  0.4723070000000  0.5110880000000  0.5580780000000 1.0
C      1  0.5043490000000  0.4452290000000  0.4684230000000 1.0
C      1  0.4516280000000  0.4727150000000  0.4835250000000 1.0
C      1  0.4962900000000  0.4657220000000  0.4468950000000 1.0
C      1  0.5028980000000  0.4596420000000  0.4948870000000 1.0
C      1  0.5208080000000  0.4804630000000  0.5315290000000 1.0
C      1  0.5470990000000  0.4617620000000  0.4635700000000 1.0
C      1  0.4761610000000  0.5288550000000  0.4436200000000 1.0
C      1  0.4329170000000  0.4869770000000  0.5014080000000 1.0
C      1  0.5189800000000  0.5619710000000  0.4566630000000 1.0
C      1  0.4763890000000  0.4850890000000  0.5655150000000 1.0
C      1  0.5312080000000  0.4286620000000  0.5176030000000 1.0
C      1  0.4579070000000  0.4465630000000  0.4680840000000 1.0
C      1  0.5411300000000  0.5583460000000  0.4752810000000 1.0
C      1  0.5268340000000  0.5023090000000  0.4879610000000 1.0
C      1  0.5540940000000  0.5264450000000  0.5353600000000 1.0
C      1  0.5132080000000  0.5807110000000  0.5072660000000 1.0
C      1  0.5060850000000  0.4541310000000  0.5407160000000 1.0
C      1  0.4961570000000  0.5706640000000  0.5292520000000 1.0
C      1  0.4416360000000  0.4852130000000  0.5287710000000 1.0
C      1  0.5453980000000  0.5124150000000  0.5595130000000 1.0
C      1  0.5360250000000  0.5645870000000  0.5031300000000 1.0
C      1  0.5090800000000  0.5237760000000  0.4873020000000 1.0
C      1  0.5118000000000  0.4896860000000  0.4425030000000 1.0
C      1  0.5243640000000  0.5365190000000  0.4435980000000 1.0
C      1  0.4716410000000  0.5538520000000  0.4571170000000 1.0
C      1  0.4484350000000  0.5115390000000  0.5394760000000 1.0
END
