TITL C-150990-9196-6 0.0913768029669558 125000 -209.38594380695 0 0 32 (C1) n - 1
REM
REM in /rds/project/t2_vol4/rds-t2-cs072/BORA/CARBON/from-Arr/AIRSS/Generating-Clusters/GAP-ML-2020/Only-C1/SD-CG/HFTN-CG
REM
REM
REM
REM
REM
REM ./C.cell (11c1c37f851c82e70ff6c80c92926a4b)
REM AIRSS Version 0.9.1 bugfix July 2018 build 013d7b7c2542+ Fri, 06 Jul 2018 19:26:36 +0100
REM compiler GCC version 9.3.0
REM options -cpp -mtune=generic -march=x86-64 -g -O0
REM seed 417412532 -2104641212 -1468478912 -1971169225 -1274368170 -1720117917 2027927962 1024333616 -1957447819 -95617289 -1503184808 -1199278070 1564634911 -762478120 1864120369 2115777544 -1885785501 -560005644 -328169173 -779795211 402116890 888412592 -438702861 1800030250 1357349202 426332356 1143641943 -1583434717 -743435266 431371938 1212922859 682607088 -895140963
REM
CELL 1.54180   50.00000   50.00000   50.00000   90.00000   90.00000   90.00000
LATT -1
SFAC C  
C      1  0.4704050000000  0.4860300000000  0.5605870000000 1.0
C      1  0.4828050000000  0.4627300000000  0.5135170000000 1.0
C      1  0.4527820000000  0.5205100000000  0.4955020000000 1.0
C      1  0.4746580000000  0.4965630000000  0.4582820000000 1.0
C      1  0.4911750000000  0.4702820000000  0.5654060000000 1.0
C      1  0.5169430000000  0.5660590000000  0.5012170000000 1.0
C      1  0.5389910000000  0.4976810000000  0.4974590000000 1.0
C      1  0.5058590000000  0.4513110000000  0.5008630000000 1.0
C      1  0.4534640000000  0.4972900000000  0.5117350000000 1.0
C      1  0.4943520000000  0.5513410000000  0.5436570000000 1.0
C      1  0.4612300000000  0.4725050000000  0.4988090000000 1.0
C      1  0.4743340000000  0.4729080000000  0.4733980000000 1.0
C      1  0.5121650000000  0.5027300000000  0.5046600000000 1.0
C      1  0.5144630000000  0.5453880000000  0.4840580000000 1.0
C      1  0.5110650000000  0.5209190000000  0.4393010000000 1.0
C      1  0.5008380000000  0.4605780000000  0.4732270000000 1.0
C      1  0.5518000000000  0.4562390000000  0.5240140000000 1.0
C      1  0.5531390000000  0.4797650000000  0.5124760000000 1.0
C      1  0.4718970000000  0.5030310000000  0.5353880000000 1.0
C      1  0.5081030000000  0.5645700000000  0.5258890000000 1.0
C      1  0.4986150000000  0.5230940000000  0.4913850000000 1.0
C      1  0.4615720000000  0.5422950000000  0.5119340000000 1.0
C      1  0.5241970000000  0.4538660000000  0.5241370000000 1.0
C      1  0.5408010000000  0.4854860000000  0.4499150000000 1.0
C      1  0.4745480000000  0.5335520000000  0.5346910000000 1.0
C      1  0.4977460000000  0.4960430000000  0.4412320000000 1.0
C      1  0.5428500000000  0.5055120000000  0.4693470000000 1.0
C      1  0.4720900000000  0.5188790000000  0.4753660000000 1.0
C      1  0.4977720000000  0.4899710000000  0.5247530000000 1.0
C      1  0.5245150000000  0.5279340000000  0.4630250000000 1.0
C      1  0.5095740000000  0.4706710000000  0.5434990000000 1.0
C      1  0.5152500000000  0.4742680000000  0.4512720000000 1.0
END
