TITL C-151848-1674-2 14.0503030960024 125000 -512.261994528486 0 0 73 (C1) n - 1
REM
REM in /rds/project/t2_vol4/rds-t2-cs072/BORA/CARBON/from-Arr/AIRSS/Generating-Clusters/GAP-ML-2020/Only-C1/SD-CG/HFTN-CG
REM
REM
REM
REM
REM
REM ./C.cell (11c1c37f851c82e70ff6c80c92926a4b)
REM AIRSS Version 0.9.1 bugfix July 2018 build 013d7b7c2542+ Fri, 06 Jul 2018 19:26:36 +0100
REM compiler GCC version 9.3.0
REM options -cpp -mtune=generic -march=x86-64 -g -O0
REM seed -640792979 -1118330118 2045148195 -1105533682 252204411 -601771670 1178669174 2072515348 -1068321852 437478952 -751748400 2142657584 1765120115 708242962 -1018602517 -557578335 216193905 -329686888 705899546 540064694 -1031847466 1559141984 2107269264 2096187886 506653724 -111014174 -1048513838 -1565756391 1957044094 -829262933 -1837458207 1573866273 -2005534827
REM
CELL 1.54180   50.00000   50.00000   50.00000   90.00000   90.00000   90.00000
LATT -1
SFAC C  
C      1  0.5243740000000  0.4266070000000  0.4728510000000 1.0
C      1  0.5362520000000  0.4688360000000  0.4465810000000 1.0
C      1  0.5171770000000  0.4862480000000  0.4320610000000 1.0
C      1  0.5057760000000  0.5225880000000  0.4956370000000 1.0
C      1  0.5497640000000  0.5544820000000  0.4895570000000 1.0
C      1  0.4660940000000  0.5502970000000  0.5399000000000 1.0
C      1  0.5003450000000  0.4769260000000  0.4780040000000 1.0
C      1  0.4909950000000  0.4837880000000  0.5233590000000 1.0
C      1  0.4892730000000  0.5386100000000  0.5545280000000 1.0
C      1  0.4968630000000  0.4197810000000  0.4793020000000 1.0
C      1  0.5323240000000  0.5730860000000  0.5027340000000 1.0
C      1  0.4943200000000  0.5111630000000  0.5649890000000 1.0
C      1  0.5009230000000  0.4634850000000  0.5654570000000 1.0
C      1  0.4723160000000  0.4686540000000  0.5629710000000 1.0
C      1  0.5363680000000  0.4834350000000  0.5393580000000 1.0
C      1  0.4372370000000  0.5130090000000  0.5253360000000 1.0
C      1  0.4586930000000  0.4355450000000  0.5003240000000 1.0
C      1  0.5318570000000  0.5596120000000  0.5277220000000 1.0
C      1  0.4469170000000  0.4755050000000  0.4440230000000 1.0
C      1  0.5073410000000  0.4878520000000  0.5471810000000 1.0
C      1  0.5436760000000  0.5072060000000  0.5784490000000 1.0
C      1  0.4436600000000  0.5404670000000  0.5256640000000 1.0
C      1  0.5095420000000  0.5781210000000  0.4870060000000 1.0
C      1  0.4620390000000  0.5715320000000  0.4827820000000 1.0
C      1  0.4411550000000  0.4630780000000  0.4670000000000 1.0
C      1  0.5927610000000  0.5086650000000  0.5225620000000 1.0
C      1  0.4476800000000  0.4587200000000  0.5134850000000 1.0
C      1  0.5544330000000  0.5062420000000  0.4612020000000 1.0
C      1  0.4522110000000  0.5323200000000  0.4555550000000 1.0
C      1  0.4382980000000  0.5493500000000  0.4985970000000 1.0
C      1  0.4355850000000  0.4757090000000  0.4931800000000 1.0
C      1  0.4957500000000  0.4463470000000  0.4406700000000 1.0
C      1  0.4365510000000  0.5266360000000  0.4801070000000 1.0
C      1  0.5064650000000  0.5584860000000  0.5408540000000 1.0
C      1  0.4852910000000  0.4240370000000  0.5063640000000 1.0
C      1  0.5414260000000  0.4298110000000  0.4937210000000 1.0
C      1  0.5389610000000  0.4537580000000  0.5369760000000 1.0
C      1  0.5543640000000  0.4801730000000  0.4661620000000 1.0
C      1  0.5511850000000  0.4473980000000  0.5109740000000 1.0
C      1  0.5801150000000  0.4908440000000  0.5083530000000 1.0
C      1  0.4552620000000  0.4382450000000  0.4720680000000 1.0
C      1  0.5593690000000  0.4750790000000  0.4967340000000 1.0
C      1  0.5185410000000  0.5148440000000  0.4320840000000 1.0
C      1  0.5172920000000  0.5020710000000  0.5858900000000 1.0
C      1  0.4797370000000  0.4308420000000  0.4590660000000 1.0
C      1  0.5116120000000  0.4747760000000  0.5890700000000 1.0
C      1  0.5229650000000  0.4438060000000  0.4493360000000 1.0
C      1  0.5488100000000  0.5359370000000  0.5159040000000 1.0
C      1  0.4686050000000  0.5166420000000  0.4358860000000 1.0
C      1  0.5535950000000  0.5039570000000  0.5534070000000 1.0
C      1  0.4924230000000  0.5032260000000  0.4803590000000 1.0
C      1  0.4853060000000  0.5086760000000  0.5078860000000 1.0
C      1  0.4922050000000  0.4727300000000  0.4294240000000 1.0
C      1  0.4835170000000  0.5694880000000  0.5267360000000 1.0
C      1  0.4319340000000  0.5038090000000  0.4979260000000 1.0
C      1  0.5100070000000  0.4729150000000  0.5033590000000 1.0
C      1  0.5143210000000  0.4421220000000  0.5464280000000 1.0
C      1  0.5682020000000  0.5192320000000  0.5326410000000 1.0
C      1  0.4349030000000  0.5752780000000  0.4902870000000 1.0
C      1  0.4939550000000  0.5296490000000  0.4328090000000 1.0
C      1  0.5305340000000  0.5162290000000  0.5066880000000 1.0
C      1  0.4925930000000  0.5548390000000  0.4465370000000 1.0
C      1  0.5402000000000  0.5253340000000  0.4486690000000 1.0
C      1  0.4669940000000  0.5563640000000  0.4586480000000 1.0
C      1  0.4502600000000  0.4971970000000  0.5440910000000 1.0
C      1  0.4990610000000  0.4285760000000  0.5292230000000 1.0
C      1  0.4675420000000  0.4881300000000  0.4317150000000 1.0
C      1  0.4844290000000  0.5778630000000  0.4996770000000 1.0
C      1  0.4635900000000  0.4719540000000  0.5344570000000 1.0
C      1  0.5388230000000  0.5501910000000  0.4634020000000 1.0
C      1  0.4677460000000  0.4977280000000  0.5664420000000 1.0
C      1  0.5141860000000  0.5652170000000  0.4614460000000 1.0
C      1  0.5351270000000  0.4886430000000  0.5101660000000 1.0
END
