TITL C-154601-4245-4 2.47726610195421 125000 -987.254642734683 0 0 140 (C1) n - 1
REM
REM in /rds/project/t2_vol4/rds-t2-cs072/BORA/CARBON/from-Arr/AIRSS/Generating-Clusters/GAP-ML-2020/Only-C1/SD-CG/HFTN-CG
REM
REM
REM
REM
REM
REM ./C.cell (11c1c37f851c82e70ff6c80c92926a4b)
REM AIRSS Version 0.9.1 bugfix July 2018 build 013d7b7c2542+ Fri, 06 Jul 2018 19:26:36 +0100
REM compiler GCC version 9.3.0
REM options -cpp -mtune=generic -march=x86-64 -g -O0
REM seed 729875173 996702748 1137382003 1972003467 1941141833 579653601 -1731932998 415541504 439185041 2054793260 -2009687132 -995136035 -1698582538 142904750 2102038132 -57090871 1075917718 -461300277 32000391 -634370150 -1710221292 -936115895 795230230 -867688792 -2112384392 1938153955 1636737202 -370598824 -833264778 330012809 1681667838 1971724180 2020519194
REM
CELL 1.54180   50.00000   50.00000   50.00000   90.00000   90.00000   90.00000
LATT -1
SFAC C  
C      1  0.5104480000000  0.5259770000000  0.4076960000000 1.0
C      1  0.4569340000000  0.4847850000000  0.5532890000000 1.0
C      1  0.4785490000000  0.4560500000000  0.4123310000000 1.0
C      1  0.4785900000000  0.4839620000000  0.4071240000000 1.0
C      1  0.4260510000000  0.5449800000000  0.4855180000000 1.0
C      1  0.5686040000000  0.5585090000000  0.4821040000000 1.0
C      1  0.5156640000000  0.5201480000000  0.4720140000000 1.0
C      1  0.4800240000000  0.5495850000000  0.4646280000000 1.0
C      1  0.4617170000000  0.4237450000000  0.4452290000000 1.0
C      1  0.5399620000000  0.5130000000000  0.4874840000000 1.0
C      1  0.4996530000000  0.5957670000000  0.4520290000000 1.0
C      1  0.5082620000000  0.4434860000000  0.4962610000000 1.0
C      1  0.5375850000000  0.4875350000000  0.5007550000000 1.0
C      1  0.4926560000000  0.5701680000000  0.5608710000000 1.0
C      1  0.5709400000000  0.4397040000000  0.5187960000000 1.0
C      1  0.5642720000000  0.4989270000000  0.4042270000000 1.0
C      1  0.5575490000000  0.4973880000000  0.5845870000000 1.0
C      1  0.5499010000000  0.4850090000000  0.4239390000000 1.0
C      1  0.4129800000000  0.4755320000000  0.5048720000000 1.0
C      1  0.4630000000000  0.4925070000000  0.5956650000000 1.0
C      1  0.5075120000000  0.5908040000000  0.5493420000000 1.0
C      1  0.4502170000000  0.5130700000000  0.5461050000000 1.0
C      1  0.5070710000000  0.4991410000000  0.4545830000000 1.0
C      1  0.5732040000000  0.5290540000000  0.4454030000000 1.0
C      1  0.5697430000000  0.4600910000000  0.5390330000000 1.0
C      1  0.5390990000000  0.4245050000000  0.5486210000000 1.0
C      1  0.5646610000000  0.5162940000000  0.5668410000000 1.0
C      1  0.5154440000000  0.4552900000000  0.4375950000000 1.0
C      1  0.5928510000000  0.4886710000000  0.5040150000000 1.0
C      1  0.4875420000000  0.4831720000000  0.5538070000000 1.0
C      1  0.4276280000000  0.4302260000000  0.5142190000000 1.0
C      1  0.5809850000000  0.5123150000000  0.5432300000000 1.0
C      1  0.4149500000000  0.5039260000000  0.5062850000000 1.0
C      1  0.5249530000000  0.4659530000000  0.4839120000000 1.0
C      1  0.4462430000000  0.4738920000000  0.5794240000000 1.0
C      1  0.4174040000000  0.4686180000000  0.5765100000000 1.0
C      1  0.4812560000000  0.5542160000000  0.5376340000000 1.0
C      1  0.5139820000000  0.4097640000000  0.5470550000000 1.0
C      1  0.5477050000000  0.4499550000000  0.5584770000000 1.0
C      1  0.5613260000000  0.5527160000000  0.4553280000000 1.0
C      1  0.5580160000000  0.5202190000000  0.4223180000000 1.0
C      1  0.4932530000000  0.6011300000000  0.5264770000000 1.0
C      1  0.4996260000000  0.5569990000000  0.5844170000000 1.0
C      1  0.5219000000000  0.5163660000000  0.5431630000000 1.0
C      1  0.4714990000000  0.5880880000000  0.4886900000000 1.0
C      1  0.5407820000000  0.4532900000000  0.4576580000000 1.0
C      1  0.5515690000000  0.5627630000000  0.5534720000000 1.0
C      1  0.5288230000000  0.4617940000000  0.5771760000000 1.0
C      1  0.5867630000000  0.5092400000000  0.4613430000000 1.0
C      1  0.4462570000000  0.5332820000000  0.5676570000000 1.0
C      1  0.5262860000000  0.3968530000000  0.4598740000000 1.0
C      1  0.5126530000000  0.3966720000000  0.5216050000000 1.0
C      1  0.4170720000000  0.5096960000000  0.4576940000000 1.0
C      1  0.5836670000000  0.4859480000000  0.5314610000000 1.0
C      1  0.5560750000000  0.4316470000000  0.4731160000000 1.0
C      1  0.4995620000000  0.4370040000000  0.4185760000000 1.0
C      1  0.4769570000000  0.5263210000000  0.5448950000000 1.0
C      1  0.5374050000000  0.5898620000000  0.5151800000000 1.0
C      1  0.4988090000000  0.4795270000000  0.4735340000000 1.0
C      1  0.5750690000000  0.4440420000000  0.4908840000000 1.0
C      1  0.4617710000000  0.5217620000000  0.5916060000000 1.0
C      1  0.4843330000000  0.3937950000000  0.5148980000000 1.0
C      1  0.4600750000000  0.4914200000000  0.5023130000000 1.0
C      1  0.5173520000000  0.5324570000000  0.5188350000000 1.0
C      1  0.5244540000000  0.5422070000000  0.5885910000000 1.0
C      1  0.4618940000000  0.5438280000000  0.4061400000000 1.0
C      1  0.4236910000000  0.4810480000000  0.4566010000000 1.0
C      1  0.4710910000000  0.5862640000000  0.4164250000000 1.0
C      1  0.5270360000000  0.4891620000000  0.5278630000000 1.0
C      1  0.4220790000000  0.4646570000000  0.4804790000000 1.0
C      1  0.4720770000000  0.5325750000000  0.4864640000000 1.0
C      1  0.4320890000000  0.5305980000000  0.4433210000000 1.0
C      1  0.4456380000000  0.4100210000000  0.5210920000000 1.0
C      1  0.5024590000000  0.4087620000000  0.4563130000000 1.0
C      1  0.4617550000000  0.4012520000000  0.4975170000000 1.0
C      1  0.4900660000000  0.4564660000000  0.4573130000000 1.0
C      1  0.5876270000000  0.4684030000000  0.4846250000000 1.0
C      1  0.5341700000000  0.5355300000000  0.4206370000000 1.0
C      1  0.4676900000000  0.5886840000000  0.5164430000000 1.0
C      1  0.4890660000000  0.4926230000000  0.5017670000000 1.0
C      1  0.4537710000000  0.4946230000000  0.4185840000000 1.0
C      1  0.5353450000000  0.4846370000000  0.5924700000000 1.0
C      1  0.4475310000000  0.5227430000000  0.4202710000000 1.0
C      1  0.4067510000000  0.4605120000000  0.5549150000000 1.0
C      1  0.4920210000000  0.4316780000000  0.4743410000000 1.0
C      1  0.4475090000000  0.4609920000000  0.5368950000000 1.0
C      1  0.5157100000000  0.5803280000000  0.4331550000000 1.0
C      1  0.4803540000000  0.4386480000000  0.5703950000000 1.0
C      1  0.4629090000000  0.4532080000000  0.4378700000000 1.0
C      1  0.5203530000000  0.4839470000000  0.4287510000000 1.0
C      1  0.5746550000000  0.5593220000000  0.5401820000000 1.0
C      1  0.5531180000000  0.4184650000000  0.5250290000000 1.0
C      1  0.5611700000000  0.4698800000000  0.4451130000000 1.0
C      1  0.4999720000000  0.4777740000000  0.5271320000000 1.0
C      1  0.4914430000000  0.5466790000000  0.4042980000000 1.0
C      1  0.4429230000000  0.4752890000000  0.4363480000000 1.0
C      1  0.4191530000000  0.4566940000000  0.5284960000000 1.0
C      1  0.5329730000000  0.5566500000000  0.4417730000000 1.0
C      1  0.5116520000000  0.4957180000000  0.6050040000000 1.0
C      1  0.4971830000000  0.5110670000000  0.5575950000000 1.0
C      1  0.4608670000000  0.5733480000000  0.4640160000000 1.0
C      1  0.5037910000000  0.4978540000000  0.4090130000000 1.0
C      1  0.5006530000000  0.5926940000000  0.4816170000000 1.0
C      1  0.4120640000000  0.5202840000000  0.4834870000000 1.0
C      1  0.4721260000000  0.5927370000000  0.4438860000000 1.0
C      1  0.5431190000000  0.4065350000000  0.4795140000000 1.0
C      1  0.4414310000000  0.4433360000000  0.4907880000000 1.0
C      1  0.5381010000000  0.4021760000000  0.5075770000000 1.0
C      1  0.4979060000000  0.4617960000000  0.5763710000000 1.0
C      1  0.5352900000000  0.5843710000000  0.5428490000000 1.0
C      1  0.5938010000000  0.5142480000000  0.4884700000000 1.0
C      1  0.4608670000000  0.4226320000000  0.4763910000000 1.0
C      1  0.4602870000000  0.4605250000000  0.5098500000000 1.0
C      1  0.4548160000000  0.4476750000000  0.5648580000000 1.0
C      1  0.4848440000000  0.5366090000000  0.5990130000000 1.0
C      1  0.4513610000000  0.5702150000000  0.4057060000000 1.0
C      1  0.5018970000000  0.5550580000000  0.5145190000000 1.0
C      1  0.5099870000000  0.5234000000000  0.6054770000000 1.0
C      1  0.4973630000000  0.5208780000000  0.4976620000000 1.0
C      1  0.5443400000000  0.5662100000000  0.4970100000000 1.0
C      1  0.4360600000000  0.5540180000000  0.4607060000000 1.0
C      1  0.4890280000000  0.4805930000000  0.5986240000000 1.0
C      1  0.4469840000000  0.5420800000000  0.5068400000000 1.0
C      1  0.5419440000000  0.5362980000000  0.5649010000000 1.0
C      1  0.4405250000000  0.5142330000000  0.5186670000000 1.0
C      1  0.4406460000000  0.5575020000000  0.5557740000000 1.0
C      1  0.5868840000000  0.5393980000000  0.4985170000000 1.0
C      1  0.4897560000000  0.4535990000000  0.5151300000000 1.0
C      1  0.5103770000000  0.5480360000000  0.4638820000000 1.0
C      1  0.4869040000000  0.4154300000000  0.4335810000000 1.0
C      1  0.4586330000000  0.5073950000000  0.4781140000000 1.0
C      1  0.4976260000000  0.5733670000000  0.4121540000000 1.0
C      1  0.5148080000000  0.5664370000000  0.4868100000000 1.0
C      1  0.5848440000000  0.5372880000000  0.5277280000000 1.0
C      1  0.5128650000000  0.6034230000000  0.5066610000000 1.0
C      1  0.5822780000000  0.4808840000000  0.4596850000000 1.0
C      1  0.4871860000000  0.4150500000000  0.5569180000000 1.0
C      1  0.4541840000000  0.5637350000000  0.5290140000000 1.0
C      1  0.4687660000000  0.4036070000000  0.5379990000000 1.0
C      1  0.5427190000000  0.5354970000000  0.5063300000000 1.0
END
