TITL C-151872-9520-1 74.1150891621465 125000 -324.057252833777 0 0 49 (C1) n - 1
REM
REM in /rds/project/t2_vol4/rds-t2-cs072/BORA/CARBON/from-Arr/AIRSS/Generating-Clusters/GAP-ML-2020/Only-C1/SD-CG/HFTN-CG
REM
REM
REM
REM
REM
REM ./C.cell (11c1c37f851c82e70ff6c80c92926a4b)
REM AIRSS Version 0.9.1 bugfix July 2018 build 013d7b7c2542+ Fri, 06 Jul 2018 19:26:36 +0100
REM compiler GCC version 9.3.0
REM options -cpp -mtune=generic -march=x86-64 -g -O0
REM seed -974846767 -1157995864 1690098289 -2105342518 1521553205 969472651 -908841600 936362852 21490802 1889430122 -1938373681 260105132 1848288586 -288417887 -2027931743 668914020 677871133 1083372545 46311837 1095791678 1446474279 575760239 -1131815774 -1717456918 -1042097655 106201771 1159755743 -1578936701 -750477777 1212073407 -467973649 -1361693065 415318725
REM
CELL 1.54180   50.00000   50.00000   50.00000   90.00000   90.00000   90.00000
LATT -1
SFAC C  
C      1  0.5040390000000  0.4412680000000  0.5289050000000 1.0
C      1  0.4808780000000  0.4496500000000  0.5412660000000 1.0
C      1  0.5043880000000  0.5238570000000  0.4407610000000 1.0
C      1  0.4526750000000  0.4911060000000  0.5466770000000 1.0
C      1  0.4978420000000  0.4465050000000  0.4810380000000 1.0
C      1  0.4529600000000  0.4615310000000  0.5063090000000 1.0
C      1  0.4778330000000  0.5079880000000  0.5516650000000 1.0
C      1  0.4703770000000  0.4516820000000  0.4838050000000 1.0
C      1  0.5524770000000  0.5300010000000  0.5089720000000 1.0
C      1  0.5609530000000  0.4948440000000  0.4717470000000 1.0
C      1  0.4997170000000  0.5496750000000  0.4531040000000 1.0
C      1  0.4514040000000  0.5540730000000  0.4743790000000 1.0
C      1  0.4437130000000  0.4831790000000  0.4895630000000 1.0
C      1  0.4568210000000  0.5390020000000  0.4968880000000 1.0
C      1  0.5057670000000  0.4558610000000  0.5540450000000 1.0
C      1  0.5121140000000  0.5533860000000  0.4783560000000 1.0
C      1  0.5129250000000  0.4878760000000  0.4814230000000 1.0
C      1  0.5289570000000  0.5690510000000  0.4927990000000 1.0
C      1  0.5073650000000  0.5400360000000  0.5516310000000 1.0
C      1  0.5039350000000  0.5306290000000  0.4959980000000 1.0
C      1  0.4811060000000  0.5350520000000  0.5397170000000 1.0
C      1  0.5219600000000  0.4705860000000  0.5699750000000 1.0
C      1  0.5181390000000  0.4969640000000  0.5274780000000 1.0
C      1  0.5259140000000  0.5188200000000  0.5112090000000 1.0
C      1  0.5185880000000  0.5004130000000  0.4363480000000 1.0
C      1  0.4764690000000  0.4979090000000  0.5038210000000 1.0
C      1  0.4726190000000  0.4861620000000  0.4467710000000 1.0
C      1  0.4574910000000  0.4643610000000  0.5339750000000 1.0
C      1  0.5440780000000  0.4909010000000  0.4474130000000 1.0
C      1  0.5253240000000  0.4803720000000  0.5056580000000 1.0
C      1  0.5401950000000  0.5563520000000  0.5156480000000 1.0
C      1  0.5422140000000  0.4574690000000  0.5006330000000 1.0
C      1  0.5635010000000  0.5138330000000  0.4909230000000 1.0
C      1  0.5163760000000  0.4434270000000  0.5031940000000 1.0
C      1  0.5057340000000  0.5151560000000  0.5666800000000 1.0
C      1  0.5262120000000  0.5556930000000  0.5405880000000 1.0
C      1  0.4805180000000  0.5422060000000  0.5125440000000 1.0
C      1  0.5396210000000  0.4625500000000  0.4549260000000 1.0
C      1  0.4791340000000  0.5141060000000  0.4556730000000 1.0
C      1  0.4380810000000  0.5065230000000  0.5302470000000 1.0
C      1  0.5237740000000  0.4952820000000  0.5585320000000 1.0
C      1  0.4584980000000  0.4723150000000  0.4666210000000 1.0
C      1  0.4986520000000  0.4775710000000  0.4393270000000 1.0
C      1  0.4926950000000  0.5073030000000  0.4827120000000 1.0
C      1  0.4483680000000  0.5102870000000  0.5039690000000 1.0
C      1  0.5112180000000  0.4627990000000  0.4606620000000 1.0
C      1  0.4897200000000  0.4974270000000  0.5277530000000 1.0
C      1  0.4708210000000  0.5427480000000  0.4598140000000 1.0
C      1  0.5558410000000  0.4642160000000  0.4778570000000 1.0
END
