TITL C-158501-1881-9 -31.0077293732069 125000 -437.69309420752 0 0 64 (C1) n - 1
REM
REM in /rds/project/t2_vol4/rds-t2-cs072/BORA/CARBON/from-Arr/AIRSS/Generating-Clusters/GAP-ML-2020/Only-C1/SD-CG/HFTN-CG
REM
REM
REM
REM
REM
REM ./C.cell (11c1c37f851c82e70ff6c80c92926a4b)
REM AIRSS Version 0.9.1 bugfix July 2018 build 013d7b7c2542+ Fri, 06 Jul 2018 19:26:36 +0100
REM compiler GCC version 9.3.0
REM options -cpp -mtune=generic -march=x86-64 -g -O0
REM seed -1151404399 715389629 295710817 -854025723 -563536344 204438071 -742957882 -452973226 -197054748 -1538051221 -859822302 -975691588 -844721739 1752530217 -1735934549 1837635871 1751407328 -59699923 1916554755 -1646284508 -1915204766 1376936859 335573249 437492576 1505141318 1639740585 166188049 -2070744446 163623553 -818050049 857100014 -1020237847 1832196861
REM
CELL 1.54180   50.00000   50.00000   50.00000   90.00000   90.00000   90.00000
LATT -1
SFAC C  
C      1  0.4907830000000  0.4834040000000  0.5110510000000 1.0
C      1  0.5068260000000  0.4362560000000  0.5105660000000 1.0
C      1  0.5084380000000  0.4607900000000  0.4681990000000 1.0
C      1  0.5583610000000  0.4754790000000  0.5404780000000 1.0
C      1  0.5174160000000  0.5013100000000  0.4399100000000 1.0
C      1  0.4436450000000  0.5144910000000  0.4624980000000 1.0
C      1  0.5317110000000  0.4393120000000  0.4714280000000 1.0
C      1  0.5334440000000  0.4937310000000  0.5476210000000 1.0
C      1  0.5211460000000  0.4527280000000  0.5320640000000 1.0
C      1  0.4914470000000  0.4568920000000  0.4935540000000 1.0
C      1  0.5329580000000  0.4784770000000  0.4763520000000 1.0
C      1  0.4557930000000  0.5328150000000  0.5445650000000 1.0
C      1  0.5567270000000  0.4341780000000  0.5124560000000 1.0
C      1  0.4497040000000  0.5414580000000  0.4694330000000 1.0
C      1  0.5586150000000  0.5392370000000  0.4768650000000 1.0
C      1  0.4991150000000  0.4478920000000  0.5502690000000 1.0
C      1  0.4607600000000  0.4807290000000  0.5200160000000 1.0
C      1  0.4930510000000  0.5653410000000  0.5439790000000 1.0
C      1  0.5069350000000  0.5274230000000  0.4344610000000 1.0
C      1  0.5491370000000  0.4480090000000  0.5366190000000 1.0
C      1  0.4863360000000  0.4292760000000  0.5311330000000 1.0
C      1  0.5175250000000  0.5469580000000  0.5094530000000 1.0
C      1  0.4579100000000  0.4720330000000  0.5510080000000 1.0
C      1  0.5058650000000  0.5756450000000  0.4392500000000 1.0
C      1  0.5450100000000  0.5542890000000  0.4591580000000 1.0
C      1  0.5708140000000  0.4808160000000  0.5154890000000 1.0
C      1  0.5212340000000  0.5525110000000  0.4442740000000 1.0
C      1  0.4766520000000  0.5881020000000  0.4769570000000 1.0
C      1  0.5692590000000  0.4559710000000  0.4989670000000 1.0
C      1  0.5407260000000  0.4974030000000  0.4555650000000 1.0
C      1  0.4911560000000  0.5072570000000  0.4959800000000 1.0
C      1  0.4392030000000  0.5168870000000  0.5619550000000 1.0
C      1  0.4608830000000  0.4562430000000  0.4997090000000 1.0
C      1  0.4834510000000  0.5412910000000  0.5538080000000 1.0
C      1  0.4484430000000  0.4438640000000  0.5453950000000 1.0
C      1  0.5052520000000  0.5225030000000  0.5580320000000 1.0
C      1  0.5614200000000  0.5041460000000  0.5008680000000 1.0
C      1  0.5306520000000  0.4260700000000  0.4962540000000 1.0
C      1  0.4712400000000  0.4800010000000  0.4408220000000 1.0
C      1  0.4816370000000  0.5750530000000  0.4528690000000 1.0
C      1  0.5327570000000  0.4948150000000  0.5006440000000 1.0
C      1  0.4746550000000  0.5709810000000  0.4983600000000 1.0
C      1  0.4532200000000  0.4617550000000  0.4518570000000 1.0
C      1  0.5192990000000  0.4816480000000  0.5236890000000 1.0
C      1  0.4493460000000  0.5301420000000  0.5165800000000 1.0
C      1  0.4973260000000  0.5658940000000  0.5169320000000 1.0
C      1  0.5537680000000  0.4577990000000  0.4755470000000 1.0
C      1  0.4594630000000  0.4347360000000  0.5221600000000 1.0
C      1  0.4376820000000  0.4953310000000  0.4822670000000 1.0
C      1  0.4454490000000  0.4669610000000  0.4773560000000 1.0
C      1  0.4536970000000  0.5501250000000  0.4962130000000 1.0
C      1  0.4997760000000  0.4777830000000  0.4451400000000 1.0
C      1  0.4618560000000  0.5070210000000  0.4412550000000 1.0
C      1  0.4441710000000  0.5030060000000  0.5084650000000 1.0
C      1  0.4784560000000  0.5292680000000  0.4357700000000 1.0
C      1  0.5605050000000  0.5114310000000  0.4704880000000 1.0
C      1  0.5320010000000  0.5234660000000  0.5459980000000 1.0
C      1  0.4666120000000  0.5516180000000  0.4490040000000 1.0
C      1  0.4396190000000  0.4917760000000  0.5646200000000 1.0
C      1  0.5146130000000  0.5200090000000  0.4954030000000 1.0
C      1  0.5608120000000  0.5327330000000  0.5061190000000 1.0
C      1  0.5406900000000  0.5407460000000  0.5248620000000 1.0
C      1  0.5063280000000  0.4933390000000  0.5613790000000 1.0
C      1  0.4872200000000  0.4713520000000  0.5605640000000 1.0
END
