TITL C-154611-4165-3 0.0362391453033522 125000 -118.308564933848 0 0 19 (C1) n - 1
REM
REM in /rds/project/t2_vol4/rds-t2-cs072/BORA/CARBON/from-Arr/AIRSS/Generating-Clusters/GAP-ML-2020/Only-C1/SD-CG/HFTN-CG
REM
REM
REM
REM
REM
REM ./C.cell (11c1c37f851c82e70ff6c80c92926a4b)
REM AIRSS Version 0.9.1 bugfix July 2018 build 013d7b7c2542+ Fri, 06 Jul 2018 19:26:36 +0100
REM compiler GCC version 9.3.0
REM options -cpp -mtune=generic -march=x86-64 -g -O0
REM seed 21090932 -471607462 -362783847 577805745 -740878005 -580743395 -1375372544 -873660098 1593067303 -332494759 1761454593 -833070860 -1929553786 406336434 1569163224 -228575962 -192583478 -61865137 -2040697514 408154004 631079162 -1092189631 -1448540918 -1636296484 -136911538 -472639862 409961746 1447693825 1077469259 -237685781 -2029144821 1186603986 1113722780
REM
CELL 1.54180   50.00000   50.00000   50.00000   90.00000   90.00000   90.00000
LATT -1
SFAC C  
C      1  0.4656310000000  0.4969980000000  0.5127880000000 1.0
C      1  0.4692250000000  0.5081020000000  0.4855580000000 1.0
C      1  0.5115160000000  0.5054670000000  0.4517950000000 1.0
C      1  0.4919350000000  0.5066830000000  0.4364840000000 1.0
C      1  0.5092700000000  0.4782600000000  0.5253940000000 1.0
C      1  0.4524090000000  0.5140080000000  0.5317120000000 1.0
C      1  0.5453490000000  0.4865490000000  0.4811220000000 1.0
C      1  0.4608600000000  0.5375230000000  0.5217290000000 1.0
C      1  0.5254500000000  0.5060260000000  0.4751400000000 1.0
C      1  0.4937680000000  0.4330390000000  0.4900740000000 1.0
C      1  0.4883020000000  0.5316070000000  0.4908000000000 1.0
C      1  0.5300100000000  0.5288330000000  0.5189140000000 1.0
C      1  0.4725540000000  0.5521460000000  0.5036890000000 1.0
C      1  0.5393560000000  0.4719280000000  0.5012170000000 1.0
C      1  0.4840620000000  0.4751850000000  0.5143410000000 1.0
C      1  0.5151010000000  0.5220240000000  0.4960670000000 1.0
C      1  0.4825470000000  0.4546570000000  0.4961580000000 1.0
C      1  0.5326250000000  0.5314200000000  0.5436650000000 1.0
C      1  0.5300310000000  0.4595450000000  0.5233530000000 1.0
END
