TITL C-151869-9562-7 0.110473961837295 125000 -93.5125228833368 0 0 15 (C1) n - 1
REM
REM in /rds/project/t2_vol4/rds-t2-cs072/BORA/CARBON/from-Arr/AIRSS/Generating-Clusters/GAP-ML-2020/Only-C1/SD-CG/HFTN-CG
REM
REM
REM
REM
REM
REM ./C.cell (11c1c37f851c82e70ff6c80c92926a4b)
REM AIRSS Version 0.9.1 bugfix July 2018 build 013d7b7c2542+ Fri, 06 Jul 2018 19:26:36 +0100
REM compiler GCC version 9.3.0
REM options -cpp -mtune=generic -march=x86-64 -g -O0
REM seed 954953164 1048059869 934387143 -811329426 -1611688196 941905989 -1566514983 -145198805 2083791903 1145200410 410324919 -1345166076 -910082192 -265920464 247390529 1162294180 -1272318213 -1961499654 -832059280 -1945849161 2048920361 1323555394 1663321531 1147224914 -262589867 1469170429 1547155109 1526541717 -1853901155 -855569462 -1585459547 -1708234902 -1282178668
REM
CELL 1.54180   50.00000   50.00000   50.00000   90.00000   90.00000   90.00000
LATT -1
SFAC C  
C      1  0.5095610000000  0.4750500000000  0.5204750000000 1.0
C      1  0.4976370000000  0.5350890000000  0.5391260000000 1.0
C      1  0.4858210000000  0.5350830000000  0.5130490000000 1.0
C      1  0.4867410000000  0.4918930000000  0.5253040000000 1.0
C      1  0.5260770000000  0.4928350000000  0.5384080000000 1.0
C      1  0.5280640000000  0.4788930000000  0.4988920000000 1.0
C      1  0.5027360000000  0.5088310000000  0.5429720000000 1.0
C      1  0.4593040000000  0.4992380000000  0.4861300000000 1.0
C      1  0.5171290000000  0.4764220000000  0.4488650000000 1.0
C      1  0.4461700000000  0.4899820000000  0.4667380000000 1.0
C      1  0.5443450000000  0.4948420000000  0.5169790000000 1.0
C      1  0.4906490000000  0.5566970000000  0.4983670000000 1.0
C      1  0.5254110000000  0.4761130000000  0.4727250000000 1.0
C      1  0.5058940000000  0.4804360000000  0.4253420000000 1.0
C      1  0.4744610000000  0.5085970000000  0.5066280000000 1.0
END
