TITL C-158504-2975-6 0.0654425990876435 125000 -387.565243997749 0 0 58 (C1) n - 1
REM
REM in /rds/project/t2_vol4/rds-t2-cs072/BORA/CARBON/from-Arr/AIRSS/Generating-Clusters/GAP-ML-2020/Only-C1/SD-CG/HFTN-CG
REM
REM
REM
REM
REM
REM ./C.cell (11c1c37f851c82e70ff6c80c92926a4b)
REM AIRSS Version 0.9.1 bugfix July 2018 build 013d7b7c2542+ Fri, 06 Jul 2018 19:26:36 +0100
REM compiler GCC version 9.3.0
REM options -cpp -mtune=generic -march=x86-64 -g -O0
REM seed 543313535 -3230407 -874919414 -1652416990 -1269604055 894939963 -1166807942 2001844576 1505332366 -948945211 1094279133 -1119815840 1653443173 -568335656 -862380868 -1505616233 -344697689 144006596 -343655988 1488158441 1897746422 -52055034 -427699552 -1005345936 -461959968 1133377718 150050164 -1059721785 -6787894 283824951 485029747 1857026418 201866149
REM
CELL 1.54180   50.00000   50.00000   50.00000   90.00000   90.00000   90.00000
LATT -1
SFAC C  
C      1  0.4593680000000  0.4501750000000  0.5190060000000 1.0
C      1  0.4745650000000  0.5090390000000  0.4711530000000 1.0
C      1  0.5215250000000  0.4670430000000  0.5578210000000 1.0
C      1  0.5251890000000  0.5222240000000  0.4891990000000 1.0
C      1  0.5400060000000  0.4640360000000  0.4499770000000 1.0
C      1  0.5502520000000  0.5339880000000  0.5293780000000 1.0
C      1  0.4850240000000  0.5647730000000  0.4810510000000 1.0
C      1  0.4752050000000  0.5184620000000  0.4992950000000 1.0
C      1  0.4314400000000  0.5235370000000  0.4886040000000 1.0
C      1  0.5201740000000  0.5329550000000  0.5650130000000 1.0
C      1  0.4703980000000  0.5338750000000  0.5457510000000 1.0
C      1  0.4416820000000  0.4704320000000  0.4869930000000 1.0
C      1  0.5115740000000  0.5567850000000  0.5220120000000 1.0
C      1  0.5378300000000  0.4596630000000  0.5345330000000 1.0
C      1  0.5379680000000  0.5320160000000  0.4615680000000 1.0
C      1  0.5519730000000  0.5289170000000  0.5027950000000 1.0
C      1  0.5375950000000  0.5086990000000  0.5666790000000 1.0
C      1  0.4359510000000  0.5128570000000  0.4640490000000 1.0
C      1  0.4512600000000  0.4870740000000  0.4655630000000 1.0
C      1  0.5093080000000  0.5158200000000  0.4359400000000 1.0
C      1  0.5269420000000  0.4377780000000  0.5206880000000 1.0
C      1  0.5410960000000  0.5069890000000  0.5355920000000 1.0
C      1  0.4671500000000  0.4671450000000  0.4495350000000 1.0
C      1  0.5006910000000  0.4330220000000  0.5208610000000 1.0
C      1  0.5513410000000  0.4818200000000  0.5222030000000 1.0
C      1  0.5140580000000  0.4547740000000  0.4475680000000 1.0
C      1  0.4561140000000  0.4456540000000  0.4904900000000 1.0
C      1  0.4590650000000  0.5543240000000  0.4750910000000 1.0
C      1  0.5621090000000  0.4854560000000  0.4961060000000 1.0
C      1  0.5001100000000  0.4970750000000  0.4181700000000 1.0
C      1  0.4882340000000  0.5653300000000  0.5112340000000 1.0
C      1  0.4809200000000  0.4462350000000  0.5368430000000 1.0
C      1  0.4645040000000  0.5515540000000  0.5243260000000 1.0
C      1  0.5013160000000  0.4399160000000  0.4685760000000 1.0
C      1  0.5319000000000  0.4845770000000  0.5765730000000 1.0
C      1  0.5100150000000  0.5097380000000  0.5297510000000 1.0
C      1  0.4608570000000  0.5070540000000  0.5464220000000 1.0
C      1  0.5579240000000  0.5119310000000  0.4616860000000 1.0
C      1  0.5692720000000  0.5120310000000  0.4889520000000 1.0
C      1  0.4990160000000  0.4993510000000  0.4584790000000 1.0
C      1  0.4932910000000  0.4756640000000  0.4379550000000 1.0
C      1  0.4955220000000  0.4853940000000  0.5228120000000 1.0
C      1  0.5077750000000  0.4753620000000  0.4990290000000 1.0
C      1  0.4931390000000  0.4698520000000  0.5499110000000 1.0
C      1  0.4962600000000  0.5200900000000  0.5547400000000 1.0
C      1  0.5191990000000  0.4939210000000  0.4802640000000 1.0
C      1  0.4670070000000  0.4970810000000  0.5196010000000 1.0
C      1  0.4510510000000  0.5410320000000  0.4999830000000 1.0
C      1  0.5293610000000  0.5495390000000  0.5415440000000 1.0
C      1  0.5102760000000  0.4465070000000  0.4957280000000 1.0
C      1  0.5000580000000  0.5587300000000  0.4594440000000 1.0
C      1  0.4729670000000  0.4454420000000  0.4671650000000 1.0
C      1  0.5171650000000  0.5423010000000  0.4454100000000 1.0
C      1  0.4581130000000  0.5311480000000  0.4586630000000 1.0
C      1  0.4475540000000  0.4761030000000  0.5141380000000 1.0
C      1  0.5459880000000  0.4845180000000  0.4680410000000 1.0
C      1  0.4807340000000  0.4948710000000  0.5623880000000 1.0
C      1  0.5036160000000  0.5283200000000  0.5076580000000 1.0
END
