TITL C-154617-5804-8 -0.0941915142699987 125000 -911.32377404255 0 0 130 (C1) n - 1
REM
REM in /rds/project/t2_vol4/rds-t2-cs072/BORA/CARBON/from-Arr/AIRSS/Generating-Clusters/GAP-ML-2020/Only-C1/SD-CG/HFTN-CG
REM
REM
REM
REM
REM
REM ./C.cell (11c1c37f851c82e70ff6c80c92926a4b)
REM AIRSS Version 0.9.1 bugfix July 2018 build 013d7b7c2542+ Fri, 06 Jul 2018 19:26:36 +0100
REM compiler GCC version 9.3.0
REM options -cpp -mtune=generic -march=x86-64 -g -O0
REM seed -405490318 -451353009 299247286 1948343563 -5153645 -191886873 1076097643 -1478133412 1873643365 1240050515 -1188529593 1681748210 -2124045998 760353261 169195856 1591984319 -1802529388 -2079159108 1588207210 -254641984 1225542913 1779810674 -437497841 -444329131 1219294078 837258787 -1251754535 2066577276 1895695236 520916835 612267459 1269310985 -1000011869
REM
CELL 1.54180   50.00000   50.00000   50.00000   90.00000   90.00000   90.00000
LATT -1
SFAC C  
C      1  0.5371320000000  0.4048140000000  0.4783500000000 1.0
C      1  0.4565300000000  0.5214950000000  0.5265300000000 1.0
C      1  0.5072880000000  0.4108800000000  0.4387600000000 1.0
C      1  0.4409310000000  0.4522830000000  0.5558080000000 1.0
C      1  0.5275630000000  0.4976390000000  0.5529020000000 1.0
C      1  0.4800840000000  0.4612740000000  0.5734640000000 1.0
C      1  0.4276700000000  0.5099910000000  0.5565010000000 1.0
C      1  0.4828430000000  0.4571880000000  0.5449030000000 1.0
C      1  0.4547450000000  0.4484180000000  0.4357610000000 1.0
C      1  0.4768190000000  0.4798980000000  0.4119610000000 1.0
C      1  0.5393410000000  0.5205140000000  0.5005070000000 1.0
C      1  0.5031920000000  0.4395110000000  0.4303530000000 1.0
C      1  0.5254760000000  0.4940440000000  0.5055510000000 1.0
C      1  0.5257150000000  0.5797090000000  0.5435450000000 1.0
C      1  0.5121570000000  0.4852500000000  0.5964890000000 1.0
C      1  0.4565260000000  0.4093980000000  0.5103210000000 1.0
C      1  0.4948650000000  0.3940820000000  0.4859840000000 1.0
C      1  0.4919290000000  0.5771660000000  0.4534820000000 1.0
C      1  0.4180370000000  0.4920380000000  0.5362150000000 1.0
C      1  0.5472100000000  0.4230500000000  0.5254980000000 1.0
C      1  0.4942260000000  0.5086820000000  0.5986150000000 1.0
C      1  0.5056530000000  0.4578980000000  0.5864490000000 1.0
C      1  0.5103210000000  0.5632300000000  0.4382540000000 1.0
C      1  0.5232500000000  0.5385290000000  0.4797670000000 1.0
C      1  0.4421380000000  0.5697720000000  0.4695850000000 1.0
C      1  0.5355980000000  0.5539520000000  0.4532070000000 1.0
C      1  0.5722270000000  0.5606940000000  0.4841480000000 1.0
C      1  0.4283080000000  0.4634720000000  0.4772750000000 1.0
C      1  0.5541270000000  0.4935370000000  0.4149200000000 1.0
C      1  0.5650260000000  0.5595550000000  0.5602700000000 1.0
C      1  0.5013870000000  0.4942360000000  0.4051350000000 1.0
C      1  0.5782600000000  0.4622910000000  0.4695370000000 1.0
C      1  0.5526350000000  0.5748810000000  0.4671820000000 1.0
C      1  0.5370510000000  0.5653610000000  0.5189220000000 1.0
C      1  0.5711530000000  0.4931730000000  0.5338590000000 1.0
C      1  0.6014310000000  0.5020200000000  0.4456990000000 1.0
C      1  0.4523640000000  0.5812590000000  0.5226390000000 1.0
C      1  0.4572400000000  0.5000010000000  0.4224180000000 1.0
C      1  0.5617340000000  0.5194420000000  0.4254900000000 1.0
C      1  0.4763410000000  0.4791860000000  0.5033030000000 1.0
C      1  0.5011600000000  0.5371840000000  0.5941460000000 1.0
C      1  0.5798380000000  0.5339220000000  0.4735970000000 1.0
C      1  0.4644170000000  0.4773100000000  0.5301630000000 1.0
C      1  0.5429270000000  0.4307080000000  0.4707260000000 1.0
C      1  0.4789970000000  0.4507720000000  0.4984110000000 1.0
C      1  0.4332850000000  0.4677820000000  0.5314430000000 1.0
C      1  0.5205610000000  0.4381050000000  0.5731280000000 1.0
C      1  0.4525690000000  0.4700570000000  0.5751550000000 1.0
C      1  0.4756310000000  0.5196950000000  0.4790320000000 1.0
C      1  0.5273500000000  0.4548850000000  0.4202050000000 1.0
C      1  0.5807110000000  0.4907270000000  0.5081180000000 1.0
C      1  0.5677310000000  0.5105320000000  0.4887620000000 1.0
C      1  0.4909750000000  0.6034160000000  0.4977210000000 1.0
C      1  0.4941440000000  0.5484220000000  0.5151160000000 1.0
C      1  0.4351750000000  0.4264590000000  0.5088120000000 1.0
C      1  0.5580440000000  0.4875120000000  0.4713190000000 1.0
C      1  0.4573510000000  0.5462610000000  0.4322710000000 1.0
C      1  0.5540510000000  0.4513450000000  0.4303900000000 1.0
C      1  0.4105090000000  0.5378570000000  0.4818220000000 1.0
C      1  0.4339880000000  0.5374340000000  0.5414780000000 1.0
C      1  0.5383170000000  0.5683900000000  0.5675990000000 1.0
C      1  0.4093170000000  0.5425820000000  0.5273010000000 1.0
C      1  0.4967600000000  0.5226340000000  0.4083370000000 1.0
C      1  0.5022050000000  0.5215190000000  0.4682060000000 1.0
C      1  0.5148230000000  0.5612830000000  0.4973710000000 1.0
C      1  0.4686680000000  0.5030530000000  0.5452450000000 1.0
C      1  0.4646460000000  0.4347710000000  0.5490580000000 1.0
C      1  0.5837100000000  0.5230550000000  0.4463690000000 1.0
C      1  0.5897870000000  0.4774800000000  0.4462810000000 1.0
C      1  0.4239070000000  0.5492330000000  0.4608590000000 1.0
C      1  0.5774930000000  0.5690030000000  0.5374020000000 1.0
C      1  0.4096520000000  0.5095380000000  0.4857310000000 1.0
C      1  0.4339450000000  0.5324690000000  0.4413400000000 1.0
C      1  0.4992940000000  0.5894820000000  0.5402760000000 1.0
C      1  0.4939980000000  0.5616300000000  0.5448800000000 1.0
C      1  0.5625950000000  0.4418360000000  0.4554430000000 1.0
C      1  0.4762110000000  0.4520920000000  0.4198580000000 1.0
C      1  0.5658240000000  0.4455160000000  0.5198810000000 1.0
C      1  0.5584920000000  0.4676690000000  0.5360750000000 1.0
C      1  0.4479550000000  0.5635870000000  0.5457790000000 1.0
C      1  0.4996150000000  0.5081670000000  0.5420400000000 1.0
C      1  0.5809220000000  0.4622990000000  0.4995010000000 1.0
C      1  0.5368670000000  0.5350280000000  0.5261760000000 1.0
C      1  0.4709730000000  0.4082070000000  0.4856890000000 1.0
C      1  0.4973110000000  0.4991470000000  0.5135590000000 1.0
C      1  0.4215460000000  0.4908760000000  0.4669180000000 1.0
C      1  0.4714450000000  0.4363600000000  0.4731130000000 1.0
C      1  0.5669070000000  0.5682840000000  0.5121980000000 1.0
C      1  0.5356130000000  0.5950590000000  0.4722950000000 1.0
C      1  0.5105020000000  0.3945400000000  0.5116660000000 1.0
C      1  0.5004760000000  0.4066240000000  0.5346750000000 1.0
C      1  0.4504680000000  0.4991170000000  0.5718800000000 1.0
C      1  0.5536740000000  0.5151450000000  0.5445470000000 1.0
C      1  0.5325440000000  0.4985850000000  0.5824360000000 1.0
C      1  0.5299590000000  0.4809170000000  0.4787180000000 1.0
C      1  0.5066270000000  0.5874140000000  0.4790920000000 1.0
C      1  0.5419960000000  0.5385820000000  0.4279770000000 1.0
C      1  0.4342680000000  0.5035610000000  0.4415140000000 1.0
C      1  0.5270430000000  0.5476180000000  0.5875780000000 1.0
C      1  0.4701150000000  0.4907810000000  0.4769550000000 1.0
C      1  0.3883400000000  0.5251830000000  0.5269290000000 1.0
C      1  0.4789170000000  0.5964380000000  0.5212380000000 1.0
C      1  0.5704810000000  0.4733690000000  0.4250220000000 1.0
C      1  0.5056880000000  0.4462370000000  0.5044340000000 1.0
C      1  0.5446780000000  0.5249340000000  0.5877110000000 1.0
C      1  0.4663150000000  0.5152070000000  0.5907830000000 1.0
C      1  0.5123580000000  0.3990480000000  0.4634380000000 1.0
C      1  0.4462310000000  0.4472890000000  0.4611340000000 1.0
C      1  0.4036440000000  0.5057280000000  0.5149850000000 1.0
C      1  0.5636060000000  0.5314200000000  0.5673740000000 1.0
C      1  0.5107280000000  0.4528910000000  0.5326030000000 1.0
C      1  0.5371360000000  0.4031800000000  0.5069480000000 1.0
C      1  0.5121290000000  0.4957070000000  0.4609300000000 1.0
C      1  0.4641770000000  0.5690390000000  0.4502780000000 1.0
C      1  0.5221840000000  0.4275270000000  0.5457880000000 1.0
C      1  0.5208560000000  0.4508400000000  0.4790870000000 1.0
C      1  0.5152690000000  0.5427030000000  0.4178580000000 1.0
C      1  0.5271340000000  0.4816080000000  0.4095430000000 1.0
C      1  0.4962920000000  0.4495170000000  0.4596330000000 1.0
C      1  0.4706750000000  0.5600240000000  0.5625760000000 1.0
C      1  0.4725320000000  0.4119930000000  0.5345020000000 1.0
C      1  0.5306050000000  0.4756290000000  0.5327720000000 1.0
C      1  0.4152100000000  0.5558910000000  0.5034260000000 1.0
C      1  0.4368040000000  0.5739280000000  0.4986760000000 1.0
C      1  0.4739600000000  0.5429180000000  0.5850150000000 1.0
C      1  0.4889310000000  0.4786900000000  0.4585190000000 1.0
C      1  0.4277460000000  0.4519890000000  0.5051210000000 1.0
C      1  0.4759200000000  0.5274160000000  0.5062520000000 1.0
C      1  0.4698710000000  0.5254390000000  0.4176210000000 1.0
C      1  0.5091750000000  0.5348820000000  0.5366160000000 1.0
END
