TITL C-152508-6984-1 -20.4160892600155 125000 -726.345377106324 0 0 106 (C1) n - 1
REM
REM in /rds/project/t2_vol4/rds-t2-cs072/BORA/CARBON/from-Arr/AIRSS/Generating-Clusters/GAP-ML-2020/Only-C1/SD-CG/HFTN-CG
REM
REM
REM
REM
REM
REM ./C.cell (11c1c37f851c82e70ff6c80c92926a4b)
REM AIRSS Version 0.9.1 bugfix July 2018 build 013d7b7c2542+ Fri, 06 Jul 2018 19:26:36 +0100
REM compiler GCC version 9.3.0
REM options -cpp -mtune=generic -march=x86-64 -g -O0
REM seed 1499964751 1698687442 1944525289 -125566952 -574173839 -489922530 -1269045628 881371268 -1982170361 -267894897 -1362741919 -1741825235 1876098094 -1188891960 -1987618010 -331926337 114701693 268019565 -497901986 950158088 890997027 -1962561610 64979793 -353218926 1245798691 1746951866 -591687739 545362964 -322821463 15100007 1684011243 -352596220 -2057511049
REM
CELL 1.54180   50.00000   50.00000   50.00000   90.00000   90.00000   90.00000
LATT -1
SFAC C  
C      1  0.5469210000000  0.5180910000000  0.4911610000000 1.0
C      1  0.4683960000000  0.5071680000000  0.4739290000000 1.0
C      1  0.4510750000000  0.4623450000000  0.4571700000000 1.0
C      1  0.5142310000000  0.5254460000000  0.4569050000000 1.0
C      1  0.5687760000000  0.5582300000000  0.4470510000000 1.0
C      1  0.5152830000000  0.4091240000000  0.5385900000000 1.0
C      1  0.5124240000000  0.4497690000000  0.4383800000000 1.0
C      1  0.5753230000000  0.4465460000000  0.5084400000000 1.0
C      1  0.5062610000000  0.4688440000000  0.4187290000000 1.0
C      1  0.5276320000000  0.4994940000000  0.4521200000000 1.0
C      1  0.5058960000000  0.4541040000000  0.5158510000000 1.0
C      1  0.4543920000000  0.4278800000000  0.5293700000000 1.0
C      1  0.4677540000000  0.4946880000000  0.4268720000000 1.0
C      1  0.5699900000000  0.4397650000000  0.4805120000000 1.0
C      1  0.5017220000000  0.4980220000000  0.5448660000000 1.0
C      1  0.5714460000000  0.4807830000000  0.5420360000000 1.0
C      1  0.4398120000000  0.4499540000000  0.5216510000000 1.0
C      1  0.5633790000000  0.5517030000000  0.5402970000000 1.0
C      1  0.5364060000000  0.4468920000000  0.5644930000000 1.0
C      1  0.5434710000000  0.4257000000000  0.4786950000000 1.0
C      1  0.5260150000000  0.5390340000000  0.4817170000000 1.0
C      1  0.5507100000000  0.4410650000000  0.5236560000000 1.0
C      1  0.5367450000000  0.4242360000000  0.5459810000000 1.0
C      1  0.5756190000000  0.5274750000000  0.5324160000000 1.0
C      1  0.5461160000000  0.5460960000000  0.5628390000000 1.0
C      1  0.5092500000000  0.5234800000000  0.5314790000000 1.0
C      1  0.4901390000000  0.4940650000000  0.4906960000000 1.0
C      1  0.4596590000000  0.5307220000000  0.5672930000000 1.0
C      1  0.5196430000000  0.5571470000000  0.5633780000000 1.0
C      1  0.4488860000000  0.5174490000000  0.4960290000000 1.0
C      1  0.4641940000000  0.5587520000000  0.5297700000000 1.0
C      1  0.5312110000000  0.4444770000000  0.5008430000000 1.0
C      1  0.4760110000000  0.4241390000000  0.4510870000000 1.0
C      1  0.5857330000000  0.4946110000000  0.4966830000000 1.0
C      1  0.4696650000000  0.5566370000000  0.5581300000000 1.0
C      1  0.5337480000000  0.4922820000000  0.5046940000000 1.0
C      1  0.4770070000000  0.4555030000000  0.4768710000000 1.0
C      1  0.5589390000000  0.5727480000000  0.4697390000000 1.0
C      1  0.5735580000000  0.5190470000000  0.5054520000000 1.0
C      1  0.5152570000000  0.4829130000000  0.4740740000000 1.0
C      1  0.5319770000000  0.5029930000000  0.5859900000000 1.0
C      1  0.4708150000000  0.4177200000000  0.5080300000000 1.0
C      1  0.5206700000000  0.4790120000000  0.5297910000000 1.0
C      1  0.5841220000000  0.4738940000000  0.5164450000000 1.0
C      1  0.5698420000000  0.5768010000000  0.4950520000000 1.0
C      1  0.5022260000000  0.4604790000000  0.4632760000000 1.0
C      1  0.3995800000000  0.5025840000000  0.4887020000000 1.0
C      1  0.4646150000000  0.4273530000000  0.4797950000000 1.0
C      1  0.5212480000000  0.4584150000000  0.5864710000000 1.0
C      1  0.4068380000000  0.5242380000000  0.5076990000000 1.0
C      1  0.4944130000000  0.5516910000000  0.5741900000000 1.0
C      1  0.4106880000000  0.4785970000000  0.5022100000000 1.0
C      1  0.4640150000000  0.4471400000000  0.4360980000000 1.0
C      1  0.4758120000000  0.5819940000000  0.4678700000000 1.0
C      1  0.5461280000000  0.4651880000000  0.5430260000000 1.0
C      1  0.4950530000000  0.4713100000000  0.5806060000000 1.0
C      1  0.5285110000000  0.5731920000000  0.5180360000000 1.0
C      1  0.4891640000000  0.5885090000000  0.4930220000000 1.0
C      1  0.4736830000000  0.4369780000000  0.5484050000000 1.0
C      1  0.4939070000000  0.4261760000000  0.5273750000000 1.0
C      1  0.4918860000000  0.5203810000000  0.5098510000000 1.0
C      1  0.5273120000000  0.4148400000000  0.4604320000000 1.0
C      1  0.4530290000000  0.5733010000000  0.4829640000000 1.0
C      1  0.5631540000000  0.4651080000000  0.4702060000000 1.0
C      1  0.5178390000000  0.4943240000000  0.4237500000000 1.0
C      1  0.4973510000000  0.5397180000000  0.4896370000000 1.0
C      1  0.4416070000000  0.5399570000000  0.4495800000000 1.0
C      1  0.4779380000000  0.4682020000000  0.4210420000000 1.0
C      1  0.4698410000000  0.5418810000000  0.4403720000000 1.0
C      1  0.4381550000000  0.4928960000000  0.5074180000000 1.0
C      1  0.4228110000000  0.4514850000000  0.4982470000000 1.0
C      1  0.4798850000000  0.5203700000000  0.4215190000000 1.0
C      1  0.5162940000000  0.5837130000000  0.4943180000000 1.0
C      1  0.4638020000000  0.5282290000000  0.5198140000000 1.0
C      1  0.5050460000000  0.4227150000000  0.4457250000000 1.0
C      1  0.4058020000000  0.4878520000000  0.5314690000000 1.0
C      1  0.4345990000000  0.5549380000000  0.4733730000000 1.0
C      1  0.4686310000000  0.4863040000000  0.5447630000000 1.0
C      1  0.4264230000000  0.5376440000000  0.4942400000000 1.0
C      1  0.4850070000000  0.5295790000000  0.4641030000000 1.0
C      1  0.4845610000000  0.5246720000000  0.5812160000000 1.0
C      1  0.4289570000000  0.5135850000000  0.4504460000000 1.0
C      1  0.4820530000000  0.4684280000000  0.5027140000000 1.0
C      1  0.4227700000000  0.5089050000000  0.5312330000000 1.0
C      1  0.4049150000000  0.5098890000000  0.4627350000000 1.0
C      1  0.5545720000000  0.5355780000000  0.4430250000000 1.0
C      1  0.5241050000000  0.5403300000000  0.4333310000000 1.0
C      1  0.5763180000000  0.4895050000000  0.4688860000000 1.0
C      1  0.5024260000000  0.5007060000000  0.5758100000000 1.0
C      1  0.5517320000000  0.5187240000000  0.5712920000000 1.0
C      1  0.5136600000000  0.5652320000000  0.4447840000000 1.0
C      1  0.5556360000000  0.5094940000000  0.4601500000000 1.0
C      1  0.5371820000000  0.4786620000000  0.5984240000000 1.0
C      1  0.5078150000000  0.5201410000000  0.4165590000000 1.0
C      1  0.4575650000000  0.4743210000000  0.5201610000000 1.0
C      1  0.4662590000000  0.5778010000000  0.5089700000000 1.0
C      1  0.5155480000000  0.5539100000000  0.5354570000000 1.0
C      1  0.4516280000000  0.4932390000000  0.4510360000000 1.0
C      1  0.5707140000000  0.5072570000000  0.5522670000000 1.0
C      1  0.5378450000000  0.4699990000000  0.4876120000000 1.0
C      1  0.5289760000000  0.5696150000000  0.4709430000000 1.0
C      1  0.4857480000000  0.5670850000000  0.4461670000000 1.0
C      1  0.4379190000000  0.4427880000000  0.4762290000000 1.0
C      1  0.4746120000000  0.4621570000000  0.5624280000000 1.0
C      1  0.5565370000000  0.5704570000000  0.5185880000000 1.0
C      1  0.4515330000000  0.5133860000000  0.5446790000000 1.0
END
