TITL C-151855-9599-6 -0.0667892000157913 125000 -855.084767359103 0 0 123 (C1) n - 1
REM
REM in /rds/project/t2_vol4/rds-t2-cs072/BORA/CARBON/from-Arr/AIRSS/Generating-Clusters/GAP-ML-2020/Only-C1/SD-CG/HFTN-CG
REM
REM
REM
REM
REM
REM ./C.cell (11c1c37f851c82e70ff6c80c92926a4b)
REM AIRSS Version 0.9.1 bugfix July 2018 build 013d7b7c2542+ Fri, 06 Jul 2018 19:26:36 +0100
REM compiler GCC version 9.3.0
REM options -cpp -mtune=generic -march=x86-64 -g -O0
REM seed -78292416 -1136195791 714777859 -642054663 -1354736914 -533541684 -1333830458 -349582388 -1379992564 92551247 1020263661 2065314571 1693389849 -925129997 735162150 716484794 -1690895509 -1034518076 794907891 1734329505 -1309789834 -1074798069 -92394891 702100438 -57691746 2123405865 272026813 -1996693264 1243765067 -706032541 -657881149 425398947 -463452949
REM
CELL 1.54180   50.00000   50.00000   50.00000   90.00000   90.00000   90.00000
LATT -1
SFAC C  
C      1  0.4550700000000  0.5737380000000  0.4713270000000 1.0
C      1  0.4363330000000  0.5021770000000  0.5640040000000 1.0
C      1  0.5643980000000  0.5125630000000  0.4368810000000 1.0
C      1  0.5193930000000  0.4877820000000  0.4666520000000 1.0
C      1  0.4276740000000  0.5340830000000  0.4560200000000 1.0
C      1  0.5878130000000  0.4730640000000  0.4634420000000 1.0
C      1  0.4723670000000  0.5120780000000  0.4828750000000 1.0
C      1  0.5456420000000  0.4258580000000  0.5297160000000 1.0
C      1  0.5399080000000  0.5348180000000  0.5153120000000 1.0
C      1  0.4857010000000  0.5043640000000  0.5757150000000 1.0
C      1  0.4191880000000  0.4664020000000  0.5332550000000 1.0
C      1  0.5313420000000  0.5098350000000  0.4787530000000 1.0
C      1  0.4589280000000  0.5150520000000  0.5344130000000 1.0
C      1  0.4673850000000  0.4661670000000  0.5140740000000 1.0
C      1  0.4996380000000  0.4202810000000  0.5258430000000 1.0
C      1  0.4571110000000  0.4543110000000  0.5697750000000 1.0
C      1  0.4894850000000  0.4461710000000  0.4691530000000 1.0
C      1  0.4898420000000  0.5228890000000  0.4607990000000 1.0
C      1  0.4260840000000  0.5451080000000  0.5474650000000 1.0
C      1  0.5339230000000  0.5904910000000  0.4895550000000 1.0
C      1  0.5513830000000  0.5722000000000  0.4780180000000 1.0
C      1  0.4708010000000  0.5412020000000  0.5196700000000 1.0
C      1  0.4975510000000  0.4859430000000  0.5505000000000 1.0
C      1  0.4574090000000  0.4867360000000  0.4725850000000 1.0
C      1  0.4776650000000  0.4255070000000  0.5418650000000 1.0
C      1  0.4723160000000  0.4946600000000  0.4113750000000 1.0
C      1  0.4406200000000  0.5065120000000  0.5134530000000 1.0
C      1  0.4458450000000  0.4795160000000  0.4995740000000 1.0
C      1  0.4485600000000  0.4331170000000  0.4487490000000 1.0
C      1  0.4987170000000  0.5367640000000  0.4201500000000 1.0
C      1  0.4253440000000  0.4385530000000  0.4889440000000 1.0
C      1  0.5526750000000  0.5612270000000  0.5501480000000 1.0
C      1  0.5133060000000  0.5106800000000  0.5873560000000 1.0
C      1  0.5826500000000  0.5253910000000  0.5266360000000 1.0
C      1  0.5399960000000  0.5501850000000  0.4552580000000 1.0
C      1  0.5412450000000  0.5179120000000  0.4200600000000 1.0
C      1  0.4760820000000  0.4700860000000  0.4563680000000 1.0
C      1  0.5078320000000  0.4802800000000  0.4947300000000 1.0
C      1  0.5790450000000  0.5355650000000  0.4800760000000 1.0
C      1  0.5883710000000  0.4834850000000  0.4915120000000 1.0
C      1  0.4569810000000  0.4892830000000  0.5802260000000 1.0
C      1  0.4757020000000  0.5699510000000  0.4511640000000 1.0
C      1  0.4189970000000  0.4664590000000  0.5024680000000 1.0
C      1  0.5006550000000  0.6019700000000  0.5195880000000 1.0
C      1  0.4372410000000  0.4946010000000  0.4517570000000 1.0
C      1  0.4982930000000  0.5307760000000  0.5158760000000 1.0
C      1  0.4173290000000  0.4922380000000  0.5429310000000 1.0
C      1  0.5307970000000  0.5782540000000  0.5440990000000 1.0
C      1  0.5639990000000  0.4372250000000  0.5481730000000 1.0
C      1  0.5190150000000  0.4353920000000  0.4659910000000 1.0
C      1  0.5767040000000  0.5089910000000  0.5486420000000 1.0
C      1  0.4382870000000  0.4500090000000  0.5465330000000 1.0
C      1  0.4504940000000  0.5048320000000  0.4270620000000 1.0
C      1  0.5465310000000  0.5414860000000  0.5707150000000 1.0
C      1  0.4774500000000  0.4908500000000  0.5290660000000 1.0
C      1  0.5425790000000  0.4867480000000  0.5236180000000 1.0
C      1  0.5201350000000  0.4415520000000  0.5311700000000 1.0
C      1  0.4752390000000  0.5317430000000  0.5721320000000 1.0
C      1  0.5532010000000  0.4461990000000  0.5729690000000 1.0
C      1  0.5033360000000  0.4549080000000  0.4151990000000 1.0
C      1  0.5793580000000  0.5119670000000  0.4988500000000 1.0
C      1  0.4663260000000  0.5717900000000  0.5213860000000 1.0
C      1  0.4960980000000  0.5115790000000  0.4072490000000 1.0
C      1  0.5400960000000  0.4580210000000  0.4299190000000 1.0
C      1  0.5485180000000  0.4190090000000  0.5017720000000 1.0
C      1  0.5480570000000  0.5093590000000  0.5027530000000 1.0
C      1  0.5273940000000  0.5934670000000  0.5188660000000 1.0
C      1  0.5798150000000  0.4574670000000  0.5345560000000 1.0
C      1  0.5441330000000  0.4722990000000  0.4551390000000 1.0
C      1  0.4119940000000  0.5099540000000  0.5195170000000 1.0
C      1  0.5197910000000  0.5376600000000  0.5831690000000 1.0
C      1  0.4763240000000  0.5429850000000  0.4395430000000 1.0
C      1  0.5191580000000  0.4390750000000  0.4346760000000 1.0
C      1  0.5673600000000  0.4394490000000  0.4883430000000 1.0
C      1  0.5418230000000  0.4534170000000  0.4790530000000 1.0
C      1  0.5689780000000  0.4863450000000  0.4468670000000 1.0
C      1  0.5820940000000  0.4592870000000  0.5065340000000 1.0
C      1  0.4469380000000  0.4236570000000  0.5034440000000 1.0
C      1  0.4285330000000  0.5481730000000  0.4999930000000 1.0
C      1  0.5701100000000  0.4832290000000  0.5388670000000 1.0
C      1  0.5852870000000  0.4450830000000  0.4655360000000 1.0
C      1  0.4971580000000  0.4096260000000  0.5004460000000 1.0
C      1  0.4656620000000  0.5851690000000  0.4952510000000 1.0
C      1  0.4996820000000  0.5840600000000  0.4521410000000 1.0
C      1  0.4968230000000  0.5517320000000  0.5736890000000 1.0
C      1  0.5171730000000  0.5346870000000  0.4721480000000 1.0
C      1  0.4861630000000  0.5861760000000  0.5376910000000 1.0
C      1  0.5335180000000  0.4650270000000  0.5736190000000 1.0
C      1  0.5161420000000  0.5459770000000  0.4984110000000 1.0
C      1  0.5092030000000  0.5961920000000  0.4746880000000 1.0
C      1  0.4241170000000  0.4308760000000  0.4617180000000 1.0
C      1  0.4169310000000  0.5084540000000  0.4667960000000 1.0
C      1  0.4889520000000  0.4586940000000  0.4956310000000 1.0
C      1  0.4073660000000  0.4956650000000  0.4921080000000 1.0
C      1  0.5698300000000  0.5577100000000  0.4945700000000 1.0
C      1  0.4705860000000  0.4240590000000  0.4648130000000 1.0
C      1  0.5267360000000  0.5409400000000  0.4280800000000 1.0
C      1  0.5663280000000  0.5350460000000  0.4544510000000 1.0
C      1  0.5256350000000  0.4722810000000  0.4094760000000 1.0
C      1  0.4467000000000  0.5285630000000  0.5591880000000 1.0
C      1  0.4148790000000  0.5399380000000  0.5235910000000 1.0
C      1  0.5349260000000  0.4960000000000  0.5736810000000 1.0
C      1  0.4486310000000  0.5316560000000  0.4352760000000 1.0
C      1  0.5234320000000  0.4985950000000  0.5442040000000 1.0
C      1  0.4530160000000  0.5296950000000  0.4991800000000 1.0
C      1  0.4831450000000  0.4422000000000  0.5631710000000 1.0
C      1  0.4887740000000  0.6014220000000  0.4939250000000 1.0
C      1  0.4764120000000  0.4650880000000  0.4139690000000 1.0
C      1  0.5291990000000  0.4645480000000  0.5080280000000 1.0
C      1  0.5658520000000  0.5496580000000  0.5243110000000 1.0
C      1  0.4520840000000  0.4663260000000  0.5944520000000 1.0
C      1  0.4320320000000  0.5565850000000  0.4739240000000 1.0
C      1  0.5224510000000  0.4148810000000  0.4872070000000 1.0
C      1  0.5193700000000  0.5258900000000  0.5359980000000 1.0
C      1  0.4905760000000  0.5034670000000  0.5055180000000 1.0
C      1  0.5039340000000  0.5741660000000  0.5564370000000 1.0
C      1  0.5226230000000  0.4997600000000  0.4071240000000 1.0
C      1  0.5086900000000  0.4570660000000  0.5571990000000 1.0
C      1  0.4964740000000  0.4940930000000  0.4500690000000 1.0
C      1  0.4605930000000  0.4550960000000  0.4344130000000 1.0
C      1  0.4549560000000  0.4364390000000  0.5277270000000 1.0
C      1  0.4696340000000  0.4112140000000  0.4892970000000 1.0
C      1  0.5578250000000  0.5157920000000  0.5689170000000 1.0
END
