TITL C-158510-1913-3 8.5112470479428 125000 -715.63445760603 0 0 104 (C1) n - 1
REM
REM in /rds/project/t2_vol4/rds-t2-cs072/BORA/CARBON/from-Arr/AIRSS/Generating-Clusters/GAP-ML-2020/Only-C1/SD-CG/HFTN-CG
REM
REM
REM
REM
REM
REM ./C.cell (11c1c37f851c82e70ff6c80c92926a4b)
REM AIRSS Version 0.9.1 bugfix July 2018 build 013d7b7c2542+ Fri, 06 Jul 2018 19:26:36 +0100
REM compiler GCC version 9.3.0
REM options -cpp -mtune=generic -march=x86-64 -g -O0
REM seed 1373754771 -206836080 52640130 -435847773 -1157692243 -1246521406 -1951597516 411396783 1768214842 195589443 186220051 -630463979 -332881394 -45640224 727797213 1735805538 1986647296 -149696131 -1998008184 -850063544 -725614561 1525892339 -1879366569 208158590 1458797968 -1453411585 -2128421335 1339737880 524855773 -297432547 -1486934469 -174896356 1281600516
REM
CELL 1.54180   50.00000   50.00000   50.00000   90.00000   90.00000   90.00000
LATT -1
SFAC C  
C      1  0.5025880000000  0.4879000000000  0.4756030000000 1.0
C      1  0.4344340000000  0.5202470000000  0.4391740000000 1.0
C      1  0.4788850000000  0.4171300000000  0.5220350000000 1.0
C      1  0.5158180000000  0.5335480000000  0.4852620000000 1.0
C      1  0.4994720000000  0.4233560000000  0.5419500000000 1.0
C      1  0.4504140000000  0.4935820000000  0.5840500000000 1.0
C      1  0.4849180000000  0.4599750000000  0.5113400000000 1.0
C      1  0.4799120000000  0.4350190000000  0.4673150000000 1.0
C      1  0.4979490000000  0.5086350000000  0.5741980000000 1.0
C      1  0.5153800000000  0.5530700000000  0.5362530000000 1.0
C      1  0.5402330000000  0.5288550000000  0.4657060000000 1.0
C      1  0.4814920000000  0.5775170000000  0.4522030000000 1.0
C      1  0.5162290000000  0.4778150000000  0.5420660000000 1.0
C      1  0.5258810000000  0.5033520000000  0.4232480000000 1.0
C      1  0.4991060000000  0.5371620000000  0.5754570000000 1.0
C      1  0.5597950000000  0.5299000000000  0.5371060000000 1.0
C      1  0.4376360000000  0.5540090000000  0.5416050000000 1.0
C      1  0.5127060000000  0.5509120000000  0.4293220000000 1.0
C      1  0.5172440000000  0.4473680000000  0.4775250000000 1.0
C      1  0.4441010000000  0.4563930000000  0.5278570000000 1.0
C      1  0.4870390000000  0.4734880000000  0.5379720000000 1.0
C      1  0.4980200000000  0.4608250000000  0.4606900000000 1.0
C      1  0.4060190000000  0.5145100000000  0.5289530000000 1.0
C      1  0.4774820000000  0.4893470000000  0.5795140000000 1.0
C      1  0.4707900000000  0.5331780000000  0.4984490000000 1.0
C      1  0.5233110000000  0.4581110000000  0.5631520000000 1.0
C      1  0.4594980000000  0.4815050000000  0.4277460000000 1.0
C      1  0.5136370000000  0.5608750000000  0.5057350000000 1.0
C      1  0.5097580000000  0.4587520000000  0.4323540000000 1.0
C      1  0.5576920000000  0.4709060000000  0.4489790000000 1.0
C      1  0.4371760000000  0.5527980000000  0.4795330000000 1.0
C      1  0.4990990000000  0.5001140000000  0.4125980000000 1.0
C      1  0.4490150000000  0.4586120000000  0.5554890000000 1.0
C      1  0.5289450000000  0.5248160000000  0.5344150000000 1.0
C      1  0.3953240000000  0.5066350000000  0.5026540000000 1.0
C      1  0.4483990000000  0.5416740000000  0.4539320000000 1.0
C      1  0.4238490000000  0.5376060000000  0.5252590000000 1.0
C      1  0.5464740000000  0.5014280000000  0.4729580000000 1.0
C      1  0.5344370000000  0.4767090000000  0.4317290000000 1.0
C      1  0.4842380000000  0.5105430000000  0.5125780000000 1.0
C      1  0.4617840000000  0.4394330000000  0.5112320000000 1.0
C      1  0.4787170000000  0.5201130000000  0.4123680000000 1.0
C      1  0.5270270000000  0.4912940000000  0.4941820000000 1.0
C      1  0.4100000000000  0.5001960000000  0.4812340000000 1.0
C      1  0.4773460000000  0.4617920000000  0.5633560000000 1.0
C      1  0.4986330000000  0.4081780000000  0.5023780000000 1.0
C      1  0.5105260000000  0.5737450000000  0.4475530000000 1.0
C      1  0.4400090000000  0.5319400000000  0.5010010000000 1.0
C      1  0.4665490000000  0.5588220000000  0.4371780000000 1.0
C      1  0.5189910000000  0.4313220000000  0.4354460000000 1.0
C      1  0.4850110000000  0.5631180000000  0.5001420000000 1.0
C      1  0.5670230000000  0.5363090000000  0.4783130000000 1.0
C      1  0.5159760000000  0.5150850000000  0.5090140000000 1.0
C      1  0.4639180000000  0.5613110000000  0.5438670000000 1.0
C      1  0.4977180000000  0.5170140000000  0.4665410000000 1.0
C      1  0.4343770000000  0.4821930000000  0.5648710000000 1.0
C      1  0.5677330000000  0.4633970000000  0.5454670000000 1.0
C      1  0.5490920000000  0.4690570000000  0.5674220000000 1.0
C      1  0.5612080000000  0.5589940000000  0.5479290000000 1.0
C      1  0.5583320000000  0.4535340000000  0.5181540000000 1.0
C      1  0.4622640000000  0.5729680000000  0.5182710000000 1.0
C      1  0.4701570000000  0.5218150000000  0.4701940000000 1.0
C      1  0.5194330000000  0.4222690000000  0.5183210000000 1.0
C      1  0.5215180000000  0.5036820000000  0.5552350000000 1.0
C      1  0.5000460000000  0.4407970000000  0.5638750000000 1.0
C      1  0.5350870000000  0.5615250000000  0.5579750000000 1.0
C      1  0.5645450000000  0.4518640000000  0.4711570000000 1.0
C      1  0.4696830000000  0.4973660000000  0.5330320000000 1.0
C      1  0.4988240000000  0.4149560000000  0.4751180000000 1.0
C      1  0.5754130000000  0.4626480000000  0.4952750000000 1.0
C      1  0.5117950000000  0.4492150000000  0.5054380000000 1.0
C      1  0.4571420000000  0.4949350000000  0.4768540000000 1.0
C      1  0.4428230000000  0.4771030000000  0.4532930000000 1.0
C      1  0.5289810000000  0.5819290000000  0.4657320000000 1.0
C      1  0.5369740000000  0.5740050000000  0.4905220000000 1.0
C      1  0.5802540000000  0.5090430000000  0.4787950000000 1.0
C      1  0.4214040000000  0.4992420000000  0.4539760000000 1.0
C      1  0.5276530000000  0.5433590000000  0.5790690000000 1.0
C      1  0.4735020000000  0.5792080000000  0.4785800000000 1.0
C      1  0.5480930000000  0.4265690000000  0.5082740000000 1.0
C      1  0.4480860000000  0.5762510000000  0.4915860000000 1.0
C      1  0.5433380000000  0.5226200000000  0.5876800000000 1.0
C      1  0.4219670000000  0.4945920000000  0.5415950000000 1.0
C      1  0.4872000000000  0.4754710000000  0.4200030000000 1.0
C      1  0.4394290000000  0.4525970000000  0.4667380000000 1.0
C      1  0.5301210000000  0.4700260000000  0.5151290000000 1.0
C      1  0.5696550000000  0.4950550000000  0.4562600000000 1.0
C      1  0.5247370000000  0.4223330000000  0.4623080000000 1.0
C      1  0.4541560000000  0.5084750000000  0.4213050000000 1.0
C      1  0.5900680000000  0.4881360000000  0.4984540000000 1.0
C      1  0.5687520000000  0.5553460000000  0.5223450000000 1.0
C      1  0.6036430000000  0.4898530000000  0.5224990000000 1.0
C      1  0.5487450000000  0.4996210000000  0.5705050000000 1.0
C      1  0.4857510000000  0.5457170000000  0.4204050000000 1.0
C      1  0.4553850000000  0.4371600000000  0.4814120000000 1.0
C      1  0.5493120000000  0.4279840000000  0.4794290000000 1.0
C      1  0.5706600000000  0.5081200000000  0.5529780000000 1.0
C      1  0.4420050000000  0.4867810000000  0.5220510000000 1.0
C      1  0.4363300000000  0.5021730000000  0.4955180000000 1.0
C      1  0.5629640000000  0.5586830000000  0.4955580000000 1.0
C      1  0.4903870000000  0.5531330000000  0.5532200000000 1.0
C      1  0.5309950000000  0.5293740000000  0.4354500000000 1.0
C      1  0.5858270000000  0.4859230000000  0.5430430000000 1.0
C      1  0.4805320000000  0.4850510000000  0.4939310000000 1.0
END
