TITL C-154598-4134-1 0.0815706341411829 125000 -197.908726355619 0 0 30 (C1) n - 1
REM
REM in /rds/project/t2_vol4/rds-t2-cs072/BORA/CARBON/from-Arr/AIRSS/Generating-Clusters/GAP-ML-2020/Only-C1/SD-CG/HFTN-CG
REM
REM
REM
REM
REM
REM ./C.cell (11c1c37f851c82e70ff6c80c92926a4b)
REM AIRSS Version 0.9.1 bugfix July 2018 build 013d7b7c2542+ Fri, 06 Jul 2018 19:26:36 +0100
REM compiler GCC version 9.3.0
REM options -cpp -mtune=generic -march=x86-64 -g -O0
REM seed 961970737 -1731551856 -1234367062 1275478054 347369058 -1394496637 -1439533336 -1085583811 1613320504 -1444005708 -1299529288 -384409519 -98310205 1009263627 -77368564 706644053 -1021572142 1921141805 -281687262 -1568162405 -1898171394 461500026 -2130083878 -1929480130 1265675302 1843349087 -1204325611 -927133569 -1526673585 -748658471 -1507431548 -222514308 70340563
REM
CELL 1.54180   50.00000   50.00000   50.00000   90.00000   90.00000   90.00000
LATT -1
SFAC C  
C      1  0.4702430000000  0.4890370000000  0.5348940000000 1.0
C      1  0.4443370000000  0.4780480000000  0.4943750000000 1.0
C      1  0.4897970000000  0.5199640000000  0.4335160000000 1.0
C      1  0.5160770000000  0.5273820000000  0.5586500000000 1.0
C      1  0.4802570000000  0.5389280000000  0.4516070000000 1.0
C      1  0.4795140000000  0.4719600000000  0.4586350000000 1.0
C      1  0.5245860000000  0.4599070000000  0.4896900000000 1.0
C      1  0.5372740000000  0.5536290000000  0.4999250000000 1.0
C      1  0.5661010000000  0.5235980000000  0.4833310000000 1.0
C      1  0.4930380000000  0.4467180000000  0.5168990000000 1.0
C      1  0.4588910000000  0.4613530000000  0.4790230000000 1.0
C      1  0.5153490000000  0.5406660000000  0.5098370000000 1.0
C      1  0.5608010000000  0.5494160000000  0.4909540000000 1.0
C      1  0.4799780000000  0.4456090000000  0.4914360000000 1.0
C      1  0.4691190000000  0.5192540000000  0.4926360000000 1.0
C      1  0.5235760000000  0.5218190000000  0.5313710000000 1.0
C      1  0.4929800000000  0.5161190000000  0.5601800000000 1.0
C      1  0.4908500000000  0.4681550000000  0.5357590000000 1.0
C      1  0.4591590000000  0.4973440000000  0.5090110000000 1.0
C      1  0.5542900000000  0.5016440000000  0.4868050000000 1.0
C      1  0.5164560000000  0.4762940000000  0.5444100000000 1.0
C      1  0.4911100000000  0.5550210000000  0.4705220000000 1.0
C      1  0.4636100000000  0.5176920000000  0.4651760000000 1.0
C      1  0.4908160000000  0.5400570000000  0.4951680000000 1.0
C      1  0.5285420000000  0.4945670000000  0.5262120000000 1.0
C      1  0.5202790000000  0.4407850000000  0.5096820000000 1.0
C      1  0.5373880000000  0.4848530000000  0.4998740000000 1.0
C      1  0.4696490000000  0.5050650000000  0.5584940000000 1.0
C      1  0.4761160000000  0.4977590000000  0.4487430000000 1.0
C      1  0.4998160000000  0.4573550000000  0.4731880000000 1.0
END
