TITL C-154613-4147-3 -0.00383101801842069 125000 -674.029026657378 0 0 96 (C1) n - 1
REM
REM in /rds/project/t2_vol4/rds-t2-cs072/BORA/CARBON/from-Arr/AIRSS/Generating-Clusters/GAP-ML-2020/Only-C1/SD-CG/HFTN-CG
REM
REM
REM
REM
REM
REM ./C.cell (11c1c37f851c82e70ff6c80c92926a4b)
REM AIRSS Version 0.9.1 bugfix July 2018 build 013d7b7c2542+ Fri, 06 Jul 2018 19:26:36 +0100
REM compiler GCC version 9.3.0
REM options -cpp -mtune=generic -march=x86-64 -g -O0
REM seed -912524438 1900668096 751743505 -833489670 -1041308180 -436571689 -720565823 259749541 -1866645379 812234664 -1274349851 1358096213 2321774 -1668939710 -2020705715 -1176893011 192975540 2058142569 -2056464167 2033157237 2035115872 756181185 629366546 -496937842 -743550010 -1921919654 -2140418386 -1968381794 -1180634602 311692546 1300724168 1226174884 1123924140
REM
CELL 1.54180   50.00000   50.00000   50.00000   90.00000   90.00000   90.00000
LATT -1
SFAC C  
C      1  0.5173430000000  0.5816830000000  0.4846280000000 1.0
C      1  0.4594530000000  0.5219450000000  0.4363170000000 1.0
C      1  0.4426660000000  0.5452250000000  0.4799760000000 1.0
C      1  0.5684850000000  0.4993890000000  0.5540640000000 1.0
C      1  0.5486800000000  0.5311050000000  0.4148710000000 1.0
C      1  0.5199500000000  0.4913280000000  0.5814920000000 1.0
C      1  0.4586920000000  0.4939790000000  0.4813870000000 1.0
C      1  0.4729710000000  0.5680170000000  0.5051190000000 1.0
C      1  0.3992590000000  0.4703360000000  0.4641900000000 1.0
C      1  0.4912570000000  0.5195210000000  0.4920060000000 1.0
C      1  0.4543270000000  0.4481710000000  0.4546970000000 1.0
C      1  0.4625560000000  0.5645350000000  0.4786830000000 1.0
C      1  0.4589400000000  0.5525680000000  0.5244810000000 1.0
C      1  0.5485590000000  0.5471060000000  0.5280430000000 1.0
C      1  0.5583740000000  0.5221610000000  0.5112050000000 1.0
C      1  0.5101830000000  0.5047350000000  0.4201700000000 1.0
C      1  0.4357440000000  0.4770150000000  0.5552100000000 1.0
C      1  0.5847600000000  0.4992620000000  0.4816340000000 1.0
C      1  0.5030230000000  0.5324610000000  0.4215010000000 1.0
C      1  0.5142370000000  0.5826350000000  0.5516640000000 1.0
C      1  0.4437420000000  0.4257000000000  0.5037370000000 1.0
C      1  0.5400380000000  0.5307210000000  0.5730030000000 1.0
C      1  0.5339160000000  0.5132220000000  0.4946060000000 1.0
C      1  0.5817260000000  0.5240470000000  0.5578790000000 1.0
C      1  0.5291510000000  0.4812700000000  0.4958610000000 1.0
C      1  0.4914290000000  0.4833630000000  0.4249650000000 1.0
C      1  0.5747710000000  0.5086720000000  0.4560080000000 1.0
C      1  0.4656410000000  0.5112740000000  0.5050430000000 1.0
C      1  0.5567350000000  0.4920850000000  0.4408900000000 1.0
C      1  0.5266010000000  0.4513650000000  0.4461810000000 1.0
C      1  0.5444410000000  0.5024960000000  0.5728800000000 1.0
C      1  0.4373790000000  0.5051780000000  0.5494500000000 1.0
C      1  0.5022430000000  0.5640140000000  0.5024670000000 1.0
C      1  0.5336290000000  0.5882940000000  0.5357880000000 1.0
C      1  0.4458670000000  0.4721580000000  0.4412080000000 1.0
C      1  0.4891690000000  0.4964700000000  0.4747430000000 1.0
C      1  0.5102670000000  0.4473830000000  0.5577810000000 1.0
C      1  0.5329730000000  0.4789490000000  0.5261980000000 1.0
C      1  0.5282680000000  0.5329690000000  0.4732930000000 1.0
C      1  0.4997620000000  0.4571410000000  0.4353710000000 1.0
C      1  0.4404260000000  0.4469880000000  0.4825240000000 1.0
C      1  0.5020410000000  0.4200400000000  0.5209760000000 1.0
C      1  0.4544310000000  0.4700470000000  0.4963670000000 1.0
C      1  0.5508930000000  0.5748510000000  0.5170800000000 1.0
C      1  0.5316650000000  0.5654100000000  0.4445720000000 1.0
C      1  0.4624710000000  0.4379780000000  0.5499330000000 1.0
C      1  0.5445440000000  0.5749410000000  0.4891100000000 1.0
C      1  0.4821710000000  0.4681310000000  0.5085520000000 1.0
C      1  0.4249810000000  0.4794250000000  0.5107950000000 1.0
C      1  0.4970450000000  0.4242130000000  0.4702690000000 1.0
C      1  0.4145500000000  0.4632410000000  0.4853610000000 1.0
C      1  0.4585790000000  0.5213510000000  0.5618920000000 1.0
C      1  0.4342580000000  0.5040300000000  0.4668140000000 1.0
C      1  0.5299680000000  0.4283090000000  0.5207600000000 1.0
C      1  0.5114030000000  0.5191030000000  0.5140230000000 1.0
C      1  0.4642940000000  0.4920440000000  0.4307530000000 1.0
C      1  0.5515150000000  0.4173450000000  0.5064470000000 1.0
C      1  0.5015250000000  0.4756770000000  0.4887570000000 1.0
C      1  0.4879760000000  0.4133710000000  0.4959330000000 1.0
C      1  0.5126810000000  0.5371110000000  0.5738610000000 1.0
C      1  0.5594970000000  0.5420960000000  0.5550450000000 1.0
C      1  0.4766770000000  0.4764380000000  0.5791730000000 1.0
C      1  0.5084400000000  0.4973550000000  0.5325060000000 1.0
C      1  0.5093460000000  0.5767920000000  0.4572640000000 1.0
C      1  0.5044360000000  0.4678620000000  0.5767060000000 1.0
C      1  0.4901570000000  0.4308440000000  0.5452930000000 1.0
C      1  0.4284360000000  0.5089090000000  0.5224030000000 1.0
C      1  0.4218030000000  0.4827720000000  0.4537500000000 1.0
C      1  0.5310980000000  0.4516720000000  0.5385030000000 1.0
C      1  0.5521690000000  0.4646740000000  0.4834550000000 1.0
C      1  0.4612510000000  0.4054080000000  0.4991420000000 1.0
C      1  0.4413070000000  0.4370340000000  0.5304380000000 1.0
C      1  0.4569350000000  0.4615170000000  0.5666020000000 1.0
C      1  0.5729880000000  0.4805830000000  0.4986950000000 1.0
C      1  0.5010750000000  0.5534620000000  0.5524150000000 1.0
C      1  0.5802780000000  0.5259230000000  0.4911520000000 1.0
C      1  0.4813440000000  0.4401960000000  0.4509630000000 1.0
C      1  0.5612450000000  0.4937010000000  0.5253800000000 1.0
C      1  0.4707670000000  0.5452270000000  0.5491300000000 1.0
C      1  0.5484310000000  0.4683190000000  0.4534900000000 1.0
C      1  0.5728030000000  0.5365490000000  0.4657120000000 1.0
C      1  0.5159640000000  0.5469500000000  0.5252580000000 1.0
C      1  0.4847170000000  0.5597210000000  0.4581340000000 1.0
C      1  0.4403490000000  0.5288710000000  0.4566850000000 1.0
C      1  0.4798370000000  0.5409140000000  0.4348350000000 1.0
C      1  0.4262330000000  0.4617750000000  0.5331110000000 1.0
C      1  0.5011580000000  0.5138310000000  0.5840140000000 1.0
C      1  0.5012830000000  0.5431740000000  0.4789070000000 1.0
C      1  0.4817100000000  0.4909730000000  0.5248620000000 1.0
C      1  0.5445130000000  0.4354530000000  0.4866340000000 1.0
C      1  0.5398830000000  0.5053510000000  0.4214300000000 1.0
C      1  0.5494960000000  0.5548760000000  0.4672970000000 1.0
C      1  0.5241320000000  0.4315600000000  0.4662030000000 1.0
C      1  0.4747960000000  0.5054740000000  0.5798600000000 1.0
C      1  0.5277890000000  0.5480900000000  0.4230340000000 1.0
C      1  0.4430360000000  0.5321010000000  0.5090470000000 1.0
END
