TITL C-151862-9457-4 -0.11409198858596 125000 -356.0146127973 0 0 52 (C1) n - 1
REM
REM in /rds/project/t2_vol4/rds-t2-cs072/BORA/CARBON/from-Arr/AIRSS/Generating-Clusters/GAP-ML-2020/Only-C1/SD-CG/HFTN-CG
REM
REM
REM
REM
REM
REM ./C.cell (11c1c37f851c82e70ff6c80c92926a4b)
REM AIRSS Version 0.9.1 bugfix July 2018 build 013d7b7c2542+ Fri, 06 Jul 2018 19:26:36 +0100
REM compiler GCC version 9.3.0
REM options -cpp -mtune=generic -march=x86-64 -g -O0
REM seed 1480393023 -1588824229 -425690472 -355530408 894008233 1153254584 333726857 -1746335957 -1066224701 1348078712 645529601 1256994905 -357980783 -109093794 1847057338 -664089732 -764311739 -1694010325 -15161500 1967313362 149930388 -1698363068 -1415088398 -374839029 -1641783512 1101843057 -1431094686 1883421454 -1608782980 -2101227833 1718039065 -534078967 1294113884
REM
CELL 1.54180   50.00000   50.00000   50.00000   90.00000   90.00000   90.00000
LATT -1
SFAC C  
C      1  0.4704240000000  0.4762780000000  0.5437260000000 1.0
C      1  0.4717370000000  0.5650410000000  0.5352940000000 1.0
C      1  0.4875980000000  0.5363360000000  0.5006010000000 1.0
C      1  0.4886480000000  0.5221860000000  0.5551000000000 1.0
C      1  0.4684870000000  0.5356190000000  0.4771060000000 1.0
C      1  0.5107430000000  0.4461100000000  0.5337750000000 1.0
C      1  0.5479050000000  0.4484300000000  0.4791450000000 1.0
C      1  0.5014740000000  0.4456620000000  0.4858610000000 1.0
C      1  0.4514310000000  0.4885670000000  0.4673690000000 1.0
C      1  0.4509010000000  0.5113510000000  0.4835420000000 1.0
C      1  0.4507090000000  0.4825150000000  0.5235640000000 1.0
C      1  0.5549910000000  0.4954230000000  0.5032510000000 1.0
C      1  0.5076540000000  0.4935150000000  0.5211390000000 1.0
C      1  0.4899680000000  0.5324450000000  0.4558320000000 1.0
C      1  0.5428700000000  0.4320350000000  0.5031930000000 1.0
C      1  0.5237650000000  0.5554190000000  0.4860330000000 1.0
C      1  0.4693340000000  0.4882490000000  0.4447110000000 1.0
C      1  0.4975210000000  0.4925880000000  0.4815650000000 1.0
C      1  0.4990910000000  0.5706890000000  0.5276530000000 1.0
C      1  0.5443880000000  0.5422740000000  0.5007800000000 1.0
C      1  0.5146940000000  0.5331510000000  0.5561460000000 1.0
C      1  0.5356470000000  0.4632100000000  0.5365590000000 1.0
C      1  0.5556510000000  0.4505680000000  0.5205140000000 1.0
C      1  0.5433900000000  0.5427580000000  0.5287300000000 1.0
C      1  0.5150820000000  0.4316070000000  0.5084900000000 1.0
C      1  0.4896120000000  0.4960400000000  0.5454470000000 1.0
C      1  0.4534430000000  0.4625160000000  0.4798810000000 1.0
C      1  0.5144570000000  0.4941590000000  0.4351910000000 1.0
C      1  0.5366740000000  0.4932220000000  0.5291390000000 1.0
C      1  0.4824760000000  0.4501320000000  0.5384660000000 1.0
C      1  0.4505100000000  0.5588470000000  0.5145160000000 1.0
C      1  0.5227180000000  0.4519350000000  0.4659560000000 1.0
C      1  0.5111270000000  0.4664540000000  0.4433260000000 1.0
C      1  0.4657750000000  0.4395860000000  0.5197960000000 1.0
C      1  0.5376930000000  0.5082690000000  0.4365780000000 1.0
C      1  0.5018440000000  0.5619510000000  0.5012370000000 1.0
C      1  0.5200170000000  0.5572700000000  0.5414250000000 1.0
C      1  0.4464220000000  0.5088360000000  0.5123680000000 1.0
C      1  0.5617770000000  0.4686870000000  0.4970270000000 1.0
C      1  0.5378130000000  0.5191130000000  0.5440670000000 1.0
C      1  0.4492620000000  0.4589570000000  0.5072860000000 1.0
C      1  0.4535140000000  0.5602040000000  0.4878470000000 1.0
C      1  0.4886260000000  0.5086440000000  0.4400960000000 1.0
C      1  0.5171590000000  0.5404860000000  0.4630640000000 1.0
C      1  0.4759700000000  0.4490040000000  0.4688820000000 1.0
C      1  0.4965110000000  0.4729740000000  0.5013810000000 1.0
C      1  0.4670850000000  0.5397230000000  0.5479410000000 1.0
C      1  0.5045970000000  0.5138180000000  0.4989780000000 1.0
C      1  0.5523070000000  0.5189350000000  0.4868500000000 1.0
C      1  0.4463760000000  0.5325780000000  0.5279190000000 1.0
C      1  0.4830950000000  0.4633250000000  0.4458250000000 1.0
C      1  0.5390370000000  0.5223090000000  0.4598340000000 1.0
END
