TITL C-151854-9474-3 -0.307272470756115 125000 -696.976455350874 0 0 101 (C1) n - 1
REM
REM in /rds/project/t2_vol4/rds-t2-cs072/BORA/CARBON/from-Arr/AIRSS/Generating-Clusters/GAP-ML-2020/Only-C1/SD-CG/HFTN-CG
REM
REM
REM
REM
REM
REM ./C.cell (11c1c37f851c82e70ff6c80c92926a4b)
REM AIRSS Version 0.9.1 bugfix July 2018 build 013d7b7c2542+ Fri, 06 Jul 2018 19:26:36 +0100
REM compiler GCC version 9.3.0
REM options -cpp -mtune=generic -march=x86-64 -g -O0
REM seed 1357612383 1902840511 -1093828984 513190404 121351056 -1371556945 -1203338626 121087490 994062437 556774214 1964436318 1015786211 -1424246874 -1832796063 -1944229887 -1422328272 -1126632097 1152477874 -841859437 1206328913 -30568688 53649863 691087664 -624944556 339119719 -626266427 542190440 -1831568761 35764480 -1106003283 608787278 1464786274 1884982185
REM
CELL 1.54180   50.00000   50.00000   50.00000   90.00000   90.00000   90.00000
LATT -1
SFAC C  
C      1  0.5829190000000  0.4802720000000  0.4858880000000 1.0
C      1  0.5316700000000  0.5359760000000  0.5677490000000 1.0
C      1  0.4485500000000  0.5475100000000  0.4881100000000 1.0
C      1  0.4732510000000  0.5174790000000  0.5782950000000 1.0
C      1  0.4675750000000  0.5111950000000  0.4105260000000 1.0
C      1  0.5350810000000  0.5796690000000  0.4973350000000 1.0
C      1  0.4776630000000  0.4431180000000  0.5607890000000 1.0
C      1  0.5397820000000  0.5250470000000  0.4260750000000 1.0
C      1  0.5208410000000  0.4633390000000  0.5788400000000 1.0
C      1  0.5478980000000  0.4648150000000  0.5699260000000 1.0
C      1  0.5088620000000  0.5462650000000  0.5548490000000 1.0
C      1  0.4200040000000  0.4853900000000  0.4741790000000 1.0
C      1  0.4939910000000  0.5028670000000  0.4118070000000 1.0
C      1  0.4488370000000  0.5735870000000  0.5264450000000 1.0
C      1  0.4712770000000  0.4981420000000  0.4914260000000 1.0
C      1  0.4930380000000  0.4799290000000  0.4945860000000 1.0
C      1  0.4747100000000  0.4796620000000  0.5348900000000 1.0
C      1  0.5201210000000  0.5459180000000  0.5263690000000 1.0
C      1  0.5332870000000  0.5084820000000  0.5735460000000 1.0
C      1  0.4517690000000  0.5463590000000  0.5619810000000 1.0
C      1  0.5326290000000  0.4621360000000  0.4736390000000 1.0
C      1  0.5252520000000  0.4597660000000  0.4241090000000 1.0
C      1  0.4180680000000  0.5107710000000  0.5398000000000 1.0
C      1  0.4277900000000  0.5290340000000  0.4971430000000 1.0
C      1  0.5187400000000  0.5096600000000  0.4644210000000 1.0
C      1  0.4918800000000  0.4265800000000  0.4853450000000 1.0
C      1  0.5354700000000  0.4198800000000  0.5021110000000 1.0
C      1  0.4677390000000  0.5544640000000  0.5094530000000 1.0
C      1  0.5027420000000  0.4848450000000  0.5397060000000 1.0
C      1  0.5746440000000  0.5648000000000  0.5652130000000 1.0
C      1  0.4272970000000  0.5031420000000  0.5662950000000 1.0
C      1  0.5590490000000  0.5109110000000  0.4417030000000 1.0
C      1  0.4352680000000  0.5265790000000  0.4483130000000 1.0
C      1  0.4911850000000  0.4736420000000  0.4467380000000 1.0
C      1  0.5628300000000  0.4170260000000  0.5045900000000 1.0
C      1  0.5240880000000  0.4205390000000  0.4503240000000 1.0
C      1  0.4795580000000  0.5579010000000  0.4460260000000 1.0
C      1  0.5291990000000  0.5849580000000  0.4692940000000 1.0
C      1  0.4811270000000  0.5376140000000  0.5561830000000 1.0
C      1  0.4874580000000  0.5783920000000  0.5111370000000 1.0
C      1  0.4765600000000  0.4599030000000  0.5111310000000 1.0
C      1  0.5052990000000  0.5234710000000  0.5108120000000 1.0
C      1  0.5596710000000  0.4674820000000  0.5238470000000 1.0
C      1  0.5454920000000  0.4651510000000  0.4441180000000 1.0
C      1  0.5033090000000  0.5463330000000  0.4342430000000 1.0
C      1  0.5552530000000  0.5466110000000  0.4744190000000 1.0
C      1  0.5038260000000  0.4779730000000  0.4205400000000 1.0
C      1  0.4894340000000  0.4305690000000  0.5142310000000 1.0
C      1  0.4452810000000  0.5232700000000  0.5768270000000 1.0
C      1  0.4458150000000  0.4527230000000  0.5014590000000 1.0
C      1  0.5673500000000  0.4833600000000  0.4419120000000 1.0
C      1  0.4327470000000  0.5010520000000  0.5162270000000 1.0
C      1  0.5136100000000  0.4923820000000  0.5144260000000 1.0
C      1  0.5101890000000  0.4894880000000  0.5718710000000 1.0
C      1  0.5145450000000  0.5723640000000  0.5145060000000 1.0
C      1  0.4704390000000  0.4924760000000  0.4521720000000 1.0
C      1  0.5056890000000  0.4424490000000  0.5658890000000 1.0
C      1  0.5496500000000  0.4495990000000  0.5466210000000 1.0
C      1  0.5314500000000  0.5515380000000  0.4334310000000 1.0
C      1  0.4583190000000  0.5410220000000  0.4610470000000 1.0
C      1  0.5011520000000  0.5255450000000  0.4811890000000 1.0
C      1  0.4680010000000  0.4277660000000  0.5369800000000 1.0
C      1  0.5117840000000  0.5170600000000  0.4315690000000 1.0
C      1  0.5254300000000  0.4332510000000  0.5472280000000 1.0
C      1  0.4669660000000  0.5933940000000  0.5236460000000 1.0
C      1  0.4479840000000  0.4470410000000  0.4723810000000 1.0
C      1  0.5106640000000  0.4358360000000  0.4333830000000 1.0
C      1  0.5847120000000  0.4309750000000  0.5020330000000 1.0
C      1  0.5603020000000  0.5008410000000  0.4929330000000 1.0
C      1  0.4339400000000  0.5559320000000  0.5417650000000 1.0
C      1  0.4630580000000  0.5032610000000  0.5200240000000 1.0
C      1  0.4858320000000  0.4450190000000  0.4438200000000 1.0
C      1  0.4190710000000  0.5365340000000  0.5267000000000 1.0
C      1  0.5505350000000  0.5177370000000  0.4695680000000 1.0
C      1  0.5096200000000  0.4797630000000  0.4695210000000 1.0
C      1  0.5550030000000  0.5585120000000  0.4996390000000 1.0
C      1  0.4466880000000  0.4831960000000  0.4378980000000 1.0
C      1  0.5562750000000  0.5491440000000  0.5546430000000 1.0
C      1  0.5636850000000  0.5147250000000  0.5191930000000 1.0
C      1  0.4214590000000  0.5149660000000  0.4711290000000 1.0
C      1  0.5812850000000  0.4587460000000  0.5049620000000 1.0
C      1  0.5403150000000  0.4788190000000  0.5012350000000 1.0
C      1  0.4779300000000  0.5291550000000  0.5244910000000 1.0
C      1  0.4724790000000  0.4340160000000  0.4659810000000 1.0
C      1  0.4867600000000  0.5845650000000  0.4489810000000 1.0
C      1  0.5434430000000  0.5641860000000  0.4554110000000 1.0
C      1  0.4385270000000  0.4793970000000  0.5736740000000 1.0
C      1  0.4652900000000  0.4713970000000  0.5650690000000 1.0
C      1  0.4825100000000  0.4919590000000  0.5802450000000 1.0
C      1  0.4338890000000  0.4673550000000  0.4567820000000 1.0
C      1  0.5554450000000  0.4920970000000  0.5646240000000 1.0
C      1  0.5220590000000  0.4314280000000  0.4777820000000 1.0
C      1  0.4441040000000  0.5087650000000  0.4258530000000 1.0
C      1  0.4270270000000  0.4771990000000  0.5000530000000 1.0
C      1  0.5520150000000  0.5416180000000  0.5243760000000 1.0
C      1  0.5652130000000  0.4936520000000  0.5379200000000 1.0
C      1  0.5075260000000  0.5975340000000  0.4570410000000 1.0
C      1  0.5884890000000  0.4783910000000  0.4597020000000 1.0
C      1  0.4749450000000  0.5163860000000  0.4701690000000 1.0
C      1  0.5165060000000  0.4237320000000  0.5228490000000 1.0
C      1  0.4450140000000  0.4322270000000  0.5226720000000 1.0
END
