TITL C-152487-6986-6 0.0153651384928854 125000 -713.60077290357 0 0 101 (C1) n - 1
REM
REM in /rds/project/t2_vol4/rds-t2-cs072/BORA/CARBON/from-Arr/AIRSS/Generating-Clusters/GAP-ML-2020/Only-C1/SD-CG/HFTN-CG
REM
REM
REM
REM
REM
REM ./C.cell (11c1c37f851c82e70ff6c80c92926a4b)
REM AIRSS Version 0.9.1 bugfix July 2018 build 013d7b7c2542+ Fri, 06 Jul 2018 19:26:36 +0100
REM compiler GCC version 9.3.0
REM options -cpp -mtune=generic -march=x86-64 -g -O0
REM seed -1855591886 -564453096 -497339906 -56522724 196886944 1585849614 1768034862 -860393066 -644840807 914258062 -2100584029 -1272692080 -168833930 -2031047780 -1242638578 -1925561221 -1319823646 -967683801 549712944 -293854630 -1754713189 -1798475197 1936302065 684805307 -1897670840 2028702622 -1700743188 -406516349 1481609288 -1079430137 100739070 160643266 1376059634
REM
CELL 1.54180   50.00000   50.00000   50.00000   90.00000   90.00000   90.00000
LATT -1
SFAC C  
C      1  0.5483330000000  0.4927340000000  0.4893950000000 1.0
C      1  0.5801850000000  0.4501770000000  0.4865090000000 1.0
C      1  0.4693930000000  0.5830370000000  0.5294920000000 1.0
C      1  0.5669660000000  0.5454750000000  0.5047680000000 1.0
C      1  0.5460050000000  0.5370560000000  0.5471050000000 1.0
C      1  0.4526370000000  0.4640580000000  0.4460110000000 1.0
C      1  0.4510500000000  0.4436160000000  0.4659220000000 1.0
C      1  0.4787540000000  0.5478480000000  0.5641050000000 1.0
C      1  0.5297990000000  0.4744670000000  0.4490310000000 1.0
C      1  0.5497910000000  0.4535660000000  0.4533190000000 1.0
C      1  0.4750600000000  0.5116990000000  0.4672490000000 1.0
C      1  0.5004030000000  0.5781280000000  0.5261280000000 1.0
C      1  0.4790830000000  0.4784640000000  0.4352210000000 1.0
C      1  0.5723520000000  0.5088580000000  0.4452600000000 1.0
C      1  0.5573960000000  0.4656300000000  0.5548570000000 1.0
C      1  0.5355420000000  0.4493460000000  0.5658710000000 1.0
C      1  0.4715460000000  0.4876100000000  0.4852000000000 1.0
C      1  0.4428400000000  0.4374570000000  0.5071970000000 1.0
C      1  0.4184320000000  0.5192580000000  0.4870060000000 1.0
C      1  0.4279180000000  0.4909290000000  0.5561300000000 1.0
C      1  0.4772230000000  0.5598770000000  0.4648200000000 1.0
C      1  0.5311770000000  0.5768600000000  0.5201480000000 1.0
C      1  0.5146010000000  0.5238910000000  0.4986040000000 1.0
C      1  0.5329030000000  0.4986080000000  0.4655480000000 1.0
C      1  0.4917740000000  0.5051450000000  0.5869500000000 1.0
C      1  0.4197470000000  0.4943350000000  0.4720970000000 1.0
C      1  0.5119010000000  0.4613030000000  0.5766240000000 1.0
C      1  0.5587360000000  0.4322000000000  0.4921310000000 1.0
C      1  0.5793240000000  0.4956830000000  0.4947600000000 1.0
C      1  0.5398270000000  0.4324320000000  0.4707700000000 1.0
C      1  0.4640970000000  0.5364850000000  0.4779840000000 1.0
C      1  0.4601610000000  0.5695050000000  0.5514190000000 1.0
C      1  0.5678360000000  0.4560720000000  0.5301330000000 1.0
C      1  0.5394070000000  0.5693900000000  0.4709910000000 1.0
C      1  0.4374810000000  0.4882130000000  0.4498610000000 1.0
C      1  0.4983240000000  0.4865200000000  0.4130120000000 1.0
C      1  0.4318050000000  0.4530970000000  0.5295890000000 1.0
C      1  0.4662760000000  0.4920590000000  0.5833620000000 1.0
C      1  0.4948050000000  0.5260400000000  0.5195670000000 1.0
C      1  0.5325360000000  0.4222650000000  0.5604080000000 1.0
C      1  0.5272480000000  0.5833020000000  0.4921790000000 1.0
C      1  0.4556360000000  0.5795750000000  0.5045840000000 1.0
C      1  0.4937050000000  0.4246450000000  0.4939750000000 1.0
C      1  0.4510610000000  0.5340480000000  0.5666760000000 1.0
C      1  0.4687610000000  0.5240860000000  0.5088550000000 1.0
C      1  0.4449960000000  0.5074160000000  0.5724010000000 1.0
C      1  0.5346410000000  0.5029130000000  0.5113000000000 1.0
C      1  0.4138930000000  0.4727120000000  0.5173040000000 1.0
C      1  0.4390830000000  0.4643170000000  0.5557480000000 1.0
C      1  0.4999890000000  0.5320310000000  0.5773200000000 1.0
C      1  0.5761140000000  0.5198370000000  0.5127170000000 1.0
C      1  0.4288340000000  0.4477910000000  0.4837150000000 1.0
C      1  0.5012250000000  0.4666610000000  0.4547440000000 1.0
C      1  0.4347990000000  0.5422720000000  0.4808080000000 1.0
C      1  0.4957400000000  0.5505040000000  0.5383600000000 1.0
C      1  0.4868770000000  0.4515830000000  0.5660250000000 1.0
C      1  0.5821730000000  0.4906920000000  0.4644510000000 1.0
C      1  0.5144820000000  0.4816700000000  0.5124380000000 1.0
C      1  0.4846680000000  0.4467090000000  0.5377460000000 1.0
C      1  0.5419480000000  0.4752240000000  0.4221730000000 1.0
C      1  0.5826510000000  0.4686480000000  0.5080200000000 1.0
C      1  0.5757280000000  0.4629730000000  0.4620780000000 1.0
C      1  0.5356230000000  0.5209670000000  0.4185310000000 1.0
C      1  0.4230380000000  0.5474910000000  0.5248320000000 1.0
C      1  0.4994900000000  0.5875070000000  0.4969160000000 1.0
C      1  0.5498010000000  0.5570190000000  0.5265840000000 1.0
C      1  0.4905640000000  0.5358820000000  0.4242330000000 1.0
C      1  0.5184030000000  0.4656270000000  0.4094980000000 1.0
C      1  0.4374520000000  0.5523660000000  0.5493190000000 1.0
C      1  0.4628000000000  0.4651500000000  0.5734720000000 1.0
C      1  0.5143890000000  0.4880440000000  0.5852380000000 1.0
C      1  0.5008470000000  0.4291160000000  0.5219520000000 1.0
C      1  0.4783900000000  0.4782770000000  0.5290610000000 1.0
C      1  0.5120030000000  0.4256490000000  0.4707830000000 1.0
C      1  0.5365500000000  0.5036410000000  0.5761820000000 1.0
C      1  0.4337960000000  0.5615660000000  0.5022710000000 1.0
C      1  0.5069510000000  0.5088240000000  0.4745040000000 1.0
C      1  0.4129640000000  0.4971450000000  0.5319140000000 1.0
C      1  0.4637270000000  0.4949150000000  0.5105600000000 1.0
C      1  0.5282480000000  0.5300590000000  0.5690640000000 1.0
C      1  0.5573130000000  0.5124560000000  0.5356950000000 1.0
C      1  0.5560280000000  0.4934240000000  0.5587340000000 1.0
C      1  0.4972500000000  0.5562840000000  0.4439820000000 1.0
C      1  0.4987160000000  0.4962960000000  0.5312690000000 1.0
C      1  0.5080580000000  0.5146190000000  0.4147050000000 1.0
C      1  0.4619360000000  0.5041960000000  0.4411530000000 1.0
C      1  0.5617900000000  0.5520430000000  0.4765930000000 1.0
C      1  0.5645710000000  0.5358750000000  0.4524070000000 1.0
C      1  0.5106220000000  0.4412570000000  0.4211680000000 1.0
C      1  0.5550900000000  0.5005460000000  0.4225340000000 1.0
C      1  0.4998190000000  0.4798310000000  0.4842320000000 1.0
C      1  0.5527050000000  0.4342150000000  0.5196990000000 1.0
C      1  0.5255410000000  0.5612470000000  0.4469420000000 1.0
C      1  0.4145770000000  0.4713550000000  0.4888660000000 1.0
C      1  0.5015430000000  0.4378480000000  0.4465190000000 1.0
C      1  0.5434510000000  0.5430580000000  0.4343860000000 1.0
C      1  0.4650210000000  0.5272090000000  0.4252190000000 1.0
C      1  0.4132650000000  0.5213840000000  0.5159340000000 1.0
C      1  0.4664510000000  0.4316690000000  0.4893930000000 1.0
C      1  0.4756270000000  0.5807330000000  0.4839880000000 1.0
C      1  0.5279100000000  0.4262160000000  0.5334970000000 1.0
END
