TITL C-152513-7777-10 0.0442764503119989 125000 -571.020112754888 0 0 83 (C1) n - 1
REM
REM in /rds/project/t2_vol4/rds-t2-cs072/BORA/CARBON/from-Arr/AIRSS/Generating-Clusters/GAP-ML-2020/Only-C1/SD-CG/HFTN-CG
REM
REM
REM
REM
REM
REM ./C.cell (11c1c37f851c82e70ff6c80c92926a4b)
REM AIRSS Version 0.9.1 bugfix July 2018 build 013d7b7c2542+ Fri, 06 Jul 2018 19:26:36 +0100
REM compiler GCC version 9.3.0
REM options -cpp -mtune=generic -march=x86-64 -g -O0
REM seed -2003113719 7905170 -1553706384 19910990 1521948399 -1314765780 1242118274 -1605378750 1104633470 540098185 -578383029 80077077 -1091003652 -1482271201 241210881 -1197133491 477737643 370449194 1902033333 340757375 653659859 1356477547 -1368436040 -848897485 990389059 -459622079 -796340814 635260475 -1477424696 901761911 599003376 -301334891 1978329149
REM
CELL 1.54180   50.00000   50.00000   50.00000   90.00000   90.00000   90.00000
LATT -1
SFAC C  
C      1  0.5129620000000  0.5234060000000  0.4066910000000 1.0
C      1  0.4458300000000  0.5552050000000  0.5253270000000 1.0
C      1  0.4270280000000  0.4625180000000  0.4959550000000 1.0
C      1  0.5670710000000  0.5011480000000  0.5573480000000 1.0
C      1  0.4373030000000  0.5033850000000  0.5474880000000 1.0
C      1  0.5239170000000  0.4900140000000  0.4805430000000 1.0
C      1  0.4502430000000  0.5492990000000  0.4757890000000 1.0
C      1  0.5137590000000  0.5437650000000  0.4638350000000 1.0
C      1  0.5033980000000  0.5217040000000  0.5073210000000 1.0
C      1  0.4679790000000  0.4681510000000  0.4646540000000 1.0
C      1  0.4928480000000  0.5639310000000  0.4673920000000 1.0
C      1  0.4675560000000  0.4521080000000  0.5531220000000 1.0
C      1  0.5452150000000  0.5036160000000  0.5194490000000 1.0
C      1  0.5507380000000  0.5554860000000  0.5209410000000 1.0
C      1  0.4842690000000  0.4349610000000  0.5114790000000 1.0
C      1  0.4362450000000  0.4258910000000  0.4612390000000 1.0
C      1  0.5343050000000  0.5533640000000  0.5445600000000 1.0
C      1  0.4858480000000  0.4878890000000  0.4205610000000 1.0
C      1  0.4607640000000  0.5486270000000  0.5491820000000 1.0
C      1  0.4883720000000  0.4335430000000  0.5446810000000 1.0
C      1  0.5160650000000  0.5012920000000  0.5244410000000 1.0
C      1  0.4857120000000  0.5335240000000  0.4124200000000 1.0
C      1  0.4951010000000  0.4520450000000  0.4644710000000 1.0
C      1  0.5392000000000  0.4529670000000  0.5134640000000 1.0
C      1  0.4569950000000  0.4267090000000  0.5075560000000 1.0
C      1  0.5758970000000  0.4794720000000  0.4972730000000 1.0
C      1  0.5173440000000  0.4699670000000  0.4551960000000 1.0
C      1  0.4316950000000  0.5088330000000  0.5183520000000 1.0
C      1  0.4827460000000  0.4728950000000  0.5413410000000 1.0
C      1  0.5294730000000  0.5326990000000  0.5639470000000 1.0
C      1  0.4873350000000  0.5730180000000  0.4943890000000 1.0
C      1  0.4841440000000  0.5135460000000  0.5671190000000 1.0
C      1  0.5412770000000  0.5530050000000  0.4610550000000 1.0
C      1  0.4579150000000  0.5216420000000  0.5581480000000 1.0
C      1  0.5305970000000  0.4571790000000  0.5619810000000 1.0
C      1  0.4411910000000  0.4537160000000  0.4696750000000 1.0
C      1  0.4878470000000  0.5087670000000  0.4007770000000 1.0
C      1  0.4425980000000  0.5201440000000  0.4724530000000 1.0
C      1  0.4661380000000  0.4878940000000  0.4408280000000 1.0
C      1  0.5119050000000  0.4840740000000  0.4302970000000 1.0
C      1  0.5092400000000  0.5774310000000  0.5121510000000 1.0
C      1  0.5618560000000  0.4823190000000  0.4459000000000 1.0
C      1  0.4864270000000  0.4672530000000  0.5124300000000 1.0
C      1  0.5513180000000  0.4425540000000  0.4740660000000 1.0
C      1  0.4263210000000  0.5370420000000  0.5184600000000 1.0
C      1  0.5507230000000  0.4566860000000  0.5416570000000 1.0
C      1  0.4763110000000  0.5270490000000  0.5070030000000 1.0
C      1  0.5154100000000  0.4764110000000  0.5076830000000 1.0
C      1  0.5525060000000  0.4976500000000  0.4915040000000 1.0
C      1  0.4627850000000  0.5578100000000  0.5014340000000 1.0
C      1  0.4178170000000  0.5056980000000  0.4761430000000 1.0
C      1  0.5021540000000  0.4336410000000  0.4857170000000 1.0
C      1  0.5112460000000  0.5179790000000  0.4800760000000 1.0
C      1  0.4556950000000  0.5136370000000  0.4458910000000 1.0
C      1  0.5661980000000  0.5229090000000  0.4848010000000 1.0
C      1  0.5735860000000  0.5131530000000  0.5308230000000 1.0
C      1  0.5649190000000  0.4539490000000  0.4959190000000 1.0
C      1  0.4683110000000  0.5561850000000  0.4551410000000 1.0
C      1  0.4883100000000  0.5567640000000  0.5547670000000 1.0
C      1  0.5294290000000  0.5058350000000  0.4228690000000 1.0
C      1  0.5109900000000  0.4382390000000  0.5585560000000 1.0
C      1  0.5421850000000  0.5068690000000  0.5689410000000 1.0
C      1  0.5684800000000  0.5347570000000  0.5115400000000 1.0
C      1  0.5851550000000  0.4872810000000  0.5225200000000 1.0
C      1  0.5539320000000  0.5082800000000  0.4398110000000 1.0
C      1  0.4493280000000  0.4178350000000  0.4820540000000 1.0
C      1  0.4364580000000  0.4464100000000  0.5178170000000 1.0
C      1  0.5450110000000  0.5755830000000  0.4766390000000 1.0
C      1  0.5000700000000  0.4927400000000  0.5530890000000 1.0
C      1  0.4294250000000  0.4783510000000  0.5558460000000 1.0
C      1  0.4167710000000  0.4892990000000  0.4979780000000 1.0
C      1  0.4577270000000  0.5078380000000  0.4982610000000 1.0
C      1  0.5092850000000  0.5679220000000  0.5393560000000 1.0
C      1  0.5236540000000  0.4849880000000  0.5690550000000 1.0
C      1  0.4692720000000  0.4812860000000  0.4924920000000 1.0
C      1  0.5366110000000  0.5731020000000  0.5025790000000 1.0
C      1  0.4678560000000  0.5366320000000  0.4342150000000 1.0
C      1  0.5012940000000  0.5357600000000  0.5695540000000 1.0
C      1  0.5297330000000  0.4335340000000  0.4912520000000 1.0
C      1  0.5727960000000  0.4742280000000  0.5455360000000 1.0
C      1  0.5463920000000  0.4598810000000  0.4523540000000 1.0
C      1  0.4403290000000  0.4551190000000  0.5449390000000 1.0
C      1  0.5598590000000  0.5307090000000  0.4584400000000 1.0
END
