TITL C-158501-1881-2 -48.4391465097267 125000 -249.905980832164 0 0 38 (C1) n - 1
REM
REM in /rds/project/t2_vol4/rds-t2-cs072/BORA/CARBON/from-Arr/AIRSS/Generating-Clusters/GAP-ML-2020/Only-C1/SD-CG/HFTN-CG
REM
REM
REM
REM
REM
REM ./C.cell (11c1c37f851c82e70ff6c80c92926a4b)
REM AIRSS Version 0.9.1 bugfix July 2018 build 013d7b7c2542+ Fri, 06 Jul 2018 19:26:36 +0100
REM compiler GCC version 9.3.0
REM options -cpp -mtune=generic -march=x86-64 -g -O0
REM seed -1683700985 -2047597488 -149816270 275171216 392196406 746437963 290938378 -1419421839 375344443 735540352 -1955857331 -2001646202 410449195 1070556191 -708599892 -1767616664 -1784863773 1012940677 767916629 527098547 -45876253 905926708 -470407224 2063819505 -1942351268 -76145082 653578400 -1163059296 -742643972 548981777 1237434778 -614537629 -2083227410
REM
CELL 1.54180   50.00000   50.00000   50.00000   90.00000   90.00000   90.00000
LATT -1
SFAC C  
C      1  0.5284500000000  0.5174130000000  0.5370840000000 1.0
C      1  0.4816240000000  0.4556040000000  0.4654640000000 1.0
C      1  0.4691960000000  0.4750300000000  0.5305850000000 1.0
C      1  0.4654460000000  0.5197250000000  0.5407180000000 1.0
C      1  0.4863240000000  0.4973910000000  0.4840710000000 1.0
C      1  0.5106880000000  0.5407150000000  0.5340590000000 1.0
C      1  0.5618600000000  0.4933770000000  0.4671350000000 1.0
C      1  0.5060880000000  0.4576930000000  0.5090180000000 1.0
C      1  0.4403870000000  0.5012970000000  0.4962930000000 1.0
C      1  0.4873140000000  0.4796280000000  0.5080180000000 1.0
C      1  0.4420920000000  0.4733610000000  0.4936140000000 1.0
C      1  0.5185660000000  0.4918430000000  0.5454470000000 1.0
C      1  0.4565690000000  0.4523930000000  0.4796770000000 1.0
C      1  0.5263460000000  0.5298300000000  0.4600280000000 1.0
C      1  0.5062870000000  0.5189560000000  0.4831000000000 1.0
C      1  0.4986200000000  0.4914900000000  0.5634770000000 1.0
C      1  0.4496730000000  0.5179120000000  0.5157560000000 1.0
C      1  0.5163160000000  0.5585400000000  0.5124100000000 1.0
C      1  0.5265080000000  0.4710440000000  0.5251000000000 1.0
C      1  0.5486690000000  0.5123110000000  0.5180980000000 1.0
C      1  0.5537920000000  0.5307220000000  0.4970640000000 1.0
C      1  0.4943880000000  0.4990210000000  0.4380420000000 1.0
C      1  0.5107710000000  0.5186670000000  0.4387060000000 1.0
C      1  0.5239510000000  0.5576020000000  0.4717730000000 1.0
C      1  0.4643190000000  0.5190740000000  0.4908510000000 1.0
C      1  0.4621570000000  0.4374130000000  0.5037850000000 1.0
C      1  0.4904710000000  0.4322370000000  0.5057330000000 1.0
C      1  0.4736830000000  0.4936930000000  0.5508410000000 1.0
C      1  0.4854270000000  0.4826080000000  0.4585870000000 1.0
C      1  0.4990010000000  0.5613740000000  0.4874230000000 1.0
C      1  0.5479120000000  0.4836940000000  0.5117240000000 1.0
C      1  0.5527590000000  0.5190280000000  0.4699250000000 1.0
C      1  0.5559920000000  0.4765710000000  0.4856830000000 1.0
C      1  0.4495480000000  0.4581190000000  0.5190940000000 1.0
C      1  0.5019340000000  0.4430970000000  0.4830210000000 1.0
C      1  0.5387690000000  0.5544560000000  0.4959980000000 1.0
C      1  0.4833360000000  0.5386690000000  0.4818230000000 1.0
C      1  0.4847640000000  0.5384020000000  0.5407750000000 1.0
END
