TITL C-152499-7575-2 -16.0941988900087 125000 -544.925475585112 0 0 79 (C1) n - 1
REM
REM in /rds/project/t2_vol4/rds-t2-cs072/BORA/CARBON/from-Arr/AIRSS/Generating-Clusters/GAP-ML-2020/Only-C1/SD-CG/HFTN-CG
REM
REM
REM
REM
REM
REM ./C.cell (11c1c37f851c82e70ff6c80c92926a4b)
REM AIRSS Version 0.9.1 bugfix July 2018 build 013d7b7c2542+ Fri, 06 Jul 2018 19:26:36 +0100
REM compiler GCC version 9.3.0
REM options -cpp -mtune=generic -march=x86-64 -g -O0
REM seed 1519891624 -1590689586 996364972 263614995 1513449145 75372510 -2129577369 -1352024790 325742126 -258322268 -443015006 388717185 -1896679874 -2027281341 -1067150564 -1870249272 -1705225624 632354936 -1351884963 -1721633648 1100280951 -1156813735 -510559757 -974916736 791583455 -324890210 1256640968 2042066058 -1686682556 -1758671834 -341141967 -776597124 -1353343699
REM
CELL 1.54180   50.00000   50.00000   50.00000   90.00000   90.00000   90.00000
LATT -1
SFAC C  
C      1  0.4614850000000  0.5272530000000  0.4403340000000 1.0
C      1  0.5206440000000  0.5025020000000  0.4231020000000 1.0
C      1  0.4958440000000  0.5050910000000  0.4126180000000 1.0
C      1  0.4713910000000  0.5838480000000  0.4719520000000 1.0
C      1  0.5391660000000  0.4462350000000  0.4647490000000 1.0
C      1  0.4872590000000  0.5639700000000  0.5145340000000 1.0
C      1  0.5222110000000  0.4792230000000  0.4444460000000 1.0
C      1  0.4731460000000  0.5113960000000  0.5592520000000 1.0
C      1  0.4851330000000  0.5349900000000  0.5766660000000 1.0
C      1  0.5086360000000  0.4569460000000  0.5529140000000 1.0
C      1  0.4661370000000  0.4842650000000  0.5670230000000 1.0
C      1  0.4954590000000  0.5680270000000  0.5423440000000 1.0
C      1  0.4525570000000  0.4670640000000  0.5480450000000 1.0
C      1  0.5355130000000  0.4313170000000  0.4886130000000 1.0
C      1  0.5573220000000  0.5573890000000  0.4928210000000 1.0
C      1  0.5263000000000  0.5243760000000  0.4411300000000 1.0
C      1  0.4433400000000  0.5214330000000  0.4610420000000 1.0
C      1  0.4906800000000  0.5679920000000  0.4596400000000 1.0
C      1  0.4397540000000  0.4965730000000  0.4813070000000 1.0
C      1  0.4740850000000  0.5555850000000  0.5598400000000 1.0
C      1  0.4602110000000  0.4414340000000  0.5098940000000 1.0
C      1  0.4571090000000  0.5365090000000  0.5443300000000 1.0
C      1  0.4885390000000  0.4782040000000  0.4831690000000 1.0
C      1  0.4993520000000  0.4199950000000  0.5212720000000 1.0
C      1  0.5424720000000  0.4356750000000  0.5360830000000 1.0
C      1  0.5200320000000  0.5116000000000  0.5519660000000 1.0
C      1  0.4843360000000  0.5142310000000  0.5089580000000 1.0
C      1  0.5081610000000  0.5238720000000  0.4911860000000 1.0
C      1  0.5703490000000  0.4932490000000  0.4693300000000 1.0
C      1  0.5586880000000  0.4711760000000  0.5107100000000 1.0
C      1  0.5494810000000  0.5370200000000  0.4505860000000 1.0
C      1  0.4880330000000  0.4245270000000  0.4744830000000 1.0
C      1  0.5516640000000  0.4418020000000  0.5102930000000 1.0
C      1  0.4706110000000  0.5055270000000  0.4220050000000 1.0
C      1  0.4456760000000  0.5528370000000  0.5021420000000 1.0
C      1  0.5159180000000  0.4289800000000  0.5414120000000 1.0
C      1  0.4134870000000  0.5228010000000  0.5212310000000 1.0
C      1  0.4618740000000  0.4327890000000  0.4833490000000 1.0
C      1  0.5029230000000  0.5207090000000  0.4609040000000 1.0
C      1  0.4315890000000  0.5417150000000  0.5301540000000 1.0
C      1  0.5340120000000  0.5116610000000  0.4958470000000 1.0
C      1  0.5378860000000  0.5524330000000  0.5177400000000 1.0
C      1  0.4635610000000  0.4694700000000  0.5198340000000 1.0
C      1  0.4962850000000  0.4909040000000  0.4580900000000 1.0
C      1  0.4696260000000  0.4552060000000  0.4435510000000 1.0
C      1  0.4195920000000  0.5153610000000  0.4956670000000 1.0
C      1  0.5125210000000  0.5547070000000  0.4995090000000 1.0
C      1  0.5212860000000  0.5371210000000  0.5650110000000 1.0
C      1  0.4847510000000  0.4592100000000  0.5700790000000 1.0
C      1  0.4501820000000  0.4511590000000  0.4645430000000 1.0
C      1  0.4946220000000  0.5031950000000  0.5372730000000 1.0
C      1  0.4730920000000  0.4277240000000  0.5306310000000 1.0
C      1  0.5388540000000  0.4594290000000  0.5532420000000 1.0
C      1  0.4648300000000  0.5758260000000  0.4970710000000 1.0
C      1  0.5506450000000  0.5226580000000  0.5205300000000 1.0
C      1  0.4328480000000  0.4704660000000  0.4720890000000 1.0
C      1  0.5087480000000  0.4201010000000  0.4939000000000 1.0
C      1  0.5180980000000  0.4495280000000  0.4460160000000 1.0
C      1  0.5777390000000  0.5166840000000  0.5083310000000 1.0
C      1  0.5343650000000  0.4828440000000  0.4939380000000 1.0
C      1  0.5166760000000  0.5676460000000  0.4731350000000 1.0
C      1  0.4315450000000  0.5383480000000  0.4805520000000 1.0
C      1  0.5765590000000  0.5366620000000  0.4881120000000 1.0
C      1  0.4923670000000  0.4388160000000  0.4502880000000 1.0
C      1  0.4959840000000  0.4738860000000  0.5286920000000 1.0
C      1  0.4758970000000  0.4826770000000  0.4381130000000 1.0
C      1  0.4665870000000  0.4425510000000  0.5548780000000 1.0
C      1  0.5230190000000  0.5583320000000  0.5448130000000 1.0
C      1  0.5530040000000  0.4787750000000  0.5391880000000 1.0
C      1  0.4694640000000  0.5387470000000  0.5167250000000 1.0
C      1  0.5083270000000  0.4724250000000  0.5022150000000 1.0
C      1  0.5450330000000  0.5050350000000  0.5424020000000 1.0
C      1  0.5780070000000  0.4899330000000  0.4970780000000 1.0
C      1  0.4843020000000  0.5410470000000  0.4505760000000 1.0
C      1  0.5452660000000  0.4759750000000  0.4650770000000 1.0
C      1  0.5083310000000  0.5398060000000  0.5894690000000 1.0
C      1  0.5431600000000  0.5603780000000  0.4677060000000 1.0
C      1  0.4661170000000  0.4914220000000  0.4982600000000 1.0
C      1  0.5702460000000  0.5217250000000  0.4640010000000 1.0
END
