TITL C-154618-4185-1 -0.0345553769544718 125000 -393.260323491099 0 0 57 (C1) n - 1
REM
REM in /rds/project/t2_vol4/rds-t2-cs072/BORA/CARBON/from-Arr/AIRSS/Generating-Clusters/GAP-ML-2020/Only-C1/SD-CG/HFTN-CG
REM
REM
REM
REM
REM
REM ./C.cell (11c1c37f851c82e70ff6c80c92926a4b)
REM AIRSS Version 0.9.1 bugfix July 2018 build 013d7b7c2542+ Fri, 06 Jul 2018 19:26:36 +0100
REM compiler GCC version 9.3.0
REM options -cpp -mtune=generic -march=x86-64 -g -O0
REM seed -497047737 1557385563 1910834250 1051545591 1449638890 -1656719455 1292696428 -1904712143 -735216960 -1004340621 -1169696967 154033182 1886190283 -6072356 -1751627624 -2093657068 1953379459 -475813601 -1624290218 1705676312 -33138030 1613441855 1665220964 1405783893 31292547 -1938102306 -1248392814 1491088313 -1717354021 1368114226 -1730479529 1975346261 754217433
REM
CELL 1.54180   50.00000   50.00000   50.00000   90.00000   90.00000   90.00000
LATT -1
SFAC C  
C      1  0.4469120000000  0.4923040000000  0.4595000000000 1.0
C      1  0.5129450000000  0.5185650000000  0.4375690000000 1.0
C      1  0.4497920000000  0.5074840000000  0.5620200000000 1.0
C      1  0.5732390000000  0.4863850000000  0.5148700000000 1.0
C      1  0.5466900000000  0.5093290000000  0.5459130000000 1.0
C      1  0.4343990000000  0.4804240000000  0.4829170000000 1.0
C      1  0.4921760000000  0.4972800000000  0.4701170000000 1.0
C      1  0.4924890000000  0.4706140000000  0.5567760000000 1.0
C      1  0.4834160000000  0.5160940000000  0.4346820000000 1.0
C      1  0.4914870000000  0.5266320000000  0.5149810000000 1.0
C      1  0.4995960000000  0.5599850000000  0.4840560000000 1.0
C      1  0.4483450000000  0.4701500000000  0.5294920000000 1.0
C      1  0.5027390000000  0.4991940000000  0.5109180000000 1.0
C      1  0.5274080000000  0.5564980000000  0.4920650000000 1.0
C      1  0.4732530000000  0.4904430000000  0.4474620000000 1.0
C      1  0.4444940000000  0.4621680000000  0.5014970000000 1.0
C      1  0.4274640000000  0.5063350000000  0.4940200000000 1.0
C      1  0.5415430000000  0.5505500000000  0.4669150000000 1.0
C      1  0.5573420000000  0.4834070000000  0.5389450000000 1.0
C      1  0.5647060000000  0.5182610000000  0.4800240000000 1.0
C      1  0.5113120000000  0.5385630000000  0.5363250000000 1.0
C      1  0.4899660000000  0.4835530000000  0.4941240000000 1.0
C      1  0.5672190000000  0.5407750000000  0.4650480000000 1.0
C      1  0.4655190000000  0.4446100000000  0.4937480000000 1.0
C      1  0.5547000000000  0.5280430000000  0.5251780000000 1.0
C      1  0.5334500000000  0.5464290000000  0.5183730000000 1.0
C      1  0.5731650000000  0.4658760000000  0.4964450000000 1.0
C      1  0.4973400000000  0.5563120000000  0.4559170000000 1.0
C      1  0.5723590000000  0.5143850000000  0.5075040000000 1.0
C      1  0.4822790000000  0.4413210000000  0.5173610000000 1.0
C      1  0.5073850000000  0.4359920000000  0.4797620000000 1.0
C      1  0.5175720000000  0.4616660000000  0.5551310000000 1.0
C      1  0.4882950000000  0.4642370000000  0.4492430000000 1.0
C      1  0.4403720000000  0.5182480000000  0.4714160000000 1.0
C      1  0.4749270000000  0.5397040000000  0.4487410000000 1.0
C      1  0.4762700000000  0.5465500000000  0.4968190000000 1.0
C      1  0.4272680000000  0.5153640000000  0.5205050000000 1.0
C      1  0.4387500000000  0.4958070000000  0.5394330000000 1.0
C      1  0.4595830000000  0.5380260000000  0.4725120000000 1.0
C      1  0.5497390000000  0.4517410000000  0.4918840000000 1.0
C      1  0.5393090000000  0.4609640000000  0.5402000000000 1.0
C      1  0.5347970000000  0.4448470000000  0.5161020000000 1.0
C      1  0.5207550000000  0.4978720000000  0.4567940000000 1.0
C      1  0.4810070000000  0.5391330000000  0.5410560000000 1.0
C      1  0.5213430000000  0.5449560000000  0.4463860000000 1.0
C      1  0.4342850000000  0.5429660000000  0.5247830000000 1.0
C      1  0.5088280000000  0.4357820000000  0.5083330000000 1.0
C      1  0.5199320000000  0.5154070000000  0.5528190000000 1.0
C      1  0.5292030000000  0.4946400000000  0.5030110000000 1.0
C      1  0.4597870000000  0.5515320000000  0.5229180000000 1.0
C      1  0.4820560000000  0.4450420000000  0.4699270000000 1.0
C      1  0.4747970000000  0.5174210000000  0.5595370000000 1.0
C      1  0.5387000000000  0.5043820000000  0.4788280000000 1.0
C      1  0.5174660000000  0.4685000000000  0.4503840000000 1.0
C      1  0.4725670000000  0.4580010000000  0.5390670000000 1.0
C      1  0.4973200000000  0.4998580000000  0.5608090000000 1.0
C      1  0.5299400000000  0.4493940000000  0.4688380000000 1.0
END
