TITL C-151003-9593-4 -139.576788362934 125000 -658.031652763807 0 0 94 (C1) n - 1
REM
REM in /rds/project/t2_vol4/rds-t2-cs072/BORA/CARBON/from-Arr/AIRSS/Generating-Clusters/GAP-ML-2020/Only-C1/SD-CG/HFTN-CG
REM
REM
REM
REM
REM
REM ./C.cell (11c1c37f851c82e70ff6c80c92926a4b)
REM AIRSS Version 0.9.1 bugfix July 2018 build 013d7b7c2542+ Fri, 06 Jul 2018 19:26:36 +0100
REM compiler GCC version 9.3.0
REM options -cpp -mtune=generic -march=x86-64 -g -O0
REM seed 907439423 1959232955 368275261 -307995949 -576791720 -1660031864 -1220999917 -127054355 -594370893 -248670038 1906319544 792569279 1306791945 -87609887 -782630082 388209212 1627741819 -1691564054 -1549374562 -1536812885 -1915590326 -1973859821 -1700950347 81706218 806701286 5232598 1137404646 70145326 622868703 -354088494 2102514713 -615028397 -1806948021
REM
CELL 1.54180   50.00000   50.00000   50.00000   90.00000   90.00000   90.00000
LATT -1
SFAC C  
C      1  0.5798880000000  0.5233110000000  0.5160780000000 1.0
C      1  0.5675970000000  0.4717290000000  0.4641890000000 1.0
C      1  0.5378120000000  0.5496580000000  0.4537720000000 1.0
C      1  0.5094250000000  0.5201530000000  0.4175610000000 1.0
C      1  0.5055670000000  0.5293250000000  0.5040960000000 1.0
C      1  0.5346530000000  0.4954330000000  0.4970970000000 1.0
C      1  0.5671450000000  0.4257320000000  0.4711260000000 1.0
C      1  0.5583120000000  0.5618680000000  0.4921030000000 1.0
C      1  0.4384350000000  0.4580320000000  0.5056490000000 1.0
C      1  0.4064820000000  0.5400650000000  0.5020990000000 1.0
C      1  0.5184430000000  0.4048730000000  0.4844640000000 1.0
C      1  0.5533070000000  0.5305480000000  0.5552790000000 1.0
C      1  0.5311800000000  0.5723090000000  0.5389450000000 1.0
C      1  0.5711240000000  0.5120850000000  0.5415600000000 1.0
C      1  0.4972810000000  0.5280480000000  0.5301330000000 1.0
C      1  0.4501400000000  0.4914810000000  0.4393830000000 1.0
C      1  0.4839870000000  0.4165240000000  0.4617800000000 1.0
C      1  0.5316520000000  0.5243330000000  0.5735850000000 1.0
C      1  0.5686390000000  0.5497560000000  0.5154020000000 1.0
C      1  0.5206920000000  0.5692410000000  0.4660030000000 1.0
C      1  0.5332300000000  0.4987320000000  0.4470850000000 1.0
C      1  0.4961970000000  0.4052050000000  0.5048020000000 1.0
C      1  0.5552710000000  0.4455010000000  0.4569890000000 1.0
C      1  0.4809520000000  0.5201850000000  0.4196180000000 1.0
C      1  0.5127600000000  0.4211450000000  0.5224780000000 1.0
C      1  0.4444660000000  0.5179410000000  0.4470560000000 1.0
C      1  0.5139490000000  0.5462160000000  0.5771810000000 1.0
C      1  0.5576440000000  0.4342000000000  0.4961600000000 1.0
C      1  0.4166870000000  0.4994770000000  0.4841220000000 1.0
C      1  0.4942040000000  0.5617780000000  0.4590090000000 1.0
C      1  0.5294730000000  0.4289210000000  0.4983190000000 1.0
C      1  0.5144660000000  0.5006320000000  0.5789520000000 1.0
C      1  0.5207180000000  0.4829420000000  0.4740540000000 1.0
C      1  0.5255690000000  0.4819680000000  0.5201250000000 1.0
C      1  0.5669220000000  0.4573970000000  0.5101840000000 1.0
C      1  0.4937440000000  0.5313400000000  0.4569500000000 1.0
C      1  0.5614960000000  0.5448020000000  0.4688850000000 1.0
C      1  0.4656990000000  0.5357200000000  0.4401890000000 1.0
C      1  0.5684110000000  0.4858510000000  0.5453170000000 1.0
C      1  0.4269900000000  0.5479260000000  0.4822380000000 1.0
C      1  0.4430290000000  0.4704330000000  0.4574390000000 1.0
C      1  0.5116280000000  0.4122040000000  0.4588000000000 1.0
C      1  0.4735760000000  0.4922830000000  0.4223990000000 1.0
C      1  0.4287140000000  0.4731180000000  0.4824280000000 1.0
C      1  0.5621800000000  0.4973590000000  0.4527390000000 1.0
C      1  0.4864270000000  0.5806100000000  0.5236200000000 1.0
C      1  0.4399830000000  0.5180700000000  0.5405790000000 1.0
C      1  0.4705610000000  0.5548160000000  0.5661520000000 1.0
C      1  0.4435290000000  0.4655240000000  0.5344610000000 1.0
C      1  0.5217260000000  0.5274100000000  0.4440170000000 1.0
C      1  0.4830900000000  0.4428590000000  0.5541180000000 1.0
C      1  0.5529260000000  0.5540640000000  0.5388020000000 1.0
C      1  0.4613600000000  0.4429220000000  0.5358400000000 1.0
C      1  0.4658650000000  0.5626760000000  0.4587820000000 1.0
C      1  0.4853110000000  0.5036280000000  0.5295870000000 1.0
C      1  0.4601650000000  0.5187760000000  0.4928790000000 1.0
C      1  0.4976420000000  0.4823950000000  0.5162260000000 1.0
C      1  0.4978930000000  0.4745650000000  0.4205320000000 1.0
C      1  0.4676570000000  0.4878870000000  0.5717150000000 1.0
C      1  0.4236850000000  0.5395620000000  0.5228620000000 1.0
C      1  0.5135280000000  0.5689020000000  0.5605240000000 1.0
C      1  0.4869990000000  0.5741630000000  0.5517500000000 1.0
C      1  0.5238810000000  0.4391760000000  0.4499750000000 1.0
C      1  0.5160660000000  0.5809890000000  0.5154460000000 1.0
C      1  0.4641720000000  0.4526120000000  0.4582650000000 1.0
C      1  0.4926960000000  0.4872010000000  0.4855160000000 1.0
C      1  0.4570620000000  0.4351000000000  0.5077090000000 1.0
C      1  0.4739170000000  0.4164960000000  0.4909630000000 1.0
C      1  0.4850030000000  0.4595170000000  0.4799430000000 1.0
C      1  0.5291700000000  0.4547680000000  0.5548890000000 1.0
C      1  0.5149530000000  0.4519650000000  0.4761710000000 1.0
C      1  0.3966000000000  0.5130020000000  0.4959460000000 1.0
C      1  0.5732350000000  0.5184890000000  0.4687860000000 1.0
C      1  0.5024010000000  0.4484040000000  0.4303030000000 1.0
C      1  0.5098000000000  0.4353630000000  0.5461350000000 1.0
C      1  0.4425600000000  0.5597180000000  0.5295560000000 1.0
C      1  0.4492720000000  0.5440640000000  0.5529640000000 1.0
C      1  0.5189550000000  0.4936120000000  0.4209470000000 1.0
C      1  0.5321210000000  0.5765470000000  0.4916240000000 1.0
C      1  0.4856750000000  0.4656180000000  0.5707140000000 1.0
C      1  0.4870370000000  0.5370920000000  0.5808950000000 1.0
C      1  0.5777230000000  0.4767670000000  0.4916430000000 1.0
C      1  0.4785260000000  0.4355150000000  0.4417450000000 1.0
C      1  0.5311520000000  0.5218820000000  0.4994480000000 1.0
C      1  0.4604490000000  0.5730100000000  0.5107030000000 1.0
C      1  0.5825770000000  0.5065060000000  0.4932830000000 1.0
C      1  0.4448090000000  0.4888580000000  0.5525940000000 1.0
C      1  0.5141910000000  0.4728990000000  0.5718700000000 1.0
C      1  0.4584370000000  0.5097120000000  0.5190930000000 1.0
C      1  0.4863110000000  0.5087790000000  0.5813640000000 1.0
C      1  0.5508490000000  0.4664770000000  0.5354030000000 1.0
C      1  0.4864910000000  0.5165700000000  0.4829460000000 1.0
C      1  0.4355550000000  0.5209340000000  0.4739560000000 1.0
C      1  0.4502670000000  0.5657510000000  0.4829370000000 1.0
END
