TITL C-154617-5804-6 -0.0686064220795416 125000 -527.37806552803 0 0 75 (C1) n - 1
REM
REM in /rds/project/t2_vol4/rds-t2-cs072/BORA/CARBON/from-Arr/AIRSS/Generating-Clusters/GAP-ML-2020/Only-C1/SD-CG/HFTN-CG
REM
REM
REM
REM
REM
REM ./C.cell (11c1c37f851c82e70ff6c80c92926a4b)
REM AIRSS Version 0.9.1 bugfix July 2018 build 013d7b7c2542+ Fri, 06 Jul 2018 19:26:36 +0100
REM compiler GCC version 9.3.0
REM options -cpp -mtune=generic -march=x86-64 -g -O0
REM seed -1640513435 -926943627 1198028129 -2089197221 2109761165 2029252146 819953766 1221587099 1386520195 1593931447 -487368229 624073787 492641617 -1540880213 -362931332 1362493146 729773835 -250513059 -990626801 -1724798964 1542387895 1024879847 1662881714 -26528660 -192038656 148877125 1708459781 -1164814607 -2061384694 -673853163 525034972 -1121143034 -1935755975
REM
CELL 1.54180   50.00000   50.00000   50.00000   90.00000   90.00000   90.00000
LATT -1
SFAC C  
C      1  0.4470470000000  0.4765140000000  0.5416190000000 1.0
C      1  0.4910740000000  0.5636430000000  0.4655960000000 1.0
C      1  0.4956100000000  0.5200490000000  0.5768980000000 1.0
C      1  0.4774460000000  0.4985480000000  0.5720330000000 1.0
C      1  0.4735270000000  0.5735000000000  0.5422860000000 1.0
C      1  0.4657590000000  0.4943080000000  0.4955640000000 1.0
C      1  0.5574800000000  0.5255770000000  0.5407700000000 1.0
C      1  0.4791240000000  0.4767590000000  0.4556670000000 1.0
C      1  0.5146340000000  0.5709050000000  0.4814330000000 1.0
C      1  0.5413420000000  0.4676970000000  0.5599620000000 1.0
C      1  0.5379240000000  0.5297860000000  0.5610660000000 1.0
C      1  0.5524290000000  0.5335160000000  0.4685370000000 1.0
C      1  0.5627860000000  0.5298850000000  0.4950270000000 1.0
C      1  0.4618860000000  0.4406270000000  0.4820450000000 1.0
C      1  0.5431400000000  0.4464170000000  0.4747290000000 1.0
C      1  0.5047290000000  0.4922880000000  0.5206100000000 1.0
C      1  0.5005610000000  0.4711360000000  0.4777800000000 1.0
C      1  0.4263250000000  0.4931660000000  0.4454180000000 1.0
C      1  0.5051120000000  0.5281220000000  0.4287240000000 1.0
C      1  0.4466020000000  0.4452740000000  0.5059890000000 1.0
C      1  0.4536640000000  0.5264670000000  0.4347150000000 1.0
C      1  0.4560880000000  0.4598970000000  0.4628940000000 1.0
C      1  0.5626070000000  0.4762340000000  0.5415270000000 1.0
C      1  0.4979350000000  0.5306870000000  0.5011900000000 1.0
C      1  0.5228890000000  0.5109420000000  0.5760600000000 1.0
C      1  0.4939300000000  0.5452470000000  0.5653560000000 1.0
C      1  0.4302210000000  0.5111980000000  0.4273320000000 1.0
C      1  0.4858170000000  0.4762160000000  0.5044070000000 1.0
C      1  0.4742920000000  0.5058550000000  0.4702750000000 1.0
C      1  0.4679450000000  0.5495840000000  0.5537900000000 1.0
C      1  0.4547490000000  0.5296980000000  0.4670330000000 1.0
C      1  0.4899070000000  0.4305050000000  0.4887180000000 1.0
C      1  0.4356130000000  0.4910180000000  0.4933440000000 1.0
C      1  0.4892870000000  0.4282750000000  0.5179070000000 1.0
C      1  0.5594960000000  0.4571300000000  0.4957640000000 1.0
C      1  0.5184360000000  0.4940920000000  0.4794280000000 1.0
C      1  0.5337540000000  0.4458170000000  0.5420360000000 1.0
C      1  0.5508260000000  0.5113380000000  0.4491470000000 1.0
C      1  0.5004600000000  0.5170580000000  0.4755080000000 1.0
C      1  0.4618100000000  0.4524430000000  0.5483670000000 1.0
C      1  0.4333410000000  0.4782600000000  0.4667310000000 1.0
C      1  0.5279260000000  0.5086690000000  0.4292150000000 1.0
C      1  0.5324660000000  0.4584680000000  0.4315440000000 1.0
C      1  0.4518410000000  0.5290430000000  0.5412000000000 1.0
C      1  0.4946420000000  0.4749060000000  0.5728740000000 1.0
C      1  0.4881100000000  0.4515780000000  0.5590790000000 1.0
C      1  0.5317520000000  0.5525660000000  0.4664350000000 1.0
C      1  0.4626040000000  0.4346840000000  0.5261560000000 1.0
C      1  0.4551260000000  0.5020050000000  0.5529600000000 1.0
C      1  0.4604280000000  0.5607210000000  0.5023910000000 1.0
C      1  0.5508260000000  0.4617570000000  0.4518410000000 1.0
C      1  0.4952940000000  0.5179640000000  0.5239700000000 1.0
C      1  0.4827090000000  0.5737500000000  0.5173510000000 1.0
C      1  0.5122020000000  0.4418390000000  0.4714360000000 1.0
C      1  0.5523220000000  0.5435240000000  0.5192920000000 1.0
C      1  0.5628810000000  0.4868390000000  0.4588530000000 1.0
C      1  0.4780590000000  0.5280010000000  0.4213260000000 1.0
C      1  0.4370510000000  0.5220020000000  0.4915340000000 1.0
C      1  0.5283750000000  0.4944150000000  0.5057390000000 1.0
C      1  0.5114190000000  0.5742600000000  0.5092780000000 1.0
C      1  0.5699150000000  0.5014300000000  0.5316220000000 1.0
C      1  0.5298700000000  0.5608940000000  0.5273430000000 1.0
C      1  0.5204960000000  0.5511410000000  0.5530180000000 1.0
C      1  0.4661590000000  0.5557700000000  0.4755130000000 1.0
C      1  0.5223960000000  0.4826190000000  0.5742120000000 1.0
C      1  0.5090630000000  0.4452850000000  0.4414420000000 1.0
C      1  0.5559920000000  0.4542090000000  0.5236810000000 1.0
C      1  0.5062990000000  0.4372340000000  0.5405640000000 1.0
C      1  0.4941190000000  0.4682880000000  0.4314080000000 1.0
C      1  0.5191200000000  0.4824980000000  0.4234900000000 1.0
C      1  0.4451320000000  0.5381110000000  0.5133980000000 1.0
C      1  0.5739840000000  0.5045870000000  0.5033030000000 1.0
C      1  0.5708350000000  0.4826850000000  0.4860490000000 1.0
C      1  0.4360700000000  0.4710990000000  0.5150380000000 1.0
C      1  0.5069130000000  0.5414800000000  0.4541620000000 1.0
END
