TITL C-150995-9106-5 0.216179611914695 125000 -910.600707485771 0 0 129 (C1) n - 1
REM
REM in /rds/project/t2_vol4/rds-t2-cs072/BORA/CARBON/from-Arr/AIRSS/Generating-Clusters/GAP-ML-2020/Only-C1/SD-CG/HFTN-CG
REM
REM
REM
REM
REM
REM ./C.cell (11c1c37f851c82e70ff6c80c92926a4b)
REM AIRSS Version 0.9.1 bugfix July 2018 build 013d7b7c2542+ Fri, 06 Jul 2018 19:26:36 +0100
REM compiler GCC version 9.3.0
REM options -cpp -mtune=generic -march=x86-64 -g -O0
REM seed 1064144775 1411457197 90714135 -44933433 97859645 1517792057 -1539304926 1235620019 1620893516 519719273 1840321226 -728043945 573946343 154258215 -501572246 1511937565 471775876 -338207298 893176951 548117374 -575367737 -1713103810 -70648887 1179209408 230999766 933926669 -300541445 -706567504 1634817806 -997900449 -32065657 -1642069758 1401291455
REM
CELL 1.54180   50.00000   50.00000   50.00000   90.00000   90.00000   90.00000
LATT -1
SFAC C  
C      1  0.4759770000000  0.5831870000000  0.5362510000000 1.0
C      1  0.5069740000000  0.5416000000000  0.5419100000000 1.0
C      1  0.5183830000000  0.5312510000000  0.5860890000000 1.0
C      1  0.4659440000000  0.5787140000000  0.5096900000000 1.0
C      1  0.4279600000000  0.4630300000000  0.4531700000000 1.0
C      1  0.4454430000000  0.4885790000000  0.4177780000000 1.0
C      1  0.4951860000000  0.4466210000000  0.4994730000000 1.0
C      1  0.5299170000000  0.5243820000000  0.4744430000000 1.0
C      1  0.5388550000000  0.4261100000000  0.4436920000000 1.0
C      1  0.5216040000000  0.4858710000000  0.4057770000000 1.0
C      1  0.4366350000000  0.5578100000000  0.5392240000000 1.0
C      1  0.5715070000000  0.4411760000000  0.5036970000000 1.0
C      1  0.5308750000000  0.5055530000000  0.5277940000000 1.0
C      1  0.5390060000000  0.4473280000000  0.5570160000000 1.0
C      1  0.4363420000000  0.4695870000000  0.5483560000000 1.0
C      1  0.4767400000000  0.5429470000000  0.4807540000000 1.0
C      1  0.4453250000000  0.4612800000000  0.4285770000000 1.0
C      1  0.5801860000000  0.5300110000000  0.5445750000000 1.0
C      1  0.5167740000000  0.6027650000000  0.5217950000000 1.0
C      1  0.5496340000000  0.4976680000000  0.5809720000000 1.0
C      1  0.4763900000000  0.5062040000000  0.5928030000000 1.0
C      1  0.5034930000000  0.5907190000000  0.5418670000000 1.0
C      1  0.4445910000000  0.4389120000000  0.4961940000000 1.0
C      1  0.4401180000000  0.5702500000000  0.4613820000000 1.0
C      1  0.5289690000000  0.4358950000000  0.5310120000000 1.0
C      1  0.4929150000000  0.4864670000000  0.4109920000000 1.0
C      1  0.5024020000000  0.4149920000000  0.5009390000000 1.0
C      1  0.4978010000000  0.4098920000000  0.4546680000000 1.0
C      1  0.5801060000000  0.5470380000000  0.5200260000000 1.0
C      1  0.4435500000000  0.4627910000000  0.4780630000000 1.0
C      1  0.4956060000000  0.4439950000000  0.5823580000000 1.0
C      1  0.4176900000000  0.5315430000000  0.4733720000000 1.0
C      1  0.5555490000000  0.5828650000000  0.5032640000000 1.0
C      1  0.4766850000000  0.5291400000000  0.4180560000000 1.0
C      1  0.5387080000000  0.5076810000000  0.4105660000000 1.0
C      1  0.5166140000000  0.4612430000000  0.5133000000000 1.0
C      1  0.4679660000000  0.5129380000000  0.5326030000000 1.0
C      1  0.5843240000000  0.5235160000000  0.4703570000000 1.0
C      1  0.5828770000000  0.4966430000000  0.5084680000000 1.0
C      1  0.4366600000000  0.5193370000000  0.5704160000000 1.0
C      1  0.5023570000000  0.4935480000000  0.4364670000000 1.0
C      1  0.4611590000000  0.5293420000000  0.5834660000000 1.0
C      1  0.4823670000000  0.4075870000000  0.4788540000000 1.0
C      1  0.5742410000000  0.4859860000000  0.4431510000000 1.0
C      1  0.4602480000000  0.4827620000000  0.5869610000000 1.0
C      1  0.5458220000000  0.5261980000000  0.5802780000000 1.0
C      1  0.4705650000000  0.4707760000000  0.4665970000000 1.0
C      1  0.5660990000000  0.5684220000000  0.4810600000000 1.0
C      1  0.5042050000000  0.5516650000000  0.5707660000000 1.0
C      1  0.4813900000000  0.5736570000000  0.4844090000000 1.0
C      1  0.4246510000000  0.5036900000000  0.4344970000000 1.0
C      1  0.5582690000000  0.4646610000000  0.4321380000000 1.0
C      1  0.5282060000000  0.5335610000000  0.5243240000000 1.0
C      1  0.4451430000000  0.5091370000000  0.5156100000000 1.0
C      1  0.4927440000000  0.5303470000000  0.5005740000000 1.0
C      1  0.4152480000000  0.4677080000000  0.5245810000000 1.0
C      1  0.4636980000000  0.4371080000000  0.4299010000000 1.0
C      1  0.4945010000000  0.4580730000000  0.4714900000000 1.0
C      1  0.4839170000000  0.5346700000000  0.5276120000000 1.0
C      1  0.5201620000000  0.5415570000000  0.4962610000000 1.0
C      1  0.5637260000000  0.5698360000000  0.5268470000000 1.0
C      1  0.4620720000000  0.4688270000000  0.5314120000000 1.0
C      1  0.5520310000000  0.4938450000000  0.5126110000000 1.0
C      1  0.5861020000000  0.5013690000000  0.5490680000000 1.0
C      1  0.5052940000000  0.5065100000000  0.5922560000000 1.0
C      1  0.5603230000000  0.5424020000000  0.5622970000000 1.0
C      1  0.5755200000000  0.4503610000000  0.4753290000000 1.0
C      1  0.4957220000000  0.5015650000000  0.4952130000000 1.0
C      1  0.5821270000000  0.5456780000000  0.4900010000000 1.0
C      1  0.4517430000000  0.4234050000000  0.4503790000000 1.0
C      1  0.4626890000000  0.5538750000000  0.4234330000000 1.0
C      1  0.5070900000000  0.4153530000000  0.5297670000000 1.0
C      1  0.5854400000000  0.4761160000000  0.4673150000000 1.0
C      1  0.4708850000000  0.4980420000000  0.4762020000000 1.0
C      1  0.4381860000000  0.4904000000000  0.5705190000000 1.0
C      1  0.4788490000000  0.5752950000000  0.4357830000000 1.0
C      1  0.5296280000000  0.4128080000000  0.4905390000000 1.0
C      1  0.4377050000000  0.5541570000000  0.4379400000000 1.0
C      1  0.4512180000000  0.4459410000000  0.5610510000000 1.0
C      1  0.4595790000000  0.5682920000000  0.5541570000000 1.0
C      1  0.4669780000000  0.4442230000000  0.5165600000000 1.0
C      1  0.4763920000000  0.5229750000000  0.4613120000000 1.0
C      1  0.4735990000000  0.5531590000000  0.5743140000000 1.0
C      1  0.5251600000000  0.5360010000000  0.4473050000000 1.0
C      1  0.4063510000000  0.4939490000000  0.5119990000000 1.0
C      1  0.4232000000000  0.5305010000000  0.4452840000000 1.0
C      1  0.4151400000000  0.5026930000000  0.4823510000000 1.0
C      1  0.4193490000000  0.5144250000000  0.5270310000000 1.0
C      1  0.5711580000000  0.5147420000000  0.4452810000000 1.0
C      1  0.5918020000000  0.4990410000000  0.4825340000000 1.0
C      1  0.5604620000000  0.4434260000000  0.4509980000000 1.0
C      1  0.5060780000000  0.4876680000000  0.5235210000000 1.0
C      1  0.5126220000000  0.4771200000000  0.4589340000000 1.0
C      1  0.5210090000000  0.4578210000000  0.5777670000000 1.0
C      1  0.5204500000000  0.5729850000000  0.5577380000000 1.0
C      1  0.5475210000000  0.5236130000000  0.4304900000000 1.0
C      1  0.5489560000000  0.5666660000000  0.5519070000000 1.0
C      1  0.4197660000000  0.4451890000000  0.5108330000000 1.0
C      1  0.4642270000000  0.4284220000000  0.5421950000000 1.0
C      1  0.5248610000000  0.4849700000000  0.5869480000000 1.0
C      1  0.4656840000000  0.5824160000000  0.4607820000000 1.0
C      1  0.5937620000000  0.4819640000000  0.5287440000000 1.0
C      1  0.5285710000000  0.5921740000000  0.5002240000000 1.0
C      1  0.4437150000000  0.4940620000000  0.4906730000000 1.0
C      1  0.4406900000000  0.5652180000000  0.5108390000000 1.0
C      1  0.5203320000000  0.4377360000000  0.4244940000000 1.0
C      1  0.4292090000000  0.5569660000000  0.4845870000000 1.0
C      1  0.5341490000000  0.4613190000000  0.4152710000000 1.0
C      1  0.4244390000000  0.5334050000000  0.5483640000000 1.0
C      1  0.5257050000000  0.4102020000000  0.4624080000000 1.0
C      1  0.4874570000000  0.4138100000000  0.5500470000000 1.0
C      1  0.4976910000000  0.5227260000000  0.4392880000000 1.0
C      1  0.5638240000000  0.4597920000000  0.5523570000000 1.0
C      1  0.4816190000000  0.4890740000000  0.5371280000000 1.0
C      1  0.4555410000000  0.4179900000000  0.4766510000000 1.0
C      1  0.5243710000000  0.5674190000000  0.4537990000000 1.0
C      1  0.5215090000000  0.4957620000000  0.4786180000000 1.0
C      1  0.5532830000000  0.5699310000000  0.4572780000000 1.0
C      1  0.4949960000000  0.4167570000000  0.5765310000000 1.0
C      1  0.4927300000000  0.4280640000000  0.4314970000000 1.0
C      1  0.5371470000000  0.4773230000000  0.4955560000000 1.0
C      1  0.5052870000000  0.5781750000000  0.4349810000000 1.0
C      1  0.4690310000000  0.5026560000000  0.4088960000000 1.0
C      1  0.4676550000000  0.4557080000000  0.5820030000000 1.0
C      1  0.4142990000000  0.4879380000000  0.4552670000000 1.0
C      1  0.5477290000000  0.4256670000000  0.5085090000000 1.0
C      1  0.5791580000000  0.4564480000000  0.5282160000000 1.0
C      1  0.5691490000000  0.4855090000000  0.5650000000000 1.0
C      1  0.5129810000000  0.5721430000000  0.4838350000000 1.0
END
