TITL C-151854-9474-8 -4.00230909143927 125000 -264.847929871775 0 0 40 (C1) n - 1
REM
REM in /rds/project/t2_vol4/rds-t2-cs072/BORA/CARBON/from-Arr/AIRSS/Generating-Clusters/GAP-ML-2020/Only-C1/SD-CG/HFTN-CG
REM
REM
REM
REM
REM
REM ./C.cell (11c1c37f851c82e70ff6c80c92926a4b)
REM AIRSS Version 0.9.1 bugfix July 2018 build 013d7b7c2542+ Fri, 06 Jul 2018 19:26:36 +0100
REM compiler GCC version 9.3.0
REM options -cpp -mtune=generic -march=x86-64 -g -O0
REM seed -1133330718 -434195013 475436634 482395066 1167088482 472173761 -241859756 270520508 1621377515 1893570896 63070716 -902571048 -2090672116 1967689980 1601705873 580463194 -546183458 2138637216 923359527 1527070045 -1408829021 1684736234 -1552782629 -2013944958 -500389061 148852775 247907029 1761177788 -536065854 -558108911 1378677114 1536066944 -748941281
REM
CELL 1.54180   50.00000   50.00000   50.00000   90.00000   90.00000   90.00000
LATT -1
SFAC C  
C      1  0.5459140000000  0.4894020000000  0.5330810000000 1.0
C      1  0.5416600000000  0.5095170000000  0.4663720000000 1.0
C      1  0.5312360000000  0.4636250000000  0.4879180000000 1.0
C      1  0.4735210000000  0.5149200000000  0.4444250000000 1.0
C      1  0.4485590000000  0.4922110000000  0.5341460000000 1.0
C      1  0.4693560000000  0.5601720000000  0.5369940000000 1.0
C      1  0.5094280000000  0.4537490000000  0.4719480000000 1.0
C      1  0.5188130000000  0.5605080000000  0.5234790000000 1.0
C      1  0.4587350000000  0.4448680000000  0.5173780000000 1.0
C      1  0.4944910000000  0.5646240000000  0.5343280000000 1.0
C      1  0.4642500000000  0.5351330000000  0.5271010000000 1.0
C      1  0.4719690000000  0.4854630000000  0.5489690000000 1.0
C      1  0.4633740000000  0.4193520000000  0.5084460000000 1.0
C      1  0.4983350000000  0.4296820000000  0.4778960000000 1.0
C      1  0.4816630000000  0.4130200000000  0.4896400000000 1.0
C      1  0.4459400000000  0.5142490000000  0.5168250000000 1.0
C      1  0.5254840000000  0.4604110000000  0.5161430000000 1.0
C      1  0.5444100000000  0.4628610000000  0.5360440000000 1.0
C      1  0.4849730000000  0.5180380000000  0.5137530000000 1.0
C      1  0.4704580000000  0.4806710000000  0.4843360000000 1.0
C      1  0.5582510000000  0.4993000000000  0.5083050000000 1.0
C      1  0.4959800000000  0.4966660000000  0.4472910000000 1.0
C      1  0.5236270000000  0.5076450000000  0.5384000000000 1.0
C      1  0.5117630000000  0.5589330000000  0.4946930000000 1.0
C      1  0.5485450000000  0.5344190000000  0.4787910000000 1.0
C      1  0.4823340000000  0.5412230000000  0.4524120000000 1.0
C      1  0.4528030000000  0.4654640000000  0.5375010000000 1.0
C      1  0.5278680000000  0.5535960000000  0.4720470000000 1.0
C      1  0.5536520000000  0.5274600000000  0.5065160000000 1.0
C      1  0.4644260000000  0.5079840000000  0.4922440000000 1.0
C      1  0.5292680000000  0.5317990000000  0.5227980000000 1.0
C      1  0.5110200000000  0.5414780000000  0.4515170000000 1.0
C      1  0.4992110000000  0.4695640000000  0.5220080000000 1.0
C      1  0.5472760000000  0.4871880000000  0.4839230000000 1.0
C      1  0.4957710000000  0.4964210000000  0.5327460000000 1.0
C      1  0.4760590000000  0.4639790000000  0.5064000000000 1.0
C      1  0.5073410000000  0.5305070000000  0.5012020000000 1.0
C      1  0.4631010000000  0.5251570000000  0.4677120000000 1.0
C      1  0.5189200000000  0.5134960000000  0.4495710000000 1.0
C      1  0.4902180000000  0.4752420000000  0.4647030000000 1.0
END
