TITL C-151858-9700-8 40.0735738752821 125000 -689.444077072428 0 0 98 (C1) n - 1
REM
REM in /rds/project/t2_vol4/rds-t2-cs072/BORA/CARBON/from-Arr/AIRSS/Generating-Clusters/GAP-ML-2020/Only-C1/SD-CG/HFTN-CG
REM
REM
REM
REM
REM
REM ./C.cell (11c1c37f851c82e70ff6c80c92926a4b)
REM AIRSS Version 0.9.1 bugfix July 2018 build 013d7b7c2542+ Fri, 06 Jul 2018 19:26:36 +0100
REM compiler GCC version 9.3.0
REM options -cpp -mtune=generic -march=x86-64 -g -O0
REM seed 511844863 -1689901577 881689368 1845226320 403895838 -1808978393 -1544989163 -282073945 -1088158186 -965901552 428738426 621574480 335628136 -1393315056 -263113295 -213457870 -420624943 2112524887 -447239968 1641348606 -2003981059 -1456616027 -1949243831 1785949515 -562398676 229029637 247092027 1093214994 1232925845 76886394 -2141143499 1725760813 -319370561
REM
CELL 1.54180   50.00000   50.00000   50.00000   90.00000   90.00000   90.00000
LATT -1
SFAC C  
C      1  0.5411760000000  0.4604590000000  0.4268190000000 1.0
C      1  0.4516030000000  0.5355590000000  0.5701600000000 1.0
C      1  0.5362040000000  0.5204780000000  0.5736290000000 1.0
C      1  0.4670890000000  0.5687480000000  0.5373340000000 1.0
C      1  0.4478680000000  0.5529200000000  0.4726980000000 1.0
C      1  0.4647180000000  0.4648660000000  0.5335240000000 1.0
C      1  0.5882330000000  0.4615240000000  0.4862100000000 1.0
C      1  0.4731700000000  0.5504920000000  0.5796650000000 1.0
C      1  0.4176990000000  0.5114520000000  0.5367070000000 1.0
C      1  0.5606090000000  0.5464540000000  0.5093230000000 1.0
C      1  0.4249680000000  0.4655400000000  0.4779960000000 1.0
C      1  0.5817150000000  0.5048340000000  0.5206810000000 1.0
C      1  0.4855600000000  0.5657570000000  0.4602570000000 1.0
C      1  0.5564000000000  0.4990060000000  0.5661180000000 1.0
C      1  0.5839190000000  0.4879620000000  0.4777690000000 1.0
C      1  0.4584140000000  0.5019440000000  0.4257570000000 1.0
C      1  0.5288230000000  0.5069190000000  0.4090360000000 1.0
C      1  0.5127970000000  0.5621110000000  0.4523220000000 1.0
C      1  0.4444090000000  0.4456800000000  0.4901070000000 1.0
C      1  0.5015220000000  0.5310450000000  0.5338960000000 1.0
C      1  0.5590090000000  0.5448990000000  0.4624390000000 1.0
C      1  0.5569700000000  0.4745000000000  0.5525470000000 1.0
C      1  0.5477390000000  0.4873560000000  0.4172210000000 1.0
C      1  0.4296040000000  0.4303300000000  0.5122570000000 1.0
C      1  0.5150550000000  0.5395870000000  0.5636060000000 1.0
C      1  0.4865840000000  0.4303570000000  0.5132420000000 1.0
C      1  0.4733540000000  0.4909550000000  0.5833330000000 1.0
C      1  0.5691270000000  0.5285330000000  0.5310810000000 1.0
C      1  0.5324190000000  0.4326760000000  0.5115440000000 1.0
C      1  0.5158880000000  0.4700320000000  0.5765760000000 1.0
C      1  0.4821980000000  0.5709940000000  0.5609210000000 1.0
C      1  0.4841990000000  0.4797920000000  0.4916550000000 1.0
C      1  0.5243620000000  0.4363780000000  0.5406820000000 1.0
C      1  0.4918560000000  0.4633490000000  0.4347850000000 1.0
C      1  0.5614890000000  0.5239700000000  0.5575220000000 1.0
C      1  0.4921130000000  0.4851160000000  0.5343420000000 1.0
C      1  0.5002240000000  0.4786690000000  0.4646250000000 1.0
C      1  0.4354130000000  0.4733580000000  0.5350330000000 1.0
C      1  0.5042170000000  0.4332570000000  0.4686410000000 1.0
C      1  0.4241320000000  0.4933160000000  0.5136460000000 1.0
C      1  0.5098050000000  0.5057670000000  0.4663150000000 1.0
C      1  0.4460640000000  0.5495610000000  0.5451020000000 1.0
C      1  0.5599250000000  0.4348980000000  0.5011350000000 1.0
C      1  0.4830250000000  0.5108910000000  0.5301190000000 1.0
C      1  0.4870130000000  0.4660820000000  0.5761080000000 1.0
C      1  0.5156130000000  0.4546790000000  0.4219630000000 1.0
C      1  0.4541280000000  0.4426010000000  0.4608600000000 1.0
C      1  0.5074930000000  0.4234090000000  0.4958120000000 1.0
C      1  0.5320650000000  0.5562270000000  0.5004030000000 1.0
C      1  0.4817470000000  0.5723750000000  0.5114710000000 1.0
C      1  0.4437540000000  0.5175140000000  0.5039370000000 1.0
C      1  0.4355500000000  0.4892420000000  0.4373440000000 1.0
C      1  0.4946370000000  0.5079280000000  0.5913740000000 1.0
C      1  0.5280900000000  0.5032680000000  0.5050920000000 1.0
C      1  0.4735560000000  0.5081010000000  0.5004070000000 1.0
C      1  0.4127420000000  0.4882220000000  0.4883240000000 1.0
C      1  0.5197450000000  0.5857180000000  0.5392870000000 1.0
C      1  0.5633900000000  0.5019520000000  0.4362570000000 1.0
C      1  0.5007680000000  0.5056520000000  0.4091630000000 1.0
C      1  0.5265070000000  0.4592780000000  0.4997170000000 1.0
C      1  0.5204950000000  0.4973020000000  0.5848930000000 1.0
C      1  0.4810150000000  0.4406540000000  0.4528300000000 1.0
C      1  0.4964140000000  0.4332800000000  0.5402430000000 1.0
C      1  0.5352390000000  0.5588100000000  0.4704680000000 1.0
C      1  0.4920040000000  0.5322390000000  0.4167020000000 1.0
C      1  0.5344760000000  0.4570930000000  0.5582620000000 1.0
C      1  0.4631690000000  0.5510440000000  0.4480020000000 1.0
C      1  0.5094870000000  0.4807330000000  0.5109620000000 1.0
C      1  0.5593280000000  0.4880500000000  0.4618440000000 1.0
C      1  0.5734230000000  0.5363330000000  0.4862280000000 1.0
C      1  0.4686450000000  0.4536530000000  0.5060170000000 1.0
C      1  0.5743430000000  0.4770340000000  0.5299780000000 1.0
C      1  0.5135630000000  0.5477940000000  0.4271730000000 1.0
C      1  0.4705190000000  0.5684080000000  0.4855150000000 1.0
C      1  0.4237460000000  0.4439400000000  0.5332200000000 1.0
C      1  0.5217140000000  0.4569130000000  0.4707210000000 1.0
C      1  0.4129750000000  0.5049240000000  0.4440600000000 1.0
C      1  0.4500190000000  0.5054910000000  0.5733360000000 1.0
C      1  0.4362560000000  0.4639860000000  0.4521970000000 1.0
C      1  0.4950790000000  0.5351090000000  0.5851730000000 1.0
C      1  0.4138540000000  0.5118370000000  0.4703030000000 1.0
C      1  0.5106730000000  0.5700580000000  0.5596120000000 1.0
C      1  0.5125530000000  0.5757740000000  0.5150360000000 1.0
C      1  0.5365600000000  0.5329980000000  0.4204820000000 1.0
C      1  0.4660860000000  0.5306820000000  0.4280420000000 1.0
C      1  0.4306790000000  0.5319580000000  0.4819440000000 1.0
C      1  0.4943030000000  0.5222950000000  0.4853540000000 1.0
C      1  0.5150770000000  0.5301690000000  0.5079810000000 1.0
C      1  0.4778550000000  0.4494440000000  0.5546700000000 1.0
C      1  0.5588210000000  0.5306010000000  0.4370000000000 1.0
C      1  0.5865590000000  0.5109010000000  0.4935000000000 1.0
C      1  0.5363850000000  0.5034740000000  0.4777270000000 1.0
C      1  0.4318740000000  0.5337600000000  0.5276260000000 1.0
C      1  0.5679920000000  0.4432060000000  0.4744670000000 1.0
C      1  0.5789860000000  0.4551990000000  0.5125450000000 1.0
C      1  0.4308510000000  0.4950140000000  0.5555520000000 1.0
C      1  0.4813040000000  0.4863140000000  0.4178410000000 1.0
C      1  0.5492130000000  0.4589900000000  0.4565980000000 1.0
END
