TITL C-152506-7433-2 284.885039291625 125000 -757.588731348198 0 0 108 (C1) n - 1
REM
REM in /rds/project/t2_vol4/rds-t2-cs072/BORA/CARBON/from-Arr/AIRSS/Generating-Clusters/GAP-ML-2020/Only-C1/SD-CG/HFTN-CG
REM
REM
REM
REM
REM
REM ./C.cell (11c1c37f851c82e70ff6c80c92926a4b)
REM AIRSS Version 0.9.1 bugfix July 2018 build 013d7b7c2542+ Fri, 06 Jul 2018 19:26:36 +0100
REM compiler GCC version 9.3.0
REM options -cpp -mtune=generic -march=x86-64 -g -O0
REM seed -1098915775 200703457 -1671397822 1190266191 -288183646 -1550392293 1952094844 124259769 -727289051 -1647610811 837029358 1343130704 -1779599082 -1498107253 -1138934564 -950084825 -1661734745 -280591466 1717729729 -2130784303 -1686752661 177911108 1993269569 -1340556154 161526212 -2102303359 -1768200432 -503559421 1186320911 1907303788 -454280582 1730058141 -857656785
REM
CELL 1.54180   50.00000   50.00000   50.00000   90.00000   90.00000   90.00000
LATT -1
SFAC C  
C      1  0.5921520000000  0.5174760000000  0.5255540000000 1.0
C      1  0.4883990000000  0.4233620000000  0.5441410000000 1.0
C      1  0.4704870000000  0.4400860000000  0.5589400000000 1.0
C      1  0.4408900000000  0.4430960000000  0.4977610000000 1.0
C      1  0.5540380000000  0.5116790000000  0.5638030000000 1.0
C      1  0.4949000000000  0.4813780000000  0.4681300000000 1.0
C      1  0.4380710000000  0.4728470000000  0.5454590000000 1.0
C      1  0.5701100000000  0.4959140000000  0.5203430000000 1.0
C      1  0.5329530000000  0.4171150000000  0.5060780000000 1.0
C      1  0.5768030000000  0.5199120000000  0.4797240000000 1.0
C      1  0.5431010000000  0.4341910000000  0.4614110000000 1.0
C      1  0.5035870000000  0.4388760000000  0.4301730000000 1.0
C      1  0.5319500000000  0.5189390000000  0.5792290000000 1.0
C      1  0.5016830000000  0.5394490000000  0.5314320000000 1.0
C      1  0.5542000000000  0.5152480000000  0.5024160000000 1.0
C      1  0.4258170000000  0.5456440000000  0.4743770000000 1.0
C      1  0.4998960000000  0.4672100000000  0.4928600000000 1.0
C      1  0.5335260000000  0.4995310000000  0.4880180000000 1.0
C      1  0.5116000000000  0.5349080000000  0.4598050000000 1.0
C      1  0.4656560000000  0.4858090000000  0.4647260000000 1.0
C      1  0.5671770000000  0.4492230000000  0.5057140000000 1.0
C      1  0.5580670000000  0.4440770000000  0.5333070000000 1.0
C      1  0.4588140000000  0.5209690000000  0.5275040000000 1.0
C      1  0.5959240000000  0.5283990000000  0.5495560000000 1.0
C      1  0.4261180000000  0.4600920000000  0.4794580000000 1.0
C      1  0.4657560000000  0.5163730000000  0.4246300000000 1.0
C      1  0.5593550000000  0.5461590000000  0.5093750000000 1.0
C      1  0.5170760000000  0.5177030000000  0.4116970000000 1.0
C      1  0.4921720000000  0.4801300000000  0.4098940000000 1.0
C      1  0.5425560000000  0.5171490000000  0.4220690000000 1.0
C      1  0.5461450000000  0.5395710000000  0.4401340000000 1.0
C      1  0.4719640000000  0.4180320000000  0.4714060000000 1.0
C      1  0.5153510000000  0.5509510000000  0.4831100000000 1.0
C      1  0.5180820000000  0.5828960000000  0.5321560000000 1.0
C      1  0.4864210000000  0.5788610000000  0.4450050000000 1.0
C      1  0.5476870000000  0.5569700000000  0.4845790000000 1.0
C      1  0.5799810000000  0.4898600000000  0.4742950000000 1.0
C      1  0.4491980000000  0.5112390000000  0.5680920000000 1.0
C      1  0.4941740000000  0.5438520000000  0.5016820000000 1.0
C      1  0.4616480000000  0.4216820000000  0.4977080000000 1.0
C      1  0.4915130000000  0.5093380000000  0.4114110000000 1.0
C      1  0.5549320000000  0.4919930000000  0.4276870000000 1.0
C      1  0.4559880000000  0.4838110000000  0.5650200000000 1.0
C      1  0.5883510000000  0.5350750000000  0.5023470000000 1.0
C      1  0.4275840000000  0.5013550000000  0.4533080000000 1.0
C      1  0.4291020000000  0.5628450000000  0.5434220000000 1.0
C      1  0.4489430000000  0.4581770000000  0.4647200000000 1.0
C      1  0.4203460000000  0.5317300000000  0.5017740000000 1.0
C      1  0.4189210000000  0.4879960000000  0.4787630000000 1.0
C      1  0.5527380000000  0.5503270000000  0.5372810000000 1.0
C      1  0.4161760000000  0.5022570000000  0.5032900000000 1.0
C      1  0.4887880000000  0.5158430000000  0.4925780000000 1.0
C      1  0.5197620000000  0.5445950000000  0.5738220000000 1.0
C      1  0.4682440000000  0.4697310000000  0.4202630000000 1.0
C      1  0.4934930000000  0.5908280000000  0.5214110000000 1.0
C      1  0.4225630000000  0.4937250000000  0.5307810000000 1.0
C      1  0.4802480000000  0.5012330000000  0.5178970000000 1.0
C      1  0.5252110000000  0.5786710000000  0.4796570000000 1.0
C      1  0.5168150000000  0.5912720000000  0.5052910000000 1.0
C      1  0.5696070000000  0.4795450000000  0.4500830000000 1.0
C      1  0.4561420000000  0.5669660000000  0.5416810000000 1.0
C      1  0.5004210000000  0.4654800000000  0.5397220000000 1.0
C      1  0.5116370000000  0.4991750000000  0.5882520000000 1.0
C      1  0.4538560000000  0.4554380000000  0.5197590000000 1.0
C      1  0.4613370000000  0.4360610000000  0.4527390000000 1.0
C      1  0.5130720000000  0.5793540000000  0.4510790000000 1.0
C      1  0.4935880000000  0.5421480000000  0.5849270000000 1.0
C      1  0.4730470000000  0.5420340000000  0.5445490000000 1.0
C      1  0.5244780000000  0.4783660000000  0.5037500000000 1.0
C      1  0.4630510000000  0.5645180000000  0.4476950000000 1.0
C      1  0.5252320000000  0.5558950000000  0.5449050000000 1.0
C      1  0.5224530000000  0.5539340000000  0.4402160000000 1.0
C      1  0.4529360000000  0.5386840000000  0.4363240000000 1.0
C      1  0.4494340000000  0.5309290000000  0.5015710000000 1.0
C      1  0.5066060000000  0.4106560000000  0.4989650000000 1.0
C      1  0.5692000000000  0.5333990000000  0.5537980000000 1.0
C      1  0.4997890000000  0.4134840000000  0.4715540000000 1.0
C      1  0.5148170000000  0.4350050000000  0.5490880000000 1.0
C      1  0.4754830000000  0.4437120000000  0.4303890000000 1.0
C      1  0.5107770000000  0.5069030000000  0.4717100000000 1.0
C      1  0.4195190000000  0.5406280000000  0.5316890000000 1.0
C      1  0.5079090000000  0.4715900000000  0.5813330000000 1.0
C      1  0.4679650000000  0.5793850000000  0.5195670000000 1.0
C      1  0.4698560000000  0.5307890000000  0.5720690000000 1.0
C      1  0.4296280000000  0.5291890000000  0.4520010000000 1.0
C      1  0.5605650000000  0.5404120000000  0.4644480000000 1.0
C      1  0.4494910000000  0.5634570000000  0.4728420000000 1.0
C      1  0.4819350000000  0.4669980000000  0.5662640000000 1.0
C      1  0.5273130000000  0.4532290000000  0.5690810000000 1.0
C      1  0.4542050000000  0.4918010000000  0.4365000000000 1.0
C      1  0.5363910000000  0.4261570000000  0.5323690000000 1.0
C      1  0.4840240000000  0.4159730000000  0.5163870000000 1.0
C      1  0.5167220000000  0.4257600000000  0.4523500000000 1.0
C      1  0.5141470000000  0.4615100000000  0.4158600000000 1.0
C      1  0.4470930000000  0.4453060000000  0.5450520000000 1.0
C      1  0.4318300000000  0.5169690000000  0.5441600000000 1.0
C      1  0.4651680000000  0.5577920000000  0.4981910000000 1.0
C      1  0.4888710000000  0.5161420000000  0.5917170000000 1.0
C      1  0.5518810000000  0.4887400000000  0.5447050000000 1.0
C      1  0.5771070000000  0.4753970000000  0.4997280000000 1.0
C      1  0.5523680000000  0.4609490000000  0.5552620000000 1.0
C      1  0.5038310000000  0.5098680000000  0.5318400000000 1.0
C      1  0.5540770000000  0.4549990000000  0.4456870000000 1.0
C      1  0.5403380000000  0.4671410000000  0.4232580000000 1.0
C      1  0.5510750000000  0.4309360000000  0.4888460000000 1.0
C      1  0.4815030000000  0.4707100000000  0.5161490000000 1.0
C      1  0.4631160000000  0.5114260000000  0.4819070000000 1.0
C      1  0.5218990000000  0.4873980000000  0.5315050000000 1.0
END
