TITL C-154603-4142-3 0.0296630367885056 125000 -213.657508172023 0 0 33 (C1) n - 1
REM
REM in /rds/project/t2_vol4/rds-t2-cs072/BORA/CARBON/from-Arr/AIRSS/Generating-Clusters/GAP-ML-2020/Only-C1/SD-CG/HFTN-CG
REM
REM
REM
REM
REM
REM ./C.cell (11c1c37f851c82e70ff6c80c92926a4b)
REM AIRSS Version 0.9.1 bugfix July 2018 build 013d7b7c2542+ Fri, 06 Jul 2018 19:26:36 +0100
REM compiler GCC version 9.3.0
REM options -cpp -mtune=generic -march=x86-64 -g -O0
REM seed -1470704581 -1850129948 1068975056 -1502855721 527620688 -461059752 842728652 298581558 1542050015 -1610563722 1683868590 1195448750 594231535 -750729377 -897980939 1189137814 -1278322590 575593867 1638103689 230144280 2004780806 318404589 -1948709827 -884735670 -1355456696 831580134 941298042 -224227003 -1164687937 152977970 -1579648043 -1349936214 1135359245
REM
CELL 1.54180   50.00000   50.00000   50.00000   90.00000   90.00000   90.00000
LATT -1
SFAC C  
C      1  0.5230060000000  0.4426470000000  0.5078900000000 1.0
C      1  0.4564190000000  0.5416220000000  0.4914050000000 1.0
C      1  0.5276800000000  0.4711750000000  0.5030820000000 1.0
C      1  0.5214530000000  0.4826540000000  0.5331150000000 1.0
C      1  0.5600650000000  0.5063060000000  0.4821510000000 1.0
C      1  0.5512610000000  0.4906850000000  0.5042930000000 1.0
C      1  0.4918430000000  0.5457420000000  0.5515520000000 1.0
C      1  0.5169050000000  0.5406310000000  0.5463290000000 1.0
C      1  0.5032790000000  0.4788520000000  0.4851470000000 1.0
C      1  0.4952450000000  0.4419130000000  0.5101540000000 1.0
C      1  0.4725180000000  0.4825880000000  0.5234950000000 1.0
C      1  0.4801300000000  0.5441820000000  0.4765970000000 1.0
C      1  0.4601760000000  0.4554250000000  0.4789620000000 1.0
C      1  0.4938650000000  0.5201910000000  0.5118990000000 1.0
C      1  0.4363010000000  0.4658210000000  0.4791890000000 1.0
C      1  0.5320150000000  0.5410060000000  0.4988470000000 1.0
C      1  0.5354770000000  0.5308780000000  0.5285320000000 1.0
C      1  0.4768070000000  0.5322840000000  0.5319680000000 1.0
C      1  0.4340660000000  0.4856310000000  0.4966090000000 1.0
C      1  0.4807700000000  0.5331670000000  0.4501890000000 1.0
C      1  0.5095150000000  0.4908480000000  0.4582070000000 1.0
C      1  0.5417940000000  0.5027400000000  0.5290180000000 1.0
C      1  0.4858420000000  0.4525180000000  0.4848380000000 1.0
C      1  0.4547440000000  0.5273530000000  0.5146520000000 1.0
C      1  0.5363740000000  0.4872870000000  0.4492600000000 1.0
C      1  0.5533230000000  0.5331240000000  0.4835950000000 1.0
C      1  0.5035470000000  0.5405770000000  0.4944330000000 1.0
C      1  0.5599770000000  0.4923220000000  0.4564700000000 1.0
C      1  0.4932800000000  0.5111770000000  0.4480980000000 1.0
C      1  0.4857190000000  0.4955570000000  0.5007750000000 1.0
C      1  0.4478760000000  0.4978930000000  0.5164400000000 1.0
C      1  0.4823090000000  0.4572730000000  0.5302160000000 1.0
C      1  0.4964200000000  0.4779340000000  0.5425940000000 1.0
END
