TITL C-158496-1783-8 8.25752593178111 125000 -836.554213999802 0 0 118 (C1) n - 1
REM
REM in /rds/project/t2_vol4/rds-t2-cs072/BORA/CARBON/from-Arr/AIRSS/Generating-Clusters/GAP-ML-2020/Only-C1/SD-CG/HFTN-CG
REM
REM
REM
REM
REM
REM ./C.cell (11c1c37f851c82e70ff6c80c92926a4b)
REM AIRSS Version 0.9.1 bugfix July 2018 build 013d7b7c2542+ Fri, 06 Jul 2018 19:26:36 +0100
REM compiler GCC version 9.3.0
REM options -cpp -mtune=generic -march=x86-64 -g -O0
REM seed 1574983137 1430274796 1048359435 1291728615 1699148344 -2071227150 848445474 1032972006 -1206000070 -10175278 -1572947179 -905698379 1590897009 -806249228 517469181 -1203136447 -247876829 764188118 -1854454853 1666188157 -1805631281 1461691754 -115302444 -1318758148 530280722 -838439511 -1136797257 -1472234854 -1200528231 -1253822524 -2002435460 1333790230 -1878222046
REM
CELL 1.54180   50.00000   50.00000   50.00000   90.00000   90.00000   90.00000
LATT -1
SFAC C  
C      1  0.5248650000000  0.4000900000000  0.4810540000000 1.0
C      1  0.5687160000000  0.5309610000000  0.4470790000000 1.0
C      1  0.4669830000000  0.5914910000000  0.5182190000000 1.0
C      1  0.4935040000000  0.4738050000000  0.5160080000000 1.0
C      1  0.4860060000000  0.4878750000000  0.4424600000000 1.0
C      1  0.4313460000000  0.4942490000000  0.5386880000000 1.0
C      1  0.5043230000000  0.4394890000000  0.4240960000000 1.0
C      1  0.4828600000000  0.5118080000000  0.5808730000000 1.0
C      1  0.5483890000000  0.5187260000000  0.5838190000000 1.0
C      1  0.4995620000000  0.4895970000000  0.5652330000000 1.0
C      1  0.4743310000000  0.5146250000000  0.5238330000000 1.0
C      1  0.5295120000000  0.4807880000000  0.4116260000000 1.0
C      1  0.5421440000000  0.4196440000000  0.4442060000000 1.0
C      1  0.4111530000000  0.4979480000000  0.4559820000000 1.0
C      1  0.5565430000000  0.5763250000000  0.5114480000000 1.0
C      1  0.5538370000000  0.4862860000000  0.4271510000000 1.0
C      1  0.4053790000000  0.4922170000000  0.4868080000000 1.0
C      1  0.5216380000000  0.5386960000000  0.5515130000000 1.0
C      1  0.5625550000000  0.4352360000000  0.4862440000000 1.0
C      1  0.5684240000000  0.4809250000000  0.4901150000000 1.0
C      1  0.5108070000000  0.3998310000000  0.5060290000000 1.0
C      1  0.5905630000000  0.5125410000000  0.5161070000000 1.0
C      1  0.5253400000000  0.5327740000000  0.5794740000000 1.0
C      1  0.5537410000000  0.5690660000000  0.5395380000000 1.0
C      1  0.4224800000000  0.4533090000000  0.4650670000000 1.0
C      1  0.4483280000000  0.4912600000000  0.4869260000000 1.0
C      1  0.4242510000000  0.4698790000000  0.4899440000000 1.0
C      1  0.4824080000000  0.3998250000000  0.4985830000000 1.0
C      1  0.5406390000000  0.4327210000000  0.5347930000000 1.0
C      1  0.4707770000000  0.5322620000000  0.4284020000000 1.0
C      1  0.5040280000000  0.4430030000000  0.5632720000000 1.0
C      1  0.5184330000000  0.4138020000000  0.5299640000000 1.0
C      1  0.5382780000000  0.5627670000000  0.4711630000000 1.0
C      1  0.4634860000000  0.4238680000000  0.4609610000000 1.0
C      1  0.4305020000000  0.5617030000000  0.5261600000000 1.0
C      1  0.5633450000000  0.4626220000000  0.4420630000000 1.0
C      1  0.5079250000000  0.5923490000000  0.4931410000000 1.0
C      1  0.4840840000000  0.5341150000000  0.5047160000000 1.0
C      1  0.5533080000000  0.5143090000000  0.4317100000000 1.0
C      1  0.5303030000000  0.4503350000000  0.5553710000000 1.0
C      1  0.5373560000000  0.4857660000000  0.4980600000000 1.0
C      1  0.5767640000000  0.4991350000000  0.5593060000000 1.0
C      1  0.5532900000000  0.4912780000000  0.5745340000000 1.0
C      1  0.5358560000000  0.5400320000000  0.4882820000000 1.0
C      1  0.4399810000000  0.5754330000000  0.4791020000000 1.0
C      1  0.4866550000000  0.4640460000000  0.5707490000000 1.0
C      1  0.4763210000000  0.5752200000000  0.4506760000000 1.0
C      1  0.4377560000000  0.4291810000000  0.4706790000000 1.0
C      1  0.4064030000000  0.5144640000000  0.5037450000000 1.0
C      1  0.5747590000000  0.4680210000000  0.5172830000000 1.0
C      1  0.4439920000000  0.5379650000000  0.5641660000000 1.0
C      1  0.4953530000000  0.4860350000000  0.4887850000000 1.0
C      1  0.5845980000000  0.5540950000000  0.4769840000000 1.0
C      1  0.4855800000000  0.5609720000000  0.5752730000000 1.0
C      1  0.5481530000000  0.4147110000000  0.4721110000000 1.0
C      1  0.4584260000000  0.4650050000000  0.5661340000000 1.0
C      1  0.5269880000000  0.4527360000000  0.4139700000000 1.0
C      1  0.4546510000000  0.5133800000000  0.5754400000000 1.0
C      1  0.4961850000000  0.4210240000000  0.5471760000000 1.0
C      1  0.5353110000000  0.5830380000000  0.4914150000000 1.0
C      1  0.5779350000000  0.5591460000000  0.5030750000000 1.0
C      1  0.4904240000000  0.5324150000000  0.4578720000000 1.0
C      1  0.4450020000000  0.5194810000000  0.4778270000000 1.0
C      1  0.5044240000000  0.5797460000000  0.5666850000000 1.0
C      1  0.4572580000000  0.4483050000000  0.5436130000000 1.0
C      1  0.5187770000000  0.5055300000000  0.4831540000000 1.0
C      1  0.4795480000000  0.4023690000000  0.4703460000000 1.0
C      1  0.5852660000000  0.5397210000000  0.5227510000000 1.0
C      1  0.4620020000000  0.4122760000000  0.5135010000000 1.0
C      1  0.5144780000000  0.4640230000000  0.4958240000000 1.0
C      1  0.4437040000000  0.4895550000000  0.5642670000000 1.0
C      1  0.4409380000000  0.4261310000000  0.4993660000000 1.0
C      1  0.4607830000000  0.5909880000000  0.4905480000000 1.0
C      1  0.5857870000000  0.5056160000000  0.4892890000000 1.0
C      1  0.5052240000000  0.4005790000000  0.4597320000000 1.0
C      1  0.4487370000000  0.5664390000000  0.4529070000000 1.0
C      1  0.4873690000000  0.4583790000000  0.4367100000000 1.0
C      1  0.5867050000000  0.5259650000000  0.4697580000000 1.0
C      1  0.5712720000000  0.5267460000000  0.5660900000000 1.0
C      1  0.4601280000000  0.5613340000000  0.5620970000000 1.0
C      1  0.5275920000000  0.5673900000000  0.5499630000000 1.0
C      1  0.5073870000000  0.4453230000000  0.4758200000000 1.0
C      1  0.4151510000000  0.4725910000000  0.4461400000000 1.0
C      1  0.5107540000000  0.5031260000000  0.4110600000000 1.0
C      1  0.5144390000000  0.4157310000000  0.4384280000000 1.0
C      1  0.4691980000000  0.4228550000000  0.5388160000000 1.0
C      1  0.5616040000000  0.4421910000000  0.5157660000000 1.0
C      1  0.5371420000000  0.4949100000000  0.5277650000000 1.0
C      1  0.4247890000000  0.5387450000000  0.5427830000000 1.0
C      1  0.5245960000000  0.5182920000000  0.4308820000000 1.0
C      1  0.4970470000000  0.4987280000000  0.5350610000000 1.0
C      1  0.4257790000000  0.5600120000000  0.4980450000000 1.0
C      1  0.5846860000000  0.4901870000000  0.5335230000000 1.0
C      1  0.4372230000000  0.4515890000000  0.5097780000000 1.0
C      1  0.4206880000000  0.5338260000000  0.4891800000000 1.0
C      1  0.4953360000000  0.5951800000000  0.5188520000000 1.0
C      1  0.4538130000000  0.4933250000000  0.5175980000000 1.0
C      1  0.4846360000000  0.5896940000000  0.4743650000000 1.0
C      1  0.4798680000000  0.4497860000000  0.4632880000000 1.0
C      1  0.4730020000000  0.4794790000000  0.4713290000000 1.0
C      1  0.4282830000000  0.5217320000000  0.4538390000000 1.0
C      1  0.5693570000000  0.4586880000000  0.4703080000000 1.0
C      1  0.4970470000000  0.5356540000000  0.5835440000000 1.0
C      1  0.5149440000000  0.5298480000000  0.5028700000000 1.0
C      1  0.4632410000000  0.4651490000000  0.5195930000000 1.0
C      1  0.5629850000000  0.5574830000000  0.4576380000000 1.0
C      1  0.4140260000000  0.5151800000000  0.5315060000000 1.0
C      1  0.5499530000000  0.4415180000000  0.4288960000000 1.0
C      1  0.5088800000000  0.5895250000000  0.5422810000000 1.0
C      1  0.4438260000000  0.5405830000000  0.4381950000000 1.0
C      1  0.4712990000000  0.5328850000000  0.4800000000000 1.0
C      1  0.4886850000000  0.5529690000000  0.4379660000000 1.0
C      1  0.5209570000000  0.5181290000000  0.5299400000000 1.0
C      1  0.5325410000000  0.4792620000000  0.5575780000000 1.0
C      1  0.4523450000000  0.5758740000000  0.5375110000000 1.0
C      1  0.4815140000000  0.5063530000000  0.4194970000000 1.0
C      1  0.5084840000000  0.5100160000000  0.4550120000000 1.0
C      1  0.5716690000000  0.5467930000000  0.5462620000000 1.0
END
