TITL C-154589-4087-6 -0.0619765308719959 125000 -298.303290813207 0 0 45 (C1) n - 1
REM
REM in /rds/project/t2_vol4/rds-t2-cs072/BORA/CARBON/from-Arr/AIRSS/Generating-Clusters/GAP-ML-2020/Only-C1/SD-CG/HFTN-CG
REM
REM
REM
REM
REM
REM ./C.cell (11c1c37f851c82e70ff6c80c92926a4b)
REM AIRSS Version 0.9.1 bugfix July 2018 build 013d7b7c2542+ Fri, 06 Jul 2018 19:26:36 +0100
REM compiler GCC version 9.3.0
REM options -cpp -mtune=generic -march=x86-64 -g -O0
REM seed 611788841 -1206432416 59337668 2103943454 1992133449 1138092431 1747100053 808581146 947814124 247893320 -1091103413 -270544888 -2034966241 -1847602861 -1542301057 600643210 -54994961 -105359414 -1738966121 443902141 58798957 750843826 -1976658268 -1444086013 -505876818 -907192174 144893677 1594723843 -1733851589 -1494725289 1427897416 -225130960 -1067142279
REM
CELL 1.54180   50.00000   50.00000   50.00000   90.00000   90.00000   90.00000
LATT -1
SFAC C  
C      1  0.5148100000000  0.4958960000000  0.5279120000000 1.0
C      1  0.5416130000000  0.5382600000000  0.5071420000000 1.0
C      1  0.4902150000000  0.5157520000000  0.4879860000000 1.0
C      1  0.5149510000000  0.4728160000000  0.4634550000000 1.0
C      1  0.4313240000000  0.5360560000000  0.5242280000000 1.0
C      1  0.4960760000000  0.4939300000000  0.4686130000000 1.0
C      1  0.4754370000000  0.5579440000000  0.5127550000000 1.0
C      1  0.4966790000000  0.4526040000000  0.4719030000000 1.0
C      1  0.5327060000000  0.4320400000000  0.4880690000000 1.0
C      1  0.4994680000000  0.5318130000000  0.5595700000000 1.0
C      1  0.5419100000000  0.5219740000000  0.4611040000000 1.0
C      1  0.5081980000000  0.4277870000000  0.4769660000000 1.0
C      1  0.5015120000000  0.5328250000000  0.4458930000000 1.0
C      1  0.4811290000000  0.4865510000000  0.5513390000000 1.0
C      1  0.5045720000000  0.4727560000000  0.5399810000000 1.0
C      1  0.4882380000000  0.5637260000000  0.4883800000000 1.0
C      1  0.5175660000000  0.4498180000000  0.5346110000000 1.0
C      1  0.4414040000000  0.5104450000000  0.5205580000000 1.0
C      1  0.5023690000000  0.5419310000000  0.4759590000000 1.0
C      1  0.5428690000000  0.4714880000000  0.4604990000000 1.0
C      1  0.5528820000000  0.4973940000000  0.4700510000000 1.0
C      1  0.4886790000000  0.5084870000000  0.5652580000000 1.0
C      1  0.4467720000000  0.4552150000000  0.5161430000000 1.0
C      1  0.4748910000000  0.4716230000000  0.4772080000000 1.0
C      1  0.4579840000000  0.5098990000000  0.4536220000000 1.0
C      1  0.4495760000000  0.4849830000000  0.4658790000000 1.0
C      1  0.5273830000000  0.5276510000000  0.4379030000000 1.0
C      1  0.4840410000000  0.5108240000000  0.4436930000000 1.0
C      1  0.4443590000000  0.4316160000000  0.5227720000000 1.0
C      1  0.4953420000000  0.5399630000000  0.5286080000000 1.0
C      1  0.5316980000000  0.5396520000000  0.4811360000000 1.0
C      1  0.5562810000000  0.4641110000000  0.5023680000000 1.0
C      1  0.4684510000000  0.4976430000000  0.5269020000000 1.0
C      1  0.4620350000000  0.4767520000000  0.5054550000000 1.0
C      1  0.4441800000000  0.4984240000000  0.4932150000000 1.0
C      1  0.5531420000000  0.5136780000000  0.5161220000000 1.0
C      1  0.5280270000000  0.5331740000000  0.5534550000000 1.0
C      1  0.4612800000000  0.5180990000000  0.4810850000000 1.0
C      1  0.4482850000000  0.5554900000000  0.5191250000000 1.0
C      1  0.4927370000000  0.5124810000000  0.5168300000000 1.0
C      1  0.5368320000000  0.5103090000000  0.5393760000000 1.0
C      1  0.5589290000000  0.4929760000000  0.4976390000000 1.0
C      1  0.5361160000000  0.4460850000000  0.5145090000000 1.0
C      1  0.5527800000000  0.4501370000000  0.4763230000000 1.0
C      1  0.5242750000000  0.5469190000000  0.5284020000000 1.0
END
