TITL C-158482-1842-5 0.00393376736044898 125000 -752.152637527469 0 0 106 (C1) n - 1
REM
REM in /rds/project/t2_vol4/rds-t2-cs072/BORA/CARBON/from-Arr/AIRSS/Generating-Clusters/GAP-ML-2020/Only-C1/SD-CG/HFTN-CG
REM
REM
REM
REM
REM
REM ./C.cell (11c1c37f851c82e70ff6c80c92926a4b)
REM AIRSS Version 0.9.1 bugfix July 2018 build 013d7b7c2542+ Fri, 06 Jul 2018 19:26:36 +0100
REM compiler GCC version 9.3.0
REM options -cpp -mtune=generic -march=x86-64 -g -O0
REM seed -1125796726 145273272 156166681 -1028722595 -1415481675 -887981626 -1789348785 1540525893 -2096091883 -2055637656 694420007 437130980 23574445 1605700345 -570138601 -580867526 -319641160 -181384533 -1132017086 -1532926500 -1185353154 -1884715905 285448564 27809719 1874319439 -1431939474 -850698709 -399028757 -209796268 -260488276 663965976 149262687 -1728524363
REM
CELL 1.54180   50.00000   50.00000   50.00000   90.00000   90.00000   90.00000
LATT -1
SFAC C  
C      1  0.4579230000000  0.5796750000000  0.4793020000000 1.0
C      1  0.5725950000000  0.4743760000000  0.4521050000000 1.0
C      1  0.5231230000000  0.4517150000000  0.5665340000000 1.0
C      1  0.5120980000000  0.4701780000000  0.4685250000000 1.0
C      1  0.4440150000000  0.5740140000000  0.4560800000000 1.0
C      1  0.5688010000000  0.4463200000000  0.4890730000000 1.0
C      1  0.5483090000000  0.4285560000000  0.5010270000000 1.0
C      1  0.4494020000000  0.4395900000000  0.5360540000000 1.0
C      1  0.4561190000000  0.4674970000000  0.5848490000000 1.0
C      1  0.5098710000000  0.5923420000000  0.4651160000000 1.0
C      1  0.4246440000000  0.5095150000000  0.5409450000000 1.0
C      1  0.4347070000000  0.4731570000000  0.5681950000000 1.0
C      1  0.5786730000000  0.5551760000000  0.4999950000000 1.0
C      1  0.4527460000000  0.5140290000000  0.5820550000000 1.0
C      1  0.5059080000000  0.4723510000000  0.5130710000000 1.0
C      1  0.5747850000000  0.4763120000000  0.5260490000000 1.0
C      1  0.4264740000000  0.5476140000000  0.5073410000000 1.0
C      1  0.5636620000000  0.5482220000000  0.5433480000000 1.0
C      1  0.5209720000000  0.5085430000000  0.4120240000000 1.0
C      1  0.5400260000000  0.5269560000000  0.4987410000000 1.0
C      1  0.5292370000000  0.5549090000000  0.4911710000000 1.0
C      1  0.5622730000000  0.5662460000000  0.5213260000000 1.0
C      1  0.5361620000000  0.5157320000000  0.5711130000000 1.0
C      1  0.4621280000000  0.4923950000000  0.5076120000000 1.0
C      1  0.5180270000000  0.5099660000000  0.4898940000000 1.0
C      1  0.5132550000000  0.5555260000000  0.5544640000000 1.0
C      1  0.5698540000000  0.5491720000000  0.4738460000000 1.0
C      1  0.4193230000000  0.4851540000000  0.4648800000000 1.0
C      1  0.5027130000000  0.5173310000000  0.5172340000000 1.0
C      1  0.5601850000000  0.4551700000000  0.5393810000000 1.0
C      1  0.5199640000000  0.4318190000000  0.5450820000000 1.0
C      1  0.4959990000000  0.4933800000000  0.4216300000000 1.0
C      1  0.4068960000000  0.5032620000000  0.4858800000000 1.0
C      1  0.5695930000000  0.4473750000000  0.4611680000000 1.0
C      1  0.5099250000000  0.5150920000000  0.5808770000000 1.0
C      1  0.5121970000000  0.5159230000000  0.4618790000000 1.0
C      1  0.5455940000000  0.5640300000000  0.4689050000000 1.0
C      1  0.5308070000000  0.5220020000000  0.5266020000000 1.0
C      1  0.4719690000000  0.4338080000000  0.5533390000000 1.0
C      1  0.4961420000000  0.4908620000000  0.5887750000000 1.0
C      1  0.4644760000000  0.5185640000000  0.4936650000000 1.0
C      1  0.4129700000000  0.4803020000000  0.5022730000000 1.0
C      1  0.5308570000000  0.4182530000000  0.4561930000000 1.0
C      1  0.4969900000000  0.4915730000000  0.4524150000000 1.0
C      1  0.4220960000000  0.4617880000000  0.4814960000000 1.0
C      1  0.5270420000000  0.4186050000000  0.4839490000000 1.0
C      1  0.5900260000000  0.5326800000000  0.5110340000000 1.0
C      1  0.4638240000000  0.5812190000000  0.5219770000000 1.0
C      1  0.5625500000000  0.5190210000000  0.4726070000000 1.0
C      1  0.4900550000000  0.5829480000000  0.4851890000000 1.0
C      1  0.4614000000000  0.4372560000000  0.4566530000000 1.0
C      1  0.4297700000000  0.5362570000000  0.5332900000000 1.0
C      1  0.4193820000000  0.5287600000000  0.4866140000000 1.0
C      1  0.5441320000000  0.4339750000000  0.5285850000000 1.0
C      1  0.4937390000000  0.4577120000000  0.4890560000000 1.0
C      1  0.4698020000000  0.5549540000000  0.5270190000000 1.0
C      1  0.4423950000000  0.4989820000000  0.4565890000000 1.0
C      1  0.5762340000000  0.4921360000000  0.4747070000000 1.0
C      1  0.5062520000000  0.4237450000000  0.4418100000000 1.0
C      1  0.4681880000000  0.4925090000000  0.5920410000000 1.0
C      1  0.4477160000000  0.4465270000000  0.4835680000000 1.0
C      1  0.5470080000000  0.4664730000000  0.5616690000000 1.0
C      1  0.4314540000000  0.5020240000000  0.5670540000000 1.0
C      1  0.5727620000000  0.4995520000000  0.5431890000000 1.0
C      1  0.5421370000000  0.5162340000000  0.4512330000000 1.0
C      1  0.5445740000000  0.5029250000000  0.4262920000000 1.0
C      1  0.4322030000000  0.4859290000000  0.5232750000000 1.0
C      1  0.4905110000000  0.5872800000000  0.5158050000000 1.0
C      1  0.4978420000000  0.5412570000000  0.4575120000000 1.0
C      1  0.5509720000000  0.4339930000000  0.4448930000000 1.0
C      1  0.4951780000000  0.5384610000000  0.5705390000000 1.0
C      1  0.4847280000000  0.4221820000000  0.4603260000000 1.0
C      1  0.4762720000000  0.4497580000000  0.5761590000000 1.0
C      1  0.5803580000000  0.5258250000000  0.5359020000000 1.0
C      1  0.5353270000000  0.5719900000000  0.5145120000000 1.0
C      1  0.4439150000000  0.5252380000000  0.4699740000000 1.0
C      1  0.5240830000000  0.4819430000000  0.4920670000000 1.0
C      1  0.5379290000000  0.5388930000000  0.5531180000000 1.0
C      1  0.4449900000000  0.5711810000000  0.5028880000000 1.0
C      1  0.4881940000000  0.4636120000000  0.4209280000000 1.0
C      1  0.5271640000000  0.5757390000000  0.4499870000000 1.0
C      1  0.5771810000000  0.4731960000000  0.4978800000000 1.0
C      1  0.4991360000000  0.5541930000000  0.4848200000000 1.0
C      1  0.5104190000000  0.5344310000000  0.4146090000000 1.0
C      1  0.4529030000000  0.5455120000000  0.5469530000000 1.0
C      1  0.4741760000000  0.5381260000000  0.4396680000000 1.0
C      1  0.4663480000000  0.5357850000000  0.5694720000000 1.0
C      1  0.4881770000000  0.4917540000000  0.5250080000000 1.0
C      1  0.4815470000000  0.4194020000000  0.5114600000000 1.0
C      1  0.5106410000000  0.4456730000000  0.4237510000000 1.0
C      1  0.5141140000000  0.5542030000000  0.4357540000000 1.0
C      1  0.4339450000000  0.4624030000000  0.5423730000000 1.0
C      1  0.5547070000000  0.4772030000000  0.4296740000000 1.0
C      1  0.5126810000000  0.5749590000000  0.5315310000000 1.0
C      1  0.4668990000000  0.4706510000000  0.4856530000000 1.0
C      1  0.5393650000000  0.4525070000000  0.4265580000000 1.0
C      1  0.4668660000000  0.4592600000000  0.4396840000000 1.0
C      1  0.4975140000000  0.4250000000000  0.4879730000000 1.0
C      1  0.4669780000000  0.4832960000000  0.4577200000000 1.0
C      1  0.4931730000000  0.4233530000000  0.5379250000000 1.0
C      1  0.4844710000000  0.5221300000000  0.4184840000000 1.0
C      1  0.4555120000000  0.4313310000000  0.5094240000000 1.0
C      1  0.4499910000000  0.5475160000000  0.4506260000000 1.0
C      1  0.5535080000000  0.4943260000000  0.5637020000000 1.0
C      1  0.4837880000000  0.5375560000000  0.5052070000000 1.0
C      1  0.5013670000000  0.4626900000000  0.5805520000000 1.0
END
