TITL C-151001-9359-2 333.806281444964 125000 -819.192550818841 0 0 118 (C1) n - 1
REM
REM in /rds/project/t2_vol4/rds-t2-cs072/BORA/CARBON/from-Arr/AIRSS/Generating-Clusters/GAP-ML-2020/Only-C1/SD-CG/HFTN-CG
REM
REM
REM
REM
REM
REM ./C.cell (11c1c37f851c82e70ff6c80c92926a4b)
REM AIRSS Version 0.9.1 bugfix July 2018 build 013d7b7c2542+ Fri, 06 Jul 2018 19:26:36 +0100
REM compiler GCC version 9.3.0
REM options -cpp -mtune=generic -march=x86-64 -g -O0
REM seed -82282897 -1814238730 249039406 10770266 921545904 -2020310823 -2005440815 2024770487 -19781578 -2099487964 1859660229 -1967577917 1199972426 2099064489 -758054869 -864963883 1734401289 1892881597 1161628766 -2131726178 -2012344466 1666975782 -1392397993 -610526208 631050172 667258020 -792195897 1439683981 -1132357721 -1880606206 1818853200 -1561500863 -629190684
REM
CELL 1.54180   50.00000   50.00000   50.00000   90.00000   90.00000   90.00000
LATT -1
SFAC C  
C      1  0.5250880000000  0.5052840000000  0.4467540000000 1.0
C      1  0.5522060000000  0.5124340000000  0.4902170000000 1.0
C      1  0.4875060000000  0.4995320000000  0.5300000000000 1.0
C      1  0.4636660000000  0.5656540000000  0.5458440000000 1.0
C      1  0.5249300000000  0.4141400000000  0.5510960000000 1.0
C      1  0.4787220000000  0.4784650000000  0.4188150000000 1.0
C      1  0.4377700000000  0.5000120000000  0.5456530000000 1.0
C      1  0.4761740000000  0.5658750000000  0.4422030000000 1.0
C      1  0.5189430000000  0.5452690000000  0.4234060000000 1.0
C      1  0.4162860000000  0.4718740000000  0.4576150000000 1.0
C      1  0.4368560000000  0.5491080000000  0.5533420000000 1.0
C      1  0.4665350000000  0.4824280000000  0.4668440000000 1.0
C      1  0.5451520000000  0.5742940000000  0.4675380000000 1.0
C      1  0.5612520000000  0.4898300000000  0.5490720000000 1.0
C      1  0.4171090000000  0.4755060000000  0.4868580000000 1.0
C      1  0.5326820000000  0.4024790000000  0.5019920000000 1.0
C      1  0.4974950000000  0.4209310000000  0.5498350000000 1.0
C      1  0.4553100000000  0.5458530000000  0.4392180000000 1.0
C      1  0.4020400000000  0.4663290000000  0.5085530000000 1.0
C      1  0.4804210000000  0.5948960000000  0.5194650000000 1.0
C      1  0.4638520000000  0.5645710000000  0.4891620000000 1.0
C      1  0.4711120000000  0.5243620000000  0.5220470000000 1.0
C      1  0.5997840000000  0.5121690000000  0.5349230000000 1.0
C      1  0.4361170000000  0.5605750000000  0.4817910000000 1.0
C      1  0.4901650000000  0.5225670000000  0.4773120000000 1.0
C      1  0.5287720000000  0.5981140000000  0.5091430000000 1.0
C      1  0.4791730000000  0.5395350000000  0.5475380000000 1.0
C      1  0.5754920000000  0.4443030000000  0.5109220000000 1.0
C      1  0.4743440000000  0.5805550000000  0.4664200000000 1.0
C      1  0.5722480000000  0.5037470000000  0.4464950000000 1.0
C      1  0.4921180000000  0.5163660000000  0.5863920000000 1.0
C      1  0.4234270000000  0.4739330000000  0.5469220000000 1.0
C      1  0.4389030000000  0.5171790000000  0.5195720000000 1.0
C      1  0.5802370000000  0.4780770000000  0.4522420000000 1.0
C      1  0.5310600000000  0.5016960000000  0.4061820000000 1.0
C      1  0.5037870000000  0.4650760000000  0.4141310000000 1.0
C      1  0.5284720000000  0.4400300000000  0.4771730000000 1.0
C      1  0.4471590000000  0.4788540000000  0.4890840000000 1.0
C      1  0.5443000000000  0.4345010000000  0.5588640000000 1.0
C      1  0.5123580000000  0.5878620000000  0.5535430000000 1.0
C      1  0.5546460000000  0.4345780000000  0.5299500000000 1.0
C      1  0.4416340000000  0.5238800000000  0.5658780000000 1.0
C      1  0.5376880000000  0.5276690000000  0.5909660000000 1.0
C      1  0.5104160000000  0.4402780000000  0.5024880000000 1.0
C      1  0.5686620000000  0.5447930000000  0.5286260000000 1.0
C      1  0.4529000000000  0.4392520000000  0.4480100000000 1.0
C      1  0.4901010000000  0.4467050000000  0.5650070000000 1.0
C      1  0.4570620000000  0.5779890000000  0.5169500000000 1.0
C      1  0.4666250000000  0.4620840000000  0.5604500000000 1.0
C      1  0.5377370000000  0.5009370000000  0.5876280000000 1.0
C      1  0.4987420000000  0.4837030000000  0.5070990000000 1.0
C      1  0.5472210000000  0.5814460000000  0.4954900000000 1.0
C      1  0.5378480000000  0.4568940000000  0.5744040000000 1.0
C      1  0.5193230000000  0.5826630000000  0.4554590000000 1.0
C      1  0.5048040000000  0.5667600000000  0.4350950000000 1.0
C      1  0.4260830000000  0.5442240000000  0.5270070000000 1.0
C      1  0.5582140000000  0.5510860000000  0.4539000000000 1.0
C      1  0.4582150000000  0.4135420000000  0.5159130000000 1.0
C      1  0.5232800000000  0.4769040000000  0.3991770000000 1.0
C      1  0.5254000000000  0.5458990000000  0.5242750000000 1.0
C      1  0.4342650000000  0.5041410000000  0.4241000000000 1.0
C      1  0.4593900000000  0.4576930000000  0.5039060000000 1.0
C      1  0.5674210000000  0.5253140000000  0.4668960000000 1.0
C      1  0.3989840000000  0.4673890000000  0.5339260000000 1.0
C      1  0.4300520000000  0.5660140000000  0.5088100000000 1.0
C      1  0.4989960000000  0.5924210000000  0.4725880000000 1.0
C      1  0.5411330000000  0.4078020000000  0.5273420000000 1.0
C      1  0.5117950000000  0.5070500000000  0.5476170000000 1.0
C      1  0.4642440000000  0.4171920000000  0.4658220000000 1.0
C      1  0.5471880000000  0.5241810000000  0.5184170000000 1.0
C      1  0.5069700000000  0.5544400000000  0.5030630000000 1.0
C      1  0.4809030000000  0.5070860000000  0.4169150000000 1.0
C      1  0.5102600000000  0.4634770000000  0.5767660000000 1.0
C      1  0.5509350000000  0.5117820000000  0.4278680000000 1.0
C      1  0.4282780000000  0.4500720000000  0.4458400000000 1.0
C      1  0.4666510000000  0.4906590000000  0.5517620000000 1.0
C      1  0.5335510000000  0.5886610000000  0.5365210000000 1.0
C      1  0.5473940000000  0.4192060000000  0.4834480000000 1.0
C      1  0.5028780000000  0.5901010000000  0.5007330000000 1.0
C      1  0.5496460000000  0.5665760000000  0.5232680000000 1.0
C      1  0.4538870000000  0.4072320000000  0.4894360000000 1.0
C      1  0.5164650000000  0.4799060000000  0.4584480000000 1.0
C      1  0.4350720000000  0.5434710000000  0.4601320000000 1.0
C      1  0.5084040000000  0.5175330000000  0.4209020000000 1.0
C      1  0.4700670000000  0.5190470000000  0.5693000000000 1.0
C      1  0.5414530000000  0.4661010000000  0.4714740000000 1.0
C      1  0.4430150000000  0.4527000000000  0.5475380000000 1.0
C      1  0.5137710000000  0.5371980000000  0.5808980000000 1.0
C      1  0.4919860000000  0.4142990000000  0.4707610000000 1.0
C      1  0.5849080000000  0.4898080000000  0.5325220000000 1.0
C      1  0.4320430000000  0.5046100000000  0.4931550000000 1.0
C      1  0.4872780000000  0.4581250000000  0.5036980000000 1.0
C      1  0.5936110000000  0.5375440000000  0.5357680000000 1.0
C      1  0.5303710000000  0.5188770000000  0.4726210000000 1.0
C      1  0.5540230000000  0.4809570000000  0.5747770000000 1.0
C      1  0.5293730000000  0.4793320000000  0.5150770000000 1.0
C      1  0.4858330000000  0.5880330000000  0.5469860000000 1.0
C      1  0.5715600000000  0.4344010000000  0.4841990000000 1.0
C      1  0.4221730000000  0.4981370000000  0.4474260000000 1.0
C      1  0.4719280000000  0.4630110000000  0.4441420000000 1.0
C      1  0.5097140000000  0.4932850000000  0.5782720000000 1.0
C      1  0.4853950000000  0.4099900000000  0.5251390000000 1.0
C      1  0.5696890000000  0.4555170000000  0.4621320000000 1.0
C      1  0.5128320000000  0.5393990000000  0.4777120000000 1.0
C      1  0.4919540000000  0.4929470000000  0.4775630000000 1.0
C      1  0.5377190000000  0.5002640000000  0.5345410000000 1.0
C      1  0.4567800000000  0.5208580000000  0.4235870000000 1.0
C      1  0.5515110000000  0.4827780000000  0.4953880000000 1.0
C      1  0.5466450000000  0.5411990000000  0.4298720000000 1.0
C      1  0.5026020000000  0.4564430000000  0.4427520000000 1.0
C      1  0.4266230000000  0.5175840000000  0.4680440000000 1.0
C      1  0.5287710000000  0.4513130000000  0.5222600000000 1.0
C      1  0.5766920000000  0.4728700000000  0.5108280000000 1.0
C      1  0.5094820000000  0.5371220000000  0.5500950000000 1.0
C      1  0.5092270000000  0.4319100000000  0.4569010000000 1.0
C      1  0.4469540000000  0.4393380000000  0.5227660000000 1.0
C      1  0.5034860000000  0.4104960000000  0.5002180000000 1.0
C      1  0.4801410000000  0.5395620000000  0.4991150000000 1.0
END
