TITL C-158497-1783-3 -0.0186487916958474 125000 -201.392388735027 0 0 31 (C1) n - 1
REM
REM in /rds/project/t2_vol4/rds-t2-cs072/BORA/CARBON/from-Arr/AIRSS/Generating-Clusters/GAP-ML-2020/Only-C1/SD-CG/HFTN-CG
REM
REM
REM
REM
REM
REM ./C.cell (11c1c37f851c82e70ff6c80c92926a4b)
REM AIRSS Version 0.9.1 bugfix July 2018 build 013d7b7c2542+ Fri, 06 Jul 2018 19:26:36 +0100
REM compiler GCC version 9.3.0
REM options -cpp -mtune=generic -march=x86-64 -g -O0
REM seed 1853427926 313785474 949449346 -1499561005 -1514422481 1085993898 1452270331 1330274581 -1952528079 -235890177 486969363 1597555993 -2048913849 1216322487 -1694307854 -2132969210 -1103738988 -1732588682 1581668922 -386318572 -1231814552 875487459 908586407 2057397320 301111022 1251134538 -192672353 -1662561850 764143951 1353318432 872098893 467748723 79422944
REM
CELL 1.54180   50.00000   50.00000   50.00000   90.00000   90.00000   90.00000
LATT -1
SFAC C  
C      1  0.5294710000000  0.5498450000000  0.4961130000000 1.0
C      1  0.4929450000000  0.4750290000000  0.5381420000000 1.0
C      1  0.5118150000000  0.4626500000000  0.5041350000000 1.0
C      1  0.5533460000000  0.5053930000000  0.4566470000000 1.0
C      1  0.5200710000000  0.4717460000000  0.5308380000000 1.0
C      1  0.4869650000000  0.5333230000000  0.4895710000000 1.0
C      1  0.5591050000000  0.5160620000000  0.4793910000000 1.0
C      1  0.5142120000000  0.5545020000000  0.5198840000000 1.0
C      1  0.5039750000000  0.5088150000000  0.5025980000000 1.0
C      1  0.5487440000000  0.5292830000000  0.5012140000000 1.0
C      1  0.5107220000000  0.5439430000000  0.4742360000000 1.0
C      1  0.4774880000000  0.4515410000000  0.5275830000000 1.0
C      1  0.4870370000000  0.5475660000000  0.5172480000000 1.0
C      1  0.4838280000000  0.5011220000000  0.5277820000000 1.0
C      1  0.4660120000000  0.5201610000000  0.4768140000000 1.0
C      1  0.4467770000000  0.4684870000000  0.5150270000000 1.0
C      1  0.4491970000000  0.4691430000000  0.4848790000000 1.0
C      1  0.5245550000000  0.5056350000000  0.4506590000000 1.0
C      1  0.5411550000000  0.5176680000000  0.5292380000000 1.0
C      1  0.4906740000000  0.5274290000000  0.5397560000000 1.0
C      1  0.4543400000000  0.4989610000000  0.4867640000000 1.0
C      1  0.4570380000000  0.4961120000000  0.5162670000000 1.0
C      1  0.4732000000000  0.4557810000000  0.4756720000000 1.0
C      1  0.4879930000000  0.4661660000000  0.4538200000000 1.0
C      1  0.5192150000000  0.5351160000000  0.5398560000000 1.0
C      1  0.4898200000000  0.4455200000000  0.5009540000000 1.0
C      1  0.5370490000000  0.4916740000000  0.5335130000000 1.0
C      1  0.5165630000000  0.5324180000000  0.4507480000000 1.0
C      1  0.4505060000000  0.4479350000000  0.5321370000000 1.0
C      1  0.5094170000000  0.4860340000000  0.4881440000000 1.0
C      1  0.5067650000000  0.4849420000000  0.4603670000000 1.0
END
