TITL C-154618-4185-6 -0.0701770281908349 125000 -886.554697020438 0 0 124 (C1) n - 1
REM
REM in /rds/project/t2_vol4/rds-t2-cs072/BORA/CARBON/from-Arr/AIRSS/Generating-Clusters/GAP-ML-2020/Only-C1/SD-CG/HFTN-CG
REM
REM
REM
REM
REM
REM ./C.cell (11c1c37f851c82e70ff6c80c92926a4b)
REM AIRSS Version 0.9.1 bugfix July 2018 build 013d7b7c2542+ Fri, 06 Jul 2018 19:26:36 +0100
REM compiler GCC version 9.3.0
REM options -cpp -mtune=generic -march=x86-64 -g -O0
REM seed 1903591961 -1410306215 -1582986493 -366699899 1483447839 894032278 1257562424 2052621850 -428342385 -582550856 626156672 104799694 133131977 -625033445 -968175354 -2024567362 1967409518 -407444844 -697886221 123665335 1732431847 -878070884 987257506 1453364042 92406036 -2053843855 -2036499439 -397464392 744533678 -354779542 538204445 443539874 198385376
REM
CELL 1.54180   50.00000   50.00000   50.00000   90.00000   90.00000   90.00000
LATT -1
SFAC C  
C      1  0.4426280000000  0.5396970000000  0.5508700000000 1.0
C      1  0.4278420000000  0.5575300000000  0.5160120000000 1.0
C      1  0.5210360000000  0.4817010000000  0.5822660000000 1.0
C      1  0.5782060000000  0.4585560000000  0.4734070000000 1.0
C      1  0.5237700000000  0.4998300000000  0.5300250000000 1.0
C      1  0.5702960000000  0.5282570000000  0.5572750000000 1.0
C      1  0.4648880000000  0.5408330000000  0.4798220000000 1.0
C      1  0.4971210000000  0.4931860000000  0.4219280000000 1.0
C      1  0.5599700000000  0.4780250000000  0.5549190000000 1.0
C      1  0.4708460000000  0.5360330000000  0.5083610000000 1.0
C      1  0.4432700000000  0.5909950000000  0.4875990000000 1.0
C      1  0.5149780000000  0.4395950000000  0.4343280000000 1.0
C      1  0.4385440000000  0.4295090000000  0.5031520000000 1.0
C      1  0.5059770000000  0.4781700000000  0.5211150000000 1.0
C      1  0.4703300000000  0.4956850000000  0.4800800000000 1.0
C      1  0.4652670000000  0.5044820000000  0.5071840000000 1.0
C      1  0.4808570000000  0.5943990000000  0.5179620000000 1.0
C      1  0.5164020000000  0.5922400000000  0.4873300000000 1.0
C      1  0.4588260000000  0.5300220000000  0.5713990000000 1.0
C      1  0.4611340000000  0.4129430000000  0.5076980000000 1.0
C      1  0.4141900000000  0.4782980000000  0.4581980000000 1.0
C      1  0.5388070000000  0.5607280000000  0.5681350000000 1.0
C      1  0.4277630000000  0.5678490000000  0.4892510000000 1.0
C      1  0.4774700000000  0.4887600000000  0.5887470000000 1.0
C      1  0.4890540000000  0.4335870000000  0.4363670000000 1.0
C      1  0.5025030000000  0.5013340000000  0.5903640000000 1.0
C      1  0.4813620000000  0.4092160000000  0.4872470000000 1.0
C      1  0.4863150000000  0.5733610000000  0.4482590000000 1.0
C      1  0.4984770000000  0.4529540000000  0.5380540000000 1.0
C      1  0.5000870000000  0.5363070000000  0.5113270000000 1.0
C      1  0.4997700000000  0.4207990000000  0.5309330000000 1.0
C      1  0.4778090000000  0.5194050000000  0.4660610000000 1.0
C      1  0.5604930000000  0.5114720000000  0.4561980000000 1.0
C      1  0.5771990000000  0.5103660000000  0.5362750000000 1.0
C      1  0.5488890000000  0.5830950000000  0.5178230000000 1.0
C      1  0.5261660000000  0.5896470000000  0.5333050000000 1.0
C      1  0.5078410000000  0.5983410000000  0.5142430000000 1.0
C      1  0.4551140000000  0.5559600000000  0.5294460000000 1.0
C      1  0.5902490000000  0.5060130000000  0.4649820000000 1.0
C      1  0.4723950000000  0.4795570000000  0.4182700000000 1.0
C      1  0.5478000000000  0.5094680000000  0.3975100000000 1.0
C      1  0.5891160000000  0.5214230000000  0.4902910000000 1.0
C      1  0.5103110000000  0.4689760000000  0.4936270000000 1.0
C      1  0.4414850000000  0.5197050000000  0.4313990000000 1.0
C      1  0.5779350000000  0.4587380000000  0.5049950000000 1.0
C      1  0.4921290000000  0.5889590000000  0.4718030000000 1.0
C      1  0.4303920000000  0.4725360000000  0.4361230000000 1.0
C      1  0.5564980000000  0.4828010000000  0.5023680000000 1.0
C      1  0.4840610000000  0.5447070000000  0.5754470000000 1.0
C      1  0.4522680000000  0.4384880000000  0.5453680000000 1.0
C      1  0.4592740000000  0.5609310000000  0.4459660000000 1.0
C      1  0.4450120000000  0.4296250000000  0.4564080000000 1.0
C      1  0.5179820000000  0.5766480000000  0.5574040000000 1.0
C      1  0.4392220000000  0.5494760000000  0.4678040000000 1.0
C      1  0.5040140000000  0.5584070000000  0.4309000000000 1.0
C      1  0.5598580000000  0.5094090000000  0.4870960000000 1.0
C      1  0.5528220000000  0.5179380000000  0.5776860000000 1.0
C      1  0.4064310000000  0.4986380000000  0.4989180000000 1.0
C      1  0.4143480000000  0.4624820000000  0.5277790000000 1.0
C      1  0.4261940000000  0.5255990000000  0.4554600000000 1.0
C      1  0.5125150000000  0.5241470000000  0.5322720000000 1.0
C      1  0.4116100000000  0.4576850000000  0.4774770000000 1.0
C      1  0.5530780000000  0.4936910000000  0.5299890000000 1.0
C      1  0.4794290000000  0.4620420000000  0.5796050000000 1.0
C      1  0.5060290000000  0.5169360000000  0.4658230000000 1.0
C      1  0.4691590000000  0.4594290000000  0.5273430000000 1.0
C      1  0.4726410000000  0.4536220000000  0.4763790000000 1.0
C      1  0.5366040000000  0.4677430000000  0.4866450000000 1.0
C      1  0.5048940000000  0.4097000000000  0.5034430000000 1.0
C      1  0.5565650000000  0.4509380000000  0.5515250000000 1.0
C      1  0.5630170000000  0.5555410000000  0.5535010000000 1.0
C      1  0.5330070000000  0.4081170000000  0.4979660000000 1.0
C      1  0.5461640000000  0.4191700000000  0.5216310000000 1.0
C      1  0.4060630000000  0.4706010000000  0.5018670000000 1.0
C      1  0.5426030000000  0.5807160000000  0.4896670000000 1.0
C      1  0.5904850000000  0.5631140000000  0.5121810000000 1.0
C      1  0.4194530000000  0.4857400000000  0.5433990000000 1.0
C      1  0.4699560000000  0.5931040000000  0.4911250000000 1.0
C      1  0.4697890000000  0.4516090000000  0.4243320000000 1.0
C      1  0.5517090000000  0.5409370000000  0.4510250000000 1.0
C      1  0.4902690000000  0.5687160000000  0.5602000000000 1.0
C      1  0.5964210000000  0.5059020000000  0.5146740000000 1.0
C      1  0.5057880000000  0.5297090000000  0.5873380000000 1.0
C      1  0.4264670000000  0.4337310000000  0.4773230000000 1.0
C      1  0.5398620000000  0.4382240000000  0.4448160000000 1.0
C      1  0.4742500000000  0.4247960000000  0.4621950000000 1.0
C      1  0.5296050000000  0.5264320000000  0.4101640000000 1.0
C      1  0.5705860000000  0.5699270000000  0.5299900000000 1.0
C      1  0.4598600000000  0.5413220000000  0.4259290000000 1.0
C      1  0.5513290000000  0.4124310000000  0.4505760000000 1.0
C      1  0.4767780000000  0.4874240000000  0.5250660000000 1.0
C      1  0.4196250000000  0.5354080000000  0.5332590000000 1.0
C      1  0.4618120000000  0.4499340000000  0.5016730000000 1.0
C      1  0.5322420000000  0.5471460000000  0.4301650000000 1.0
C      1  0.4120940000000  0.5045110000000  0.4699680000000 1.0
C      1  0.4868170000000  0.5408680000000  0.4160140000000 1.0
C      1  0.5991310000000  0.4789710000000  0.5041830000000 1.0
C      1  0.5971310000000  0.4797020000000  0.4735170000000 1.0
C      1  0.5160530000000  0.5289400000000  0.4889360000000 1.0
C      1  0.5020390000000  0.5183360000000  0.4089750000000 1.0
C      1  0.5322970000000  0.4397870000000  0.5617610000000 1.0
C      1  0.5436020000000  0.4882980000000  0.4444380000000 1.0
C      1  0.5560240000000  0.5555170000000  0.4772670000000 1.0
C      1  0.4114780000000  0.5088360000000  0.5261560000000 1.0
C      1  0.5834800000000  0.5500550000000  0.4897890000000 1.0
C      1  0.5483290000000  0.4920310000000  0.4159540000000 1.0
C      1  0.5078530000000  0.4577960000000  0.5688870000000 1.0
C      1  0.4907480000000  0.4752010000000  0.4735160000000 1.0
C      1  0.5326680000000  0.5375710000000  0.5835210000000 1.0
C      1  0.4704110000000  0.4168270000000  0.5342100000000 1.0
C      1  0.5438030000000  0.5323290000000  0.4935510000000 1.0
C      1  0.5266900000000  0.4199130000000  0.5427160000000 1.0
C      1  0.4724630000000  0.5775140000000  0.5394310000000 1.0
C      1  0.4466620000000  0.4923420000000  0.4243820000000 1.0
C      1  0.4438900000000  0.4474860000000  0.4348090000000 1.0
C      1  0.5655140000000  0.4400120000000  0.5258530000000 1.0
C      1  0.4547090000000  0.5022100000000  0.5784360000000 1.0
C      1  0.4282920000000  0.4386570000000  0.5290030000000 1.0
C      1  0.5505620000000  0.4622660000000  0.4600780000000 1.0
C      1  0.5473970000000  0.4904550000000  0.5773180000000 1.0
C      1  0.5453990000000  0.4036580000000  0.4734960000000 1.0
C      1  0.4384060000000  0.4822950000000  0.5650670000000 1.0
C      1  0.4537580000000  0.4563970000000  0.5678570000000 1.0
C      1  0.5113450000000  0.4918370000000  0.4497790000000 1.0
END
