TITL C-158485-1881-4 -0.0709766803018864 125000 -402.563461846881 0 0 60 (C1) n - 1
REM
REM in /rds/project/t2_vol4/rds-t2-cs072/BORA/CARBON/from-Arr/AIRSS/Generating-Clusters/GAP-ML-2020/Only-C1/SD-CG/HFTN-CG
REM
REM
REM
REM
REM
REM ./C.cell (11c1c37f851c82e70ff6c80c92926a4b)
REM AIRSS Version 0.9.1 bugfix July 2018 build 013d7b7c2542+ Fri, 06 Jul 2018 19:26:36 +0100
REM compiler GCC version 9.3.0
REM options -cpp -mtune=generic -march=x86-64 -g -O0
REM seed -849366217 411880657 1635656795 677134074 -741915598 -618788292 1626859304 -1000200475 1458984647 1210377933 -571440825 1376170845 -1982411119 507055005 385978568 2021893832 240748413 17071014 -322756999 2043256741 -865965499 1290563603 -1580819348 623582614 -1354697937 1469348033 -1526692220 -1596183630 241331059 -1014899635 -1669247173 51957566 -149726476
REM
CELL 1.54180   50.00000   50.00000   50.00000   90.00000   90.00000   90.00000
LATT -1
SFAC C  
C      1  0.5397740000000  0.5226080000000  0.4523630000000 1.0
C      1  0.4988650000000  0.5403590000000  0.5025440000000 1.0
C      1  0.5187370000000  0.5148990000000  0.4338430000000 1.0
C      1  0.5530610000000  0.4712560000000  0.4764780000000 1.0
C      1  0.4905060000000  0.4692620000000  0.4349810000000 1.0
C      1  0.5429970000000  0.4953180000000  0.5386320000000 1.0
C      1  0.5069450000000  0.4568340000000  0.5469320000000 1.0
C      1  0.4762610000000  0.5363750000000  0.4836610000000 1.0
C      1  0.5059450000000  0.5662680000000  0.5392270000000 1.0
C      1  0.4498860000000  0.5258460000000  0.5312660000000 1.0
C      1  0.4772190000000  0.4969080000000  0.5597540000000 1.0
C      1  0.5337140000000  0.4482590000000  0.5388420000000 1.0
C      1  0.5287450000000  0.5469180000000  0.4661220000000 1.0
C      1  0.4377590000000  0.5061090000000  0.4844720000000 1.0
C      1  0.5512700000000  0.5020550000000  0.4740050000000 1.0
C      1  0.5016950000000  0.4815350000000  0.5600500000000 1.0
C      1  0.4490600000000  0.4753470000000  0.4593070000000 1.0
C      1  0.4737250000000  0.5015650000000  0.5122130000000 1.0
C      1  0.4957340000000  0.4453480000000  0.5209760000000 1.0
C      1  0.4780180000000  0.5629480000000  0.4690440000000 1.0
C      1  0.4733370000000  0.5774550000000  0.5135890000000 1.0
C      1  0.4693780000000  0.4584350000000  0.4515420000000 1.0
C      1  0.5624600000000  0.4740120000000  0.5035650000000 1.0
C      1  0.5239560000000  0.5002520000000  0.5607160000000 1.0
C      1  0.5333960000000  0.4560820000000  0.4639350000000 1.0
C      1  0.5137440000000  0.5266840000000  0.5620700000000 1.0
C      1  0.5580200000000  0.5162740000000  0.5238970000000 1.0
C      1  0.4804610000000  0.5154340000000  0.4624310000000 1.0
C      1  0.4553380000000  0.4961450000000  0.5385210000000 1.0
C      1  0.5133530000000  0.4740870000000  0.4528730000000 1.0
C      1  0.4525460000000  0.5038840000000  0.4594540000000 1.0
C      1  0.5010050000000  0.4944620000000  0.4738580000000 1.0
C      1  0.5072300000000  0.4707090000000  0.5100920000000 1.0
C      1  0.4667950000000  0.5790230000000  0.4876760000000 1.0
C      1  0.4982160000000  0.4224520000000  0.4681700000000 1.0
C      1  0.5260810000000  0.5371260000000  0.4935500000000 1.0
C      1  0.4396250000000  0.4737240000000  0.5308950000000 1.0
C      1  0.5017200000000  0.5689630000000  0.5118130000000 1.0
C      1  0.4765170000000  0.5668110000000  0.5414700000000 1.0
C      1  0.4359550000000  0.4769730000000  0.4853670000000 1.0
C      1  0.5244420000000  0.5063170000000  0.4887660000000 1.0
C      1  0.4669550000000  0.5412240000000  0.5473780000000 1.0
C      1  0.5195730000000  0.4960940000000  0.5163960000000 1.0
C      1  0.5248100000000  0.5463690000000  0.5442460000000 1.0
C      1  0.4844990000000  0.5243790000000  0.5634050000000 1.0
C      1  0.4774450000000  0.4390450000000  0.4731170000000 1.0
C      1  0.4964520000000  0.5307920000000  0.4418600000000 1.0
C      1  0.5031710000000  0.5554600000000  0.4545020000000 1.0
C      1  0.5517940000000  0.4684320000000  0.5304270000000 1.0
C      1  0.5104700000000  0.4874850000000  0.4271380000000 1.0
C      1  0.4543430000000  0.5227040000000  0.5014050000000 1.0
C      1  0.5409720000000  0.5386220000000  0.5210900000000 1.0
C      1  0.5221690000000  0.4299150000000  0.5185380000000 1.0
C      1  0.4841020000000  0.4798520000000  0.4947310000000 1.0
C      1  0.4718100000000  0.4495570000000  0.5000460000000 1.0
C      1  0.5660450000000  0.5028370000000  0.4997780000000 1.0
C      1  0.5349660000000  0.4207670000000  0.4972140000000 1.0
C      1  0.4971380000000  0.5157830000000  0.5203540000000 1.0
C      1  0.4444800000000  0.4603650000000  0.5071590000000 1.0
C      1  0.5253180000000  0.4289980000000  0.4722520000000 1.0
END
