TITL C-154600-4083-7 -114.417012319652 125000 -257.270324013277 0 0 39 (C1) n - 1
REM
REM in /rds/project/t2_vol4/rds-t2-cs072/BORA/CARBON/from-Arr/AIRSS/Generating-Clusters/GAP-ML-2020/Only-C1/SD-CG/HFTN-CG
REM
REM
REM
REM
REM
REM ./C.cell (11c1c37f851c82e70ff6c80c92926a4b)
REM AIRSS Version 0.9.1 bugfix July 2018 build 013d7b7c2542+ Fri, 06 Jul 2018 19:26:36 +0100
REM compiler GCC version 9.3.0
REM options -cpp -mtune=generic -march=x86-64 -g -O0
REM seed -971458618 -2098049862 -267312993 -302577990 -1598250713 2136613011 2059907308 -1913446333 -2107920048 516889353 1631212017 1067969196 -557651495 -198120894 919676563 -169955131 1969881512 -829754754 -2123411599 -519012791 -365308232 -1927811442 -1278048977 -1355487254 -779330628 -1235589379 -837873861 929760871 818361566 -1387530810 -613218217 51978647 -939787899
REM
CELL 1.54180   50.00000   50.00000   50.00000   90.00000   90.00000   90.00000
LATT -1
SFAC C  
C      1  0.5246950000000  0.4714950000000  0.4363170000000 1.0
C      1  0.4950500000000  0.4676670000000  0.4839980000000 1.0
C      1  0.4761940000000  0.5400000000000  0.5381760000000 1.0
C      1  0.5192850000000  0.4461800000000  0.4481250000000 1.0
C      1  0.4721400000000  0.4776320000000  0.5531440000000 1.0
C      1  0.4635880000000  0.5109690000000  0.4950400000000 1.0
C      1  0.5527590000000  0.5110500000000  0.5076270000000 1.0
C      1  0.4554230000000  0.4611920000000  0.5193290000000 1.0
C      1  0.4522500000000  0.5334570000000  0.4793570000000 1.0
C      1  0.4948850000000  0.5177250000000  0.5335770000000 1.0
C      1  0.5164510000000  0.4503250000000  0.4746920000000 1.0
C      1  0.5096080000000  0.4901530000000  0.4981580000000 1.0
C      1  0.4769990000000  0.4551360000000  0.5016590000000 1.0
C      1  0.5515090000000  0.4798020000000  0.4419580000000 1.0
C      1  0.4491170000000  0.4856670000000  0.5342200000000 1.0
C      1  0.4519200000000  0.5368070000000  0.5250880000000 1.0
C      1  0.4962350000000  0.5366390000000  0.4615900000000 1.0
C      1  0.4933270000000  0.4430790000000  0.5241930000000 1.0
C      1  0.4953120000000  0.5609940000000  0.5037230000000 1.0
C      1  0.5349290000000  0.4995880000000  0.4862100000000 1.0
C      1  0.4485200000000  0.5527350000000  0.5014470000000 1.0
C      1  0.4953330000000  0.4914770000000  0.5441580000000 1.0
C      1  0.4715740000000  0.5495970000000  0.4663570000000 1.0
C      1  0.5515340000000  0.4848330000000  0.4680750000000 1.0
C      1  0.5048400000000  0.5381960000000  0.4895330000000 1.0
C      1  0.4981060000000  0.5574420000000  0.5309460000000 1.0
C      1  0.5061130000000  0.4922460000000  0.4361940000000 1.0
C      1  0.5560210000000  0.4688990000000  0.4937720000000 1.0
C      1  0.5351150000000  0.4507280000000  0.4984980000000 1.0
C      1  0.4934570000000  0.5139100000000  0.5031560000000 1.0
C      1  0.5140920000000  0.4787680000000  0.5267210000000 1.0
C      1  0.4713640000000  0.5676140000000  0.4903180000000 1.0
C      1  0.5194340000000  0.5369190000000  0.5356130000000 1.0
C      1  0.4732980000000  0.4514620000000  0.5418340000000 1.0
C      1  0.5001350000000  0.5121490000000  0.4503730000000 1.0
C      1  0.5419290000000  0.5300780000000  0.5239800000000 1.0
C      1  0.4486120000000  0.5083150000000  0.5193470000000 1.0
C      1  0.5201350000000  0.4514240000000  0.5231220000000 1.0
C      1  0.5687150000000  0.4876520000000  0.5103770000000 1.0
END
