TITL C-158482-1842-6 28.6764765475116 125000 -315.484572566475 0 0 46 (C1) n - 1
REM
REM in /rds/project/t2_vol4/rds-t2-cs072/BORA/CARBON/from-Arr/AIRSS/Generating-Clusters/GAP-ML-2020/Only-C1/SD-CG/HFTN-CG
REM
REM
REM
REM
REM
REM ./C.cell (11c1c37f851c82e70ff6c80c92926a4b)
REM AIRSS Version 0.9.1 bugfix July 2018 build 013d7b7c2542+ Fri, 06 Jul 2018 19:26:36 +0100
REM compiler GCC version 9.3.0
REM options -cpp -mtune=generic -march=x86-64 -g -O0
REM seed -121921655 1479271635 353875219 -384683089 2064282294 1314231345 457584524 132561104 -2131493358 1429839202 -832201623 1594957807 1264485536 1967547665 2087760908 1212256697 -1582287145 250422803 1276709373 1602113948 341150558 1152311716 -1294065242 -1003125738 1626704372 -306838122 -254955623 -681467148 729686070 1576809933 -286624266 645832227 831291638
REM
CELL 1.54180   50.00000   50.00000   50.00000   90.00000   90.00000   90.00000
LATT -1
SFAC C  
C      1  0.4716600000000  0.5253680000000  0.5482160000000 1.0
C      1  0.4958110000000  0.4888870000000  0.5272780000000 1.0
C      1  0.5110700000000  0.5128330000000  0.5158990000000 1.0
C      1  0.4681800000000  0.4985730000000  0.5393500000000 1.0
C      1  0.4967260000000  0.4532940000000  0.5557850000000 1.0
C      1  0.5193900000000  0.4544970000000  0.4627350000000 1.0
C      1  0.5172070000000  0.5471250000000  0.4632000000000 1.0
C      1  0.5093470000000  0.5618270000000  0.4852140000000 1.0
C      1  0.5403490000000  0.4576200000000  0.4440300000000 1.0
C      1  0.5164130000000  0.5289030000000  0.5745930000000 1.0
C      1  0.5410520000000  0.4763920000000  0.5292780000000 1.0
C      1  0.4913400000000  0.4616610000000  0.4577040000000 1.0
C      1  0.5494820000000  0.5229590000000  0.5136890000000 1.0
C      1  0.4619870000000  0.5399910000000  0.5234950000000 1.0
C      1  0.4814130000000  0.4418640000000  0.5011930000000 1.0
C      1  0.5316770000000  0.5238460000000  0.5522210000000 1.0
C      1  0.4892300000000  0.4877510000000  0.4982330000000 1.0
C      1  0.5477610000000  0.5036460000000  0.5365770000000 1.0
C      1  0.5103530000000  0.5594320000000  0.5139620000000 1.0
C      1  0.4638530000000  0.4527750000000  0.5205590000000 1.0
C      1  0.5467540000000  0.4692070000000  0.5018750000000 1.0
C      1  0.4999790000000  0.5087440000000  0.4423630000000 1.0
C      1  0.5549450000000  0.4880110000000  0.4820090000000 1.0
C      1  0.4822140000000  0.4879440000000  0.4497710000000 1.0
C      1  0.4798280000000  0.5583230000000  0.5127480000000 1.0
C      1  0.4468980000000  0.4968640000000  0.5197470000000 1.0
C      1  0.4464190000000  0.4714910000000  0.5077330000000 1.0
C      1  0.5084200000000  0.4454630000000  0.5093820000000 1.0
C      1  0.4705250000000  0.5413640000000  0.4663920000000 1.0
C      1  0.5429440000000  0.4824660000000  0.4551960000000 1.0
C      1  0.4990540000000  0.5131630000000  0.4909230000000 1.0
C      1  0.4801440000000  0.5605870000000  0.4846960000000 1.0
C      1  0.5131620000000  0.4644210000000  0.5343470000000 1.0
C      1  0.5528440000000  0.5160850000000  0.4866620000000 1.0
C      1  0.5377900000000  0.5273030000000  0.4642770000000 1.0
C      1  0.4517180000000  0.4707210000000  0.4801330000000 1.0
C      1  0.4578310000000  0.4941450000000  0.4648210000000 1.0
C      1  0.4934450000000  0.5353130000000  0.4502070000000 1.0
C      1  0.4538580000000  0.5200790000000  0.4765030000000 1.0
C      1  0.4916200000000  0.5305480000000  0.5655880000000 1.0
C      1  0.4721620000000  0.4501780000000  0.5467300000000 1.0
C      1  0.5271760000000  0.4509760000000  0.4906630000000 1.0
C      1  0.5287080000000  0.5062870000000  0.4475730000000 1.0
C      1  0.4479730000000  0.5212750000000  0.5050810000000 1.0
C      1  0.5265330000000  0.5387030000000  0.5254030000000 1.0
C      1  0.4727510000000  0.4510950000000  0.4759670000000 1.0
END
