TITL C-151877-9546-5 0.0535479774867029 125000 -663.328385376059 0 0 96 (C1) n - 1
REM
REM in /rds/project/t2_vol4/rds-t2-cs072/BORA/CARBON/from-Arr/AIRSS/Generating-Clusters/GAP-ML-2020/Only-C1/SD-CG/HFTN-CG
REM
REM
REM
REM
REM
REM ./C.cell (11c1c37f851c82e70ff6c80c92926a4b)
REM AIRSS Version 0.9.1 bugfix July 2018 build 013d7b7c2542+ Fri, 06 Jul 2018 19:26:36 +0100
REM compiler GCC version 9.3.0
REM options -cpp -mtune=generic -march=x86-64 -g -O0
REM seed -968101390 -103275476 -153934696 -504186657 1241219035 -668524295 2025276760 154885431 957301052 223154051 1687056297 677719012 -1936611602 -1393620270 1923237090 1656164505 -1957813718 1299917981 -1517200272 -1013702525 -690343841 1623604320 2094151998 -2127620305 1336240584 1101207983 -583952214 -616510777 -643112948 -744948980 -891541485 -53092774 1007856966
REM
CELL 1.54180   50.00000   50.00000   50.00000   90.00000   90.00000   90.00000
LATT -1
SFAC C  
C      1  0.4252880000000  0.4667650000000  0.5085650000000 1.0
C      1  0.5891340000000  0.5059380000000  0.4925300000000 1.0
C      1  0.4891950000000  0.4859140000000  0.4961280000000 1.0
C      1  0.5059400000000  0.5172340000000  0.5298900000000 1.0
C      1  0.5025030000000  0.5118570000000  0.5858170000000 1.0
C      1  0.5257970000000  0.5814680000000  0.4721270000000 1.0
C      1  0.4193020000000  0.5228250000000  0.5093600000000 1.0
C      1  0.4648630000000  0.5204210000000  0.5211960000000 1.0
C      1  0.5328890000000  0.4171450000000  0.5044670000000 1.0
C      1  0.5530230000000  0.4587470000000  0.5065900000000 1.0
C      1  0.4911870000000  0.5939540000000  0.5055210000000 1.0
C      1  0.4525990000000  0.4824400000000  0.4441070000000 1.0
C      1  0.4295190000000  0.5429260000000  0.4609250000000 1.0
C      1  0.5576130000000  0.5495300000000  0.4893990000000 1.0
C      1  0.5010230000000  0.5941110000000  0.4791770000000 1.0
C      1  0.4341330000000  0.4674080000000  0.5524150000000 1.0
C      1  0.4632020000000  0.4984410000000  0.5033770000000 1.0
C      1  0.4640070000000  0.4375520000000  0.5245340000000 1.0
C      1  0.4936500000000  0.5458470000000  0.4855900000000 1.0
C      1  0.5156160000000  0.4554680000000  0.4713860000000 1.0
C      1  0.5035390000000  0.4933720000000  0.4192750000000 1.0
C      1  0.5090650000000  0.5852040000000  0.5273430000000 1.0
C      1  0.4461860000000  0.5525980000000  0.5469500000000 1.0
C      1  0.5109020000000  0.5285100000000  0.4710200000000 1.0
C      1  0.4804020000000  0.5130370000000  0.5471830000000 1.0
C      1  0.5406380000000  0.4236110000000  0.5340670000000 1.0
C      1  0.5605230000000  0.4939220000000  0.5301080000000 1.0
C      1  0.4830760000000  0.5313450000000  0.5720100000000 1.0
C      1  0.4916070000000  0.4674210000000  0.4271400000000 1.0
C      1  0.5312480000000  0.4854240000000  0.4189100000000 1.0
C      1  0.5691180000000  0.4854240000000  0.4456020000000 1.0
C      1  0.5273250000000  0.5123750000000  0.5726680000000 1.0
C      1  0.5254060000000  0.4212100000000  0.5565730000000 1.0
C      1  0.5557420000000  0.4739660000000  0.5506720000000 1.0
C      1  0.5015720000000  0.5516970000000  0.5618290000000 1.0
C      1  0.4947610000000  0.4848010000000  0.5834800000000 1.0
C      1  0.5234840000000  0.4842050000000  0.4670810000000 1.0
C      1  0.5589740000000  0.4584650000000  0.4433610000000 1.0
C      1  0.4900430000000  0.5812720000000  0.4552900000000 1.0
C      1  0.4653120000000  0.5876550000000  0.5154180000000 1.0
C      1  0.5745010000000  0.4891250000000  0.4751540000000 1.0
C      1  0.5248210000000  0.5344090000000  0.5506450000000 1.0
C      1  0.5153170000000  0.5681740000000  0.4475320000000 1.0
C      1  0.4890810000000  0.5339550000000  0.5103280000000 1.0
C      1  0.4514450000000  0.4820840000000  0.5691510000000 1.0
C      1  0.4531850000000  0.5328430000000  0.5682190000000 1.0
C      1  0.4860930000000  0.4438050000000  0.5421400000000 1.0
C      1  0.4547090000000  0.5485660000000  0.4493610000000 1.0
C      1  0.5066720000000  0.4401310000000  0.5628150000000 1.0
C      1  0.4212720000000  0.4933260000000  0.5475960000000 1.0
C      1  0.4171380000000  0.4942610000000  0.5189530000000 1.0
C      1  0.5352400000000  0.4578290000000  0.4283220000000 1.0
C      1  0.4722570000000  0.4349320000000  0.4955780000000 1.0
C      1  0.4901180000000  0.4256790000000  0.4525050000000 1.0
C      1  0.4646530000000  0.4372290000000  0.4505490000000 1.0
C      1  0.4277550000000  0.5262950000000  0.4819190000000 1.0
C      1  0.4386800000000  0.5369370000000  0.5240550000000 1.0
C      1  0.5093620000000  0.4890100000000  0.5191450000000 1.0
C      1  0.4903360000000  0.4586750000000  0.4861270000000 1.0
C      1  0.5110120000000  0.4042090000000  0.4944100000000 1.0
C      1  0.4392290000000  0.4521690000000  0.5292190000000 1.0
C      1  0.5097750000000  0.4476360000000  0.4407090000000 1.0
C      1  0.5773970000000  0.5132820000000  0.5167370000000 1.0
C      1  0.5393370000000  0.5249690000000  0.4788660000000 1.0
C      1  0.5397150000000  0.4857320000000  0.5101060000000 1.0
C      1  0.5517000000000  0.5027060000000  0.4303120000000 1.0
C      1  0.5543090000000  0.4494050000000  0.5341920000000 1.0
C      1  0.5461150000000  0.5289820000000  0.4387700000000 1.0
C      1  0.4312350000000  0.4585830000000  0.4817600000000 1.0
C      1  0.5626370000000  0.4447690000000  0.4671890000000 1.0
C      1  0.4376780000000  0.5078210000000  0.5668970000000 1.0
C      1  0.4711930000000  0.5273620000000  0.4375650000000 1.0
C      1  0.5390260000000  0.4399480000000  0.4855530000000 1.0
C      1  0.5422030000000  0.5731220000000  0.4933760000000 1.0
C      1  0.5639060000000  0.5386690000000  0.5159710000000 1.0
C      1  0.4937170000000  0.4708120000000  0.5383230000000 1.0
C      1  0.4926840000000  0.5736680000000  0.5480430000000 1.0
C      1  0.5746980000000  0.4618020000000  0.4862680000000 1.0
C      1  0.5173040000000  0.5387490000000  0.4389740000000 1.0
C      1  0.5596100000000  0.5375070000000  0.4621740000000 1.0
C      1  0.4344780000000  0.4810080000000  0.4656460000000 1.0
C      1  0.4991020000000  0.5006000000000  0.4705490000000 1.0
C      1  0.5154380000000  0.4661800000000  0.5780410000000 1.0
C      1  0.4688250000000  0.5047860000000  0.4550050000000 1.0
C      1  0.4508970000000  0.4388240000000  0.4759190000000 1.0
C      1  0.4783780000000  0.4856240000000  0.5586570000000 1.0
C      1  0.5338090000000  0.5734760000000  0.5208750000000 1.0
C      1  0.5437330000000  0.4970260000000  0.4833730000000 1.0
C      1  0.4636660000000  0.5741400000000  0.5399180000000 1.0
C      1  0.4478670000000  0.5049930000000  0.4786440000000 1.0
C      1  0.4647130000000  0.4599880000000  0.4337250000000 1.0
C      1  0.4966080000000  0.5222220000000  0.4248960000000 1.0
C      1  0.5372220000000  0.4837710000000  0.5702890000000 1.0
C      1  0.5444700000000  0.5499580000000  0.5340650000000 1.0
C      1  0.4733730000000  0.5617970000000  0.4655200000000 1.0
C      1  0.4909040000000  0.4149390000000  0.4802910000000 1.0
END
