TITL C-166699-7415-7 7.58702991443323 125000 -164.314850116535 0 0 26 (C1) n - 1
REM
REM in /rds/project/t2_vol4/rds-t2-cs072/BORA/CARBON/from-Arr/AIRSS/Generating-Clusters/GAP-ML-2020/Only-C1/SD-CG/HFTN-CG
REM
REM
REM
REM
REM
REM ./C.cell (11c1c37f851c82e70ff6c80c92926a4b)
REM AIRSS Version 0.9.1 bugfix July 2018 build 013d7b7c2542+ Fri, 06 Jul 2018 19:26:36 +0100
REM compiler GCC version 9.3.0
REM options -cpp -mtune=generic -march=x86-64 -g -O0
REM seed -177109426 -628665794 -278034408 -135639113 -914384180 393559763 -619529682 -287221654 -1415368128 1136914004 -865917305 1688107422 -1539488929 602817172 411914432 -1454363017 920384390 1705255207 -1087163577 -1658050225 -1277578737 1038452608 2039889157 -1637528347 -561043974 -629902861 752032921 -1366348164 409139164 -1177091579 -2123707244 99188902 -77297688
REM
CELL 1.54180   50.00000   50.00000   50.00000   90.00000   90.00000   90.00000
LATT -1
SFAC C  
C      1  0.4884930000000  0.5681280000000  0.4968100000000 1.0
C      1  0.4392060000000  0.5059670000000  0.4893920000000 1.0
C      1  0.5296410000000  0.5393730000000  0.5320680000000 1.0
C      1  0.5252980000000  0.4337030000000  0.4881380000000 1.0
C      1  0.5130770000000  0.4853960000000  0.4403180000000 1.0
C      1  0.5369400000000  0.4196430000000  0.4682480000000 1.0
C      1  0.4725420000000  0.5552890000000  0.5442210000000 1.0
C      1  0.5331790000000  0.4366520000000  0.4492460000000 1.0
C      1  0.4661720000000  0.4694240000000  0.5138300000000 1.0
C      1  0.5143630000000  0.5309490000000  0.5100910000000 1.0
C      1  0.5031910000000  0.5444590000000  0.4878170000000 1.0
C      1  0.4899330000000  0.5334920000000  0.5514570000000 1.0
C      1  0.4978270000000  0.4716500000000  0.5082980000000 1.0
C      1  0.4604600000000  0.4898500000000  0.4928850000000 1.0
C      1  0.5227140000000  0.4775580000000  0.4164790000000 1.0
C      1  0.4800840000000  0.5621200000000  0.5204420000000 1.0
C      1  0.5136560000000  0.4482310000000  0.5049970000000 1.0
C      1  0.5012850000000  0.4900480000000  0.5312740000000 1.0
C      1  0.5262950000000  0.4586390000000  0.4368440000000 1.0
C      1  0.4957410000000  0.5170450000000  0.5258900000000 1.0
C      1  0.5029350000000  0.5284800000000  0.4657830000000 1.0
C      1  0.4851960000000  0.5101160000000  0.5694920000000 1.0
C      1  0.4945540000000  0.4891290000000  0.5580210000000 1.0
C      1  0.4888060000000  0.4873330000000  0.4830890000000 1.0
C      1  0.5023480000000  0.5009980000000  0.4616110000000 1.0
C      1  0.5160610000000  0.5463290000000  0.5532580000000 1.0
END
