TITL C-160264-1682-7 104.882432144383 125000 -550.877558668515 0 0 78 (C1) n - 1
REM
REM in /rds/project/t2_vol4/rds-t2-cs072/BORA/CARBON/from-Arr/AIRSS/Generating-Clusters/GAP-ML-2020/Only-C1/SD-CG/HFTN-CG
REM
REM
REM
REM
REM
REM ./C.cell (11c1c37f851c82e70ff6c80c92926a4b)
REM AIRSS Version 0.9.1 bugfix July 2018 build 013d7b7c2542+ Fri, 06 Jul 2018 19:26:36 +0100
REM compiler GCC version 9.3.0
REM options -cpp -mtune=generic -march=x86-64 -g -O0
REM seed 1177868209 1321016137 948919076 1172075258 342843940 -1305643303 948967786 739623054 2022883373 1057078530 1262094409 86553451 -1521448159 1350215155 -750988072 -822464297 -199144386 -1595042030 1323502080 514303305 1470069830 261339514 1898422360 -1285422163 -291814181 -978351551 1880282975 1053774595 1126829337 -742947372 235458124 -300734713 7953942
REM
CELL 1.54180   50.00000   50.00000   50.00000   90.00000   90.00000   90.00000
LATT -1
SFAC C  
C      1  0.5074980000000  0.5849060000000  0.5056470000000 1.0
C      1  0.5401790000000  0.5635780000000  0.5008290000000 1.0
C      1  0.4214900000000  0.4862760000000  0.4814390000000 1.0
C      1  0.5438420000000  0.5169500000000  0.4849380000000 1.0
C      1  0.5146030000000  0.4889470000000  0.4668010000000 1.0
C      1  0.4436160000000  0.5024460000000  0.4469980000000 1.0
C      1  0.4976420000000  0.4454670000000  0.4983810000000 1.0
C      1  0.4956600000000  0.5249820000000  0.4869090000000 1.0
C      1  0.5204370000000  0.4837780000000  0.5142650000000 1.0
C      1  0.5442830000000  0.4435330000000  0.5108510000000 1.0
C      1  0.5140320000000  0.5405180000000  0.4456900000000 1.0
C      1  0.4447630000000  0.4810840000000  0.5525910000000 1.0
C      1  0.5592970000000  0.4463240000000  0.4631590000000 1.0
C      1  0.4317810000000  0.5329810000000  0.4849130000000 1.0
C      1  0.4207530000000  0.5089570000000  0.4963430000000 1.0
C      1  0.4971320000000  0.5120240000000  0.5720350000000 1.0
C      1  0.5265850000000  0.5746040000000  0.5242590000000 1.0
C      1  0.5689820000000  0.5062650000000  0.5304060000000 1.0
C      1  0.5478390000000  0.4477890000000  0.4383020000000 1.0
C      1  0.4296810000000  0.4724720000000  0.5287050000000 1.0
C      1  0.5410450000000  0.4365550000000  0.4833780000000 1.0
C      1  0.5588430000000  0.4820990000000  0.5422010000000 1.0
C      1  0.4754870000000  0.5644980000000  0.4630730000000 1.0
C      1  0.4802060000000  0.5339110000000  0.5632960000000 1.0
C      1  0.5541590000000  0.5298020000000  0.5324210000000 1.0
C      1  0.5815500000000  0.5008320000000  0.5055390000000 1.0
C      1  0.4592860000000  0.4370380000000  0.5279460000000 1.0
C      1  0.4782700000000  0.5273510000000  0.4305180000000 1.0
C      1  0.4804670000000  0.5810700000000  0.5092720000000 1.0
C      1  0.4672440000000  0.4693410000000  0.5640300000000 1.0
C      1  0.5641860000000  0.4611740000000  0.5213820000000 1.0
C      1  0.5862070000000  0.5134680000000  0.4563500000000 1.0
C      1  0.5034590000000  0.5331950000000  0.4214840000000 1.0
C      1  0.4378880000000  0.4504830000000  0.5133700000000 1.0
C      1  0.4921370000000  0.5578140000000  0.5530130000000 1.0
C      1  0.5368830000000  0.4872050000000  0.5607110000000 1.0
C      1  0.4832670000000  0.4779010000000  0.4325460000000 1.0
C      1  0.4417090000000  0.5288610000000  0.4586430000000 1.0
C      1  0.5842210000000  0.4878450000000  0.4573520000000 1.0
C      1  0.5361700000000  0.5365840000000  0.5535230000000 1.0
C      1  0.5803940000000  0.4725100000000  0.5011170000000 1.0
C      1  0.5113620000000  0.4461800000000  0.5493570000000 1.0
C      1  0.4804370000000  0.5006250000000  0.4971360000000 1.0
C      1  0.4500500000000  0.4429990000000  0.4873280000000 1.0
C      1  0.4737040000000  0.5693450000000  0.5341410000000 1.0
C      1  0.4512110000000  0.4541830000000  0.4615330000000 1.0
C      1  0.5048240000000  0.5644360000000  0.4603510000000 1.0
C      1  0.5215370000000  0.4522660000000  0.4349290000000 1.0
C      1  0.4516730000000  0.5523210000000  0.5296370000000 1.0
C      1  0.5012640000000  0.4393010000000  0.4513740000000 1.0
C      1  0.5182830000000  0.5195980000000  0.4671470000000 1.0
C      1  0.5404880000000  0.5353470000000  0.5069730000000 1.0
C      1  0.4895850000000  0.4774720000000  0.4832530000000 1.0
C      1  0.5128820000000  0.4341460000000  0.4767790000000 1.0
C      1  0.5093250000000  0.5291130000000  0.5118760000000 1.0
C      1  0.5258760000000  0.5139790000000  0.5666830000000 1.0
C      1  0.4380620000000  0.5088860000000  0.5470050000000 1.0
C      1  0.4722990000000  0.4325270000000  0.5030010000000 1.0
C      1  0.4230950000000  0.5001940000000  0.5230600000000 1.0
C      1  0.4445710000000  0.5531830000000  0.5007190000000 1.0
C      1  0.4714620000000  0.4427690000000  0.5525840000000 1.0
C      1  0.5735760000000  0.5165840000000  0.4812120000000 1.0
C      1  0.4625290000000  0.5445640000000  0.4478550000000 1.0
C      1  0.4936190000000  0.4273670000000  0.5590390000000 1.0
C      1  0.5201170000000  0.5597270000000  0.5474950000000 1.0
C      1  0.4351710000000  0.4785830000000  0.4596280000000 1.0
C      1  0.5152060000000  0.4697480000000  0.5655580000000 1.0
C      1  0.5345630000000  0.4881780000000  0.4894190000000 1.0
C      1  0.4639280000000  0.5701870000000  0.4884280000000 1.0
C      1  0.5001460000000  0.5027540000000  0.5190830000000 1.0
C      1  0.5113150000000  0.4791550000000  0.4373370000000 1.0
C      1  0.5177030000000  0.4518160000000  0.5204520000000 1.0
C      1  0.4539030000000  0.5319370000000  0.5502270000000 1.0
C      1  0.5787720000000  0.4653710000000  0.4730720000000 1.0
C      1  0.4669870000000  0.5009480000000  0.4311490000000 1.0
C      1  0.5200870000000  0.5736870000000  0.4818480000000 1.0
C      1  0.4760690000000  0.4534830000000  0.4469400000000 1.0
C      1  0.4911480000000  0.4836260000000  0.5717630000000 1.0
END
