TITL C-167825-8068-3 82.6317542427143 125000 -814.273922098203 0 0 115 (C1) n - 1
REM
REM in /rds/project/t2_vol4/rds-t2-cs072/BORA/CARBON/from-Arr/AIRSS/Generating-Clusters/GAP-ML-2020/Only-C1/SD-CG/HFTN-CG
REM
REM
REM
REM
REM
REM ./C.cell (11c1c37f851c82e70ff6c80c92926a4b)
REM AIRSS Version 0.9.1 bugfix July 2018 build 013d7b7c2542+ Fri, 06 Jul 2018 19:26:36 +0100
REM compiler GCC version 9.3.0
REM options -cpp -mtune=generic -march=x86-64 -g -O0
REM seed 505611638 949658982 -295681192 1642901826 -42404293 -648942161 884693214 -2145653243 -98617215 -1597706480 -1162984855 -1338301825 647216009 -865643669 -1777955450 1594314702 -2094790553 787579981 -1574722652 -2087136422 622656212 -771136987 -1474661416 286893005 -1380799122 1141960881 -2080796084 1864646508 231739564 -1139304607 736235901 -2097209746 -458529266
REM
CELL 1.54180   50.00000   50.00000   50.00000   90.00000   90.00000   90.00000
LATT -1
SFAC C  
C      1  0.5064500000000  0.4069220000000  0.4984160000000 1.0
C      1  0.4243120000000  0.5438080000000  0.5419840000000 1.0
C      1  0.4089030000000  0.5379660000000  0.4952100000000 1.0
C      1  0.4616050000000  0.5099420000000  0.4393280000000 1.0
C      1  0.5168460000000  0.5015960000000  0.5131660000000 1.0
C      1  0.5206170000000  0.4518740000000  0.5371910000000 1.0
C      1  0.4638380000000  0.4585630000000  0.4345880000000 1.0
C      1  0.4561790000000  0.4502240000000  0.4843280000000 1.0
C      1  0.5826450000000  0.4958540000000  0.4819400000000 1.0
C      1  0.4851700000000  0.4387740000000  0.4348870000000 1.0
C      1  0.4307500000000  0.5471680000000  0.4475950000000 1.0
C      1  0.4696530000000  0.5055510000000  0.5177010000000 1.0
C      1  0.4152970000000  0.4971090000000  0.5219320000000 1.0
C      1  0.5305790000000  0.5581160000000  0.4575320000000 1.0
C      1  0.4643700000000  0.5956990000000  0.4861320000000 1.0
C      1  0.5116010000000  0.4450760000000  0.4236780000000 1.0
C      1  0.5642820000000  0.5261560000000  0.5296790000000 1.0
C      1  0.5373740000000  0.4916600000000  0.5521610000000 1.0
C      1  0.4455620000000  0.4570640000000  0.4566320000000 1.0
C      1  0.5689450000000  0.4671970000000  0.5668030000000 1.0
C      1  0.5703120000000  0.5438340000000  0.4782960000000 1.0
C      1  0.5689050000000  0.4575510000000  0.5394740000000 1.0
C      1  0.4316580000000  0.5212160000000  0.4370570000000 1.0
C      1  0.4832080000000  0.4690370000000  0.4909370000000 1.0
C      1  0.5791610000000  0.5023300000000  0.4535400000000 1.0
C      1  0.4089590000000  0.5095060000000  0.4965180000000 1.0
C      1  0.4956710000000  0.4898130000000  0.4132300000000 1.0
C      1  0.4152260000000  0.5555150000000  0.5179040000000 1.0
C      1  0.5792470000000  0.5036140000000  0.5412040000000 1.0
C      1  0.5717960000000  0.4283200000000  0.4975510000000 1.0
C      1  0.5066960000000  0.4704290000000  0.4730710000000 1.0
C      1  0.4450040000000  0.4533200000000  0.5379750000000 1.0
C      1  0.5181580000000  0.4721670000000  0.4150930000000 1.0
C      1  0.4604280000000  0.4243610000000  0.4976400000000 1.0
C      1  0.5648340000000  0.4958050000000  0.5658370000000 1.0
C      1  0.4598150000000  0.4606370000000  0.5618000000000 1.0
C      1  0.5140130000000  0.5382040000000  0.5396190000000 1.0
C      1  0.5704830000000  0.5251830000000  0.5005700000000 1.0
C      1  0.4832870000000  0.4435460000000  0.5625240000000 1.0
C      1  0.5208660000000  0.4780470000000  0.5740610000000 1.0
C      1  0.4945230000000  0.5914450000000  0.5196470000000 1.0
C      1  0.5158040000000  0.4099980000000  0.4535850000000 1.0
C      1  0.5118470000000  0.4978130000000  0.4657820000000 1.0
C      1  0.5422170000000  0.5407300000000  0.5717200000000 1.0
C      1  0.4229420000000  0.4700840000000  0.4696700000000 1.0
C      1  0.4826910000000  0.4239550000000  0.5409160000000 1.0
C      1  0.4468620000000  0.5864710000000  0.4659990000000 1.0
C      1  0.5381880000000  0.4820160000000  0.5049010000000 1.0
C      1  0.4537840000000  0.5646410000000  0.4486370000000 1.0
C      1  0.4566930000000  0.4873390000000  0.5730510000000 1.0
C      1  0.5910720000000  0.4487820000000  0.4877080000000 1.0
C      1  0.4196220000000  0.5150140000000  0.5442450000000 1.0
C      1  0.4138140000000  0.5536020000000  0.4705980000000 1.0
C      1  0.4807610000000  0.5552290000000  0.4473730000000 1.0
C      1  0.5313900000000  0.5151650000000  0.5341530000000 1.0
C      1  0.4915650000000  0.5439550000000  0.5188250000000 1.0
C      1  0.4821610000000  0.4121990000000  0.4839080000000 1.0
C      1  0.4356550000000  0.5063740000000  0.5658840000000 1.0
C      1  0.5423270000000  0.4704010000000  0.5323770000000 1.0
C      1  0.5418820000000  0.5327380000000  0.4450330000000 1.0
C      1  0.5698540000000  0.5298330000000  0.4535180000000 1.0
C      1  0.4245460000000  0.5809690000000  0.5069400000000 1.0
C      1  0.5037710000000  0.5169200000000  0.4186580000000 1.0
C      1  0.4939990000000  0.4657510000000  0.5195720000000 1.0
C      1  0.5092920000000  0.4546250000000  0.5647170000000 1.0
C      1  0.5329490000000  0.4265260000000  0.5308100000000 1.0
C      1  0.4517010000000  0.5292380000000  0.5749900000000 1.0
C      1  0.5061810000000  0.5450600000000  0.4931730000000 1.0
C      1  0.4914450000000  0.5884250000000  0.4886810000000 1.0
C      1  0.4934980000000  0.4922760000000  0.5286480000000 1.0
C      1  0.4746530000000  0.5000870000000  0.4894340000000 1.0
C      1  0.5417470000000  0.4893130000000  0.4215190000000 1.0
C      1  0.5331510000000  0.5625230000000  0.5314690000000 1.0
C      1  0.4590710000000  0.4294800000000  0.5261460000000 1.0
C      1  0.4098920000000  0.4955210000000  0.4700190000000 1.0
C      1  0.5293700000000  0.4629560000000  0.4853300000000 1.0
C      1  0.5076900000000  0.4144560000000  0.5261040000000 1.0
C      1  0.4302770000000  0.4612280000000  0.4954350000000 1.0
C      1  0.4828510000000  0.5306230000000  0.4322980000000 1.0
C      1  0.4581160000000  0.5085680000000  0.4693360000000 1.0
C      1  0.5662650000000  0.4818840000000  0.4363110000000 1.0
C      1  0.5546560000000  0.5497920000000  0.5472320000000 1.0
C      1  0.4679180000000  0.5908640000000  0.5325500000000 1.0
C      1  0.5321730000000  0.5595680000000  0.5024950000000 1.0
C      1  0.4958070000000  0.5700990000000  0.5621130000000 1.0
C      1  0.5046990000000  0.5142840000000  0.4883350000000 1.0
C      1  0.5012050000000  0.5634770000000  0.4683380000000 1.0
C      1  0.5927820000000  0.4751880000000  0.4996180000000 1.0
C      1  0.4268600000000  0.4698650000000  0.5216290000000 1.0
C      1  0.4100340000000  0.5062600000000  0.4449980000000 1.0
C      1  0.4218360000000  0.5799320000000  0.4787100000000 1.0
C      1  0.5558170000000  0.4310940000000  0.4492620000000 1.0
C      1  0.4704880000000  0.4847620000000  0.4247820000000 1.0
C      1  0.5736850000000  0.4541210000000  0.4446650000000 1.0
C      1  0.5284240000000  0.4061630000000  0.4785780000000 1.0
C      1  0.4463380000000  0.5530180000000  0.5601260000000 1.0
C      1  0.5549310000000  0.4181580000000  0.4759570000000 1.0
C      1  0.5320030000000  0.5169090000000  0.4220240000000 1.0
C      1  0.4887530000000  0.4176350000000  0.4553910000000 1.0
C      1  0.4729180000000  0.5113100000000  0.5832160000000 1.0
C      1  0.4673260000000  0.5319400000000  0.5200540000000 1.0
C      1  0.5001260000000  0.5202600000000  0.5848940000000 1.0
C      1  0.5608190000000  0.4315410000000  0.5240760000000 1.0
C      1  0.5363350000000  0.5102080000000  0.4683070000000 1.0
C      1  0.5484860000000  0.5613810000000  0.4795410000000 1.0
C      1  0.5213910000000  0.5022170000000  0.5886020000000 1.0
C      1  0.5305800000000  0.4265960000000  0.4360680000000 1.0
C      1  0.5121610000000  0.5815540000000  0.5397690000000 1.0
C      1  0.4674280000000  0.5738000000000  0.5564450000000 1.0
C      1  0.5103990000000  0.5440080000000  0.5694720000000 1.0
C      1  0.5476240000000  0.5149610000000  0.5815720000000 1.0
C      1  0.5545930000000  0.5022610000000  0.4896740000000 1.0
C      1  0.5868240000000  0.4793320000000  0.5273210000000 1.0
C      1  0.5962370000000  0.4497690000000  0.4602700000000 1.0
C      1  0.4495140000000  0.5947050000000  0.5120090000000 1.0
END
