TITL C-167833-8309-1 0.0089886866238031 125000 -110.115022715144 0 0 17 (C1) n - 1
REM
REM in /rds/project/t2_vol4/rds-t2-cs072/BORA/CARBON/from-Arr/AIRSS/Generating-Clusters/GAP-ML-2020/Only-C1/SD-CG/HFTN-CG
REM
REM
REM
REM
REM
REM ./C.cell (11c1c37f851c82e70ff6c80c92926a4b)
REM AIRSS Version 0.9.1 bugfix July 2018 build 013d7b7c2542+ Fri, 06 Jul 2018 19:26:36 +0100
REM compiler GCC version 9.3.0
REM options -cpp -mtune=generic -march=x86-64 -g -O0
REM seed 2964047 -1149773763 -154155378 1022124102 1300711977 787877181 1745874762 -1499857713 -1190950996 -1382747471 1815471692 -13810146 -247802512 -424218090 1295200967 1572466199 -464201395 1490550828 203838150 1930352971 1398906521 1059347996 1281065335 -640885865 1556143962 289403605 -233718459 640864539 -522040781 -1944586007 1084544524 -400039764 -1777094746
REM
CELL 1.54180   50.00000   50.00000   50.00000   90.00000   90.00000   90.00000
LATT -1
SFAC C  
C      1  0.5041300000000  0.5481810000000  0.5450420000000 1.0
C      1  0.5119330000000  0.4635340000000  0.4816080000000 1.0
C      1  0.4935420000000  0.4822660000000  0.4923520000000 1.0
C      1  0.5445470000000  0.5373310000000  0.4912130000000 1.0
C      1  0.5166450000000  0.4922160000000  0.4804580000000 1.0
C      1  0.5089540000000  0.4385970000000  0.4644550000000 1.0
C      1  0.4466900000000  0.4643500000000  0.4872830000000 1.0
C      1  0.5438820000000  0.5347470000000  0.4637970000000 1.0
C      1  0.5382990000000  0.5503210000000  0.5134390000000 1.0
C      1  0.5247250000000  0.4369990000000  0.4852520000000 1.0
C      1  0.5333320000000  0.5139180000000  0.4764510000000 1.0
C      1  0.4671730000000  0.5152090000000  0.5383830000000 1.0
C      1  0.4275920000000  0.4525670000000  0.4762820000000 1.0
C      1  0.4634880000000  0.4972560000000  0.5211990000000 1.0
C      1  0.4650660000000  0.4804770000000  0.4996840000000 1.0
C      1  0.4832060000000  0.5341600000000  0.5477740000000 1.0
C      1  0.5267970000000  0.5578710000000  0.5353280000000 1.0
END
