TITL C-166691-7361-9 7.22244696062352 125000 -818.55541152617 0 0 117 (C1) n - 1
REM
REM in /rds/project/t2_vol4/rds-t2-cs072/BORA/CARBON/from-Arr/AIRSS/Generating-Clusters/GAP-ML-2020/Only-C1/SD-CG/HFTN-CG
REM
REM
REM
REM
REM
REM ./C.cell (11c1c37f851c82e70ff6c80c92926a4b)
REM AIRSS Version 0.9.1 bugfix July 2018 build 013d7b7c2542+ Fri, 06 Jul 2018 19:26:36 +0100
REM compiler GCC version 9.3.0
REM options -cpp -mtune=generic -march=x86-64 -g -O0
REM seed 652497610 818615112 103424755 587026960 488483331 267598430 -1518092639 -912647454 455034688 -259713175 -342249617 -1983048418 1759657956 1499872353 -727564512 -1296223950 -1343369479 1391157465 -353239848 1582304559 -1019163669 1068556091 169262602 263979175 1887112363 -2062594985 198175218 -1661953078 -601643504 -1566619082 1099782954 -1631670563 78390852
REM
CELL 1.54180   50.00000   50.00000   50.00000   90.00000   90.00000   90.00000
LATT -1
SFAC C  
C      1  0.5274420000000  0.5348390000000  0.5826430000000 1.0
C      1  0.5274920000000  0.4173120000000  0.4881740000000 1.0
C      1  0.5233730000000  0.4625690000000  0.5693950000000 1.0
C      1  0.4581790000000  0.5204250000000  0.5851260000000 1.0
C      1  0.4296270000000  0.4988350000000  0.4398250000000 1.0
C      1  0.5395570000000  0.5797970000000  0.4967370000000 1.0
C      1  0.4755950000000  0.5220080000000  0.4304220000000 1.0
C      1  0.4774590000000  0.5050130000000  0.4772100000000 1.0
C      1  0.4408470000000  0.4537080000000  0.4612280000000 1.0
C      1  0.5417180000000  0.4613250000000  0.4252730000000 1.0
C      1  0.4077430000000  0.4758050000000  0.4832760000000 1.0
C      1  0.5011100000000  0.5037800000000  0.5578740000000 1.0
C      1  0.4368220000000  0.5468090000000  0.4350130000000 1.0
C      1  0.5937250000000  0.5190120000000  0.4878360000000 1.0
C      1  0.5841030000000  0.5283940000000  0.5129820000000 1.0
C      1  0.4614970000000  0.4927590000000  0.5880970000000 1.0
C      1  0.4978890000000  0.4212930000000  0.5553040000000 1.0
C      1  0.4567220000000  0.4208220000000  0.4953520000000 1.0
C      1  0.5514280000000  0.5140430000000  0.5428880000000 1.0
C      1  0.4282050000000  0.4800510000000  0.4628540000000 1.0
C      1  0.4118860000000  0.5206540000000  0.5004170000000 1.0
C      1  0.4040420000000  0.4946060000000  0.5040220000000 1.0
C      1  0.5517630000000  0.4680410000000  0.5600790000000 1.0
C      1  0.4887580000000  0.5715670000000  0.4913830000000 1.0
C      1  0.5463160000000  0.5655950000000  0.4526380000000 1.0
C      1  0.5228750000000  0.4523900000000  0.5173410000000 1.0
C      1  0.5798040000000  0.5176220000000  0.4413100000000 1.0
C      1  0.5059200000000  0.4402440000000  0.5749170000000 1.0
C      1  0.4476610000000  0.4998480000000  0.4809440000000 1.0
C      1  0.5280770000000  0.5809350000000  0.4691290000000 1.0
C      1  0.5090550000000  0.4405860000000  0.4478410000000 1.0
C      1  0.5550010000000  0.4974770000000  0.5685550000000 1.0
C      1  0.5768130000000  0.4887820000000  0.4369490000000 1.0
C      1  0.4477230000000  0.4873590000000  0.5073710000000 1.0
C      1  0.4747890000000  0.5730450000000  0.4492730000000 1.0
C      1  0.4367220000000  0.4394010000000  0.4866760000000 1.0
C      1  0.4770850000000  0.4901570000000  0.5478720000000 1.0
C      1  0.4868510000000  0.5261120000000  0.4596290000000 1.0
C      1  0.4514470000000  0.4770380000000  0.5635070000000 1.0
C      1  0.5351760000000  0.5426750000000  0.4373140000000 1.0
C      1  0.4445900000000  0.5343750000000  0.5646310000000 1.0
C      1  0.4697190000000  0.4259940000000  0.5491280000000 1.0
C      1  0.4189210000000  0.4558250000000  0.5016150000000 1.0
C      1  0.4729350000000  0.5832350000000  0.5173640000000 1.0
C      1  0.4819600000000  0.5740300000000  0.5446670000000 1.0
C      1  0.5602690000000  0.5298460000000  0.4256460000000 1.0
C      1  0.4683500000000  0.4735780000000  0.4267500000000 1.0
C      1  0.5227560000000  0.4864120000000  0.4848620000000 1.0
C      1  0.4935740000000  0.4802180000000  0.4789550000000 1.0
C      1  0.4222100000000  0.4785560000000  0.5221100000000 1.0
C      1  0.5683060000000  0.4473210000000  0.5491570000000 1.0
C      1  0.5768440000000  0.4645320000000  0.4534230000000 1.0
C      1  0.4458100000000  0.5491750000000  0.4829190000000 1.0
C      1  0.5854640000000  0.4651070000000  0.4796460000000 1.0
C      1  0.4490280000000  0.5486200000000  0.5126420000000 1.0
C      1  0.4728080000000  0.5516470000000  0.4707620000000 1.0
C      1  0.4633800000000  0.5507870000000  0.4296180000000 1.0
C      1  0.5111860000000  0.5712600000000  0.5468720000000 1.0
C      1  0.5136700000000  0.4590330000000  0.4264190000000 1.0
C      1  0.4649710000000  0.5572790000000  0.5627990000000 1.0
C      1  0.5627690000000  0.4357510000000  0.5244730000000 1.0
C      1  0.4621910000000  0.4506130000000  0.4433040000000 1.0
C      1  0.5698570000000  0.5580310000000  0.4687270000000 1.0
C      1  0.4824950000000  0.4327730000000  0.4531700000000 1.0
C      1  0.4281840000000  0.4885600000000  0.5489860000000 1.0
C      1  0.4950610000000  0.4489620000000  0.5141390000000 1.0
C      1  0.5350760000000  0.4237230000000  0.5177760000000 1.0
C      1  0.5214610000000  0.5234990000000  0.4135730000000 1.0
C      1  0.4294050000000  0.5181310000000  0.5470520000000 1.0
C      1  0.5366880000000  0.4610480000000  0.4920580000000 1.0
C      1  0.4858300000000  0.5126450000000  0.5065990000000 1.0
C      1  0.4978120000000  0.5091940000000  0.4158070000000 1.0
C      1  0.5737180000000  0.5067160000000  0.5268320000000 1.0
C      1  0.4730760000000  0.4899280000000  0.5200730000000 1.0
C      1  0.5213640000000  0.5327090000000  0.4922050000000 1.0
C      1  0.5561280000000  0.4850160000000  0.4179020000000 1.0
C      1  0.4467950000000  0.5791560000000  0.5095590000000 1.0
C      1  0.5661250000000  0.4579100000000  0.5028480000000 1.0
C      1  0.5234150000000  0.5004150000000  0.5361440000000 1.0
C      1  0.5464910000000  0.5105480000000  0.4096270000000 1.0
C      1  0.5004430000000  0.5824000000000  0.4661460000000 1.0
C      1  0.4399350000000  0.5799540000000  0.4812780000000 1.0
C      1  0.4531070000000  0.5899250000000  0.4600650000000 1.0
C      1  0.4782960000000  0.4166720000000  0.4761020000000 1.0
C      1  0.4812930000000  0.4681860000000  0.5023130000000 1.0
C      1  0.5049470000000  0.5529130000000  0.5060850000000 1.0
C      1  0.5328040000000  0.4385650000000  0.4678060000000 1.0
C      1  0.4608480000000  0.4481210000000  0.5668520000000 1.0
C      1  0.5187040000000  0.5269020000000  0.4629520000000 1.0
C      1  0.5124370000000  0.4864910000000  0.5821850000000 1.0
C      1  0.4800470000000  0.5383260000000  0.5180660000000 1.0
C      1  0.5164000000000  0.5078970000000  0.5073960000000 1.0
C      1  0.4822770000000  0.4515990000000  0.5860610000000 1.0
C      1  0.5846870000000  0.5333390000000  0.4649320000000 1.0
C      1  0.5541680000000  0.4481060000000  0.4473820000000 1.0
C      1  0.4861780000000  0.4784480000000  0.5945790000000 1.0
C      1  0.5482160000000  0.5465500000000  0.5376910000000 1.0
C      1  0.4776990000000  0.5423220000000  0.5840180000000 1.0
C      1  0.5650710000000  0.5679070000000  0.4953960000000 1.0
C      1  0.5361720000000  0.5068100000000  0.5862420000000 1.0
C      1  0.4287170000000  0.5262620000000  0.4768140000000 1.0
C      1  0.5705730000000  0.5522710000000  0.5188500000000 1.0
C      1  0.4674130000000  0.4136460000000  0.5219190000000 1.0
C      1  0.4933610000000  0.4019010000000  0.5163340000000 1.0
C      1  0.4263490000000  0.5316610000000  0.5224400000000 1.0
C      1  0.5932370000000  0.4902590000000  0.4903160000000 1.0
C      1  0.5015230000000  0.4066590000000  0.4894120000000 1.0
C      1  0.5134810000000  0.4094800000000  0.5339140000000 1.0
C      1  0.4244940000000  0.5256610000000  0.4478590000000 1.0
C      1  0.5796480000000  0.4829260000000  0.5143800000000 1.0
C      1  0.5009490000000  0.5297890000000  0.5763530000000 1.0
C      1  0.4547770000000  0.4982150000000  0.4277560000000 1.0
C      1  0.5256120000000  0.5674470000000  0.5214890000000 1.0
C      1  0.5294670000000  0.4715600000000  0.5387300000000 1.0
C      1  0.5303130000000  0.5540850000000  0.5612640000000 1.0
C      1  0.5325570000000  0.5021110000000  0.4644060000000 1.0
C      1  0.4948090000000  0.4797430000000  0.4187000000000 1.0
END
