TITL C-161228-4995-8 -1.93676361649779 125000 -437.881028114917 0 0 64 (C1) n - 1
REM
REM in /rds/project/t2_vol4/rds-t2-cs072/BORA/CARBON/from-Arr/AIRSS/Generating-Clusters/GAP-ML-2020/Only-C1/SD-CG/HFTN-CG
REM
REM
REM
REM
REM
REM ./C.cell (11c1c37f851c82e70ff6c80c92926a4b)
REM AIRSS Version 0.9.1 bugfix July 2018 build 013d7b7c2542+ Fri, 06 Jul 2018 19:26:36 +0100
REM compiler GCC version 9.3.0
REM options -cpp -mtune=generic -march=x86-64 -g -O0
REM seed -420783596 879415896 -1795590268 353856616 -2138725531 1590687573 -191700047 -1834422871 1034104056 102124607 619615452 -1288136923 837539018 -36132820 1275697803 1277947092 -1485244974 1814263464 -1815525622 1497621568 1638199094 -1425065902 -449401408 1056466322 -471326591 2147223701 -1665498913 -1610301192 169096762 1510006120 1831484299 -202900093 -1524054606
REM
CELL 1.54180   50.00000   50.00000   50.00000   90.00000   90.00000   90.00000
LATT -1
SFAC C  
C      1  0.5387060000000  0.5402630000000  0.4693910000000 1.0
C      1  0.4764720000000  0.5187700000000  0.5057010000000 1.0
C      1  0.5045330000000  0.5082530000000  0.5104060000000 1.0
C      1  0.5653760000000  0.5075040000000  0.4997850000000 1.0
C      1  0.4782590000000  0.5004810000000  0.4799910000000 1.0
C      1  0.4404860000000  0.4741230000000  0.4816850000000 1.0
C      1  0.5422300000000  0.4429990000000  0.4622030000000 1.0
C      1  0.5251500000000  0.5165330000000  0.4580290000000 1.0
C      1  0.5371040000000  0.4460190000000  0.5273850000000 1.0
C      1  0.4755280000000  0.5485740000000  0.4979560000000 1.0
C      1  0.5590280000000  0.5461360000000  0.5136670000000 1.0
C      1  0.4918790000000  0.4536090000000  0.4776500000000 1.0
C      1  0.5619050000000  0.5205090000000  0.5264600000000 1.0
C      1  0.4857240000000  0.4707460000000  0.5664440000000 1.0
C      1  0.5495640000000  0.4814250000000  0.5455500000000 1.0
C      1  0.5481350000000  0.5099920000000  0.5489260000000 1.0
C      1  0.5587930000000  0.5335910000000  0.4878650000000 1.0
C      1  0.5194120000000  0.5605740000000  0.4778110000000 1.0
C      1  0.4786660000000  0.5261100000000  0.4350930000000 1.0
C      1  0.4897080000000  0.4701310000000  0.4309810000000 1.0
C      1  0.4694790000000  0.4716970000000  0.4891580000000 1.0
C      1  0.4823590000000  0.4972740000000  0.5746000000000 1.0
C      1  0.5420550000000  0.5669530000000  0.5215390000000 1.0
C      1  0.4965970000000  0.5602050000000  0.5455130000000 1.0
C      1  0.4344940000000  0.5127040000000  0.4477860000000 1.0
C      1  0.5540460000000  0.4685790000000  0.5194220000000 1.0
C      1  0.5259630000000  0.4234330000000  0.4741620000000 1.0
C      1  0.5202440000000  0.4340810000000  0.4475000000000 1.0
C      1  0.5115250000000  0.4882690000000  0.4319050000000 1.0
C      1  0.4553650000000  0.5338790000000  0.5606890000000 1.0
C      1  0.4530350000000  0.5029320000000  0.5178440000000 1.0
C      1  0.4940540000000  0.4380500000000  0.5407830000000 1.0
C      1  0.4931620000000  0.5656330000000  0.5178500000000 1.0
C      1  0.5077450000000  0.5020390000000  0.4810520000000 1.0
C      1  0.4352700000000  0.5215330000000  0.4742330000000 1.0
C      1  0.4547830000000  0.5069260000000  0.5695230000000 1.0
C      1  0.5350580000000  0.4897680000000  0.4493340000000 1.0
C      1  0.4433490000000  0.5137640000000  0.5445190000000 1.0
C      1  0.5049780000000  0.5159630000000  0.4358320000000 1.0
C      1  0.4996040000000  0.5211450000000  0.5698760000000 1.0
C      1  0.4718860000000  0.4759390000000  0.5185120000000 1.0
C      1  0.5058050000000  0.4301980000000  0.4923030000000 1.0
C      1  0.5587150000000  0.4810460000000  0.4942930000000 1.0
C      1  0.5334920000000  0.4583410000000  0.5534570000000 1.0
C      1  0.5246200000000  0.5542510000000  0.5533510000000 1.0
C      1  0.4409520000000  0.4614540000000  0.4328900000000 1.0
C      1  0.4531260000000  0.5434990000000  0.4762710000000 1.0
C      1  0.4629630000000  0.4791570000000  0.4268350000000 1.0
C      1  0.5118640000000  0.4328590000000  0.5196360000000 1.0
C      1  0.4324250000000  0.4651900000000  0.4570760000000 1.0
C      1  0.4730000000000  0.4580820000000  0.5423050000000 1.0
C      1  0.4823270000000  0.5430320000000  0.5623430000000 1.0
C      1  0.5429100000000  0.5734720000000  0.5491120000000 1.0
C      1  0.4731180000000  0.5463800000000  0.4548320000000 1.0
C      1  0.5424850000000  0.4706650000000  0.4711250000000 1.0
C      1  0.5135220000000  0.4732950000000  0.4855620000000 1.0
C      1  0.5036810000000  0.4801730000000  0.5173140000000 1.0
C      1  0.4920920000000  0.5568500000000  0.4725400000000 1.0
C      1  0.4963490000000  0.4486360000000  0.4486220000000 1.0
C      1  0.5076470000000  0.4524250000000  0.5625820000000 1.0
C      1  0.5267390000000  0.5266060000000  0.5612000000000 1.0
C      1  0.4569750000000  0.5072790000000  0.4328700000000 1.0
C      1  0.5187840000000  0.5701930000000  0.5050820000000 1.0
C      1  0.4346990000000  0.4998090000000  0.4937870000000 1.0
END
