TITL C-161226-4682-7 -5.23507818229734 125000 -841.726265888292 0 0 121 (C1) n - 1
REM
REM in /rds/project/t2_vol4/rds-t2-cs072/BORA/CARBON/from-Arr/AIRSS/Generating-Clusters/GAP-ML-2020/Only-C1/SD-CG/HFTN-CG
REM
REM
REM
REM
REM
REM ./C.cell (11c1c37f851c82e70ff6c80c92926a4b)
REM AIRSS Version 0.9.1 bugfix July 2018 build 013d7b7c2542+ Fri, 06 Jul 2018 19:26:36 +0100
REM compiler GCC version 9.3.0
REM options -cpp -mtune=generic -march=x86-64 -g -O0
REM seed -310536653 -1832666644 247744803 -889908570 853508083 -572297529 -1817246751 308909677 -786034774 1759489511 1415032851 1887770584 626748333 1461954552 -1666695800 -1263725995 -556862984 -894219708 -1124446767 -465751382 706825102 313908984 -1759234400 965290778 -2114939945 667233036 -1945637036 412139675 -1307886938 747196579 -1276269264 581289070 -1094931781
REM
CELL 1.54180   50.00000   50.00000   50.00000   90.00000   90.00000   90.00000
LATT -1
SFAC C  
C      1  0.5522140000000  0.5097440000000  0.4147150000000 1.0
C      1  0.4879290000000  0.4807540000000  0.4160590000000 1.0
C      1  0.5200070000000  0.4843560000000  0.4510190000000 1.0
C      1  0.5024040000000  0.5782100000000  0.4831800000000 1.0
C      1  0.5519380000000  0.4317980000000  0.5267730000000 1.0
C      1  0.5703540000000  0.4538860000000  0.5282630000000 1.0
C      1  0.5081480000000  0.4848520000000  0.5814050000000 1.0
C      1  0.4957380000000  0.5352580000000  0.4418260000000 1.0
C      1  0.5355820000000  0.4694730000000  0.4273490000000 1.0
C      1  0.5259750000000  0.4857240000000  0.4826810000000 1.0
C      1  0.5605470000000  0.4843270000000  0.4258390000000 1.0
C      1  0.4271910000000  0.4646710000000  0.5127360000000 1.0
C      1  0.4579680000000  0.5314510000000  0.5667670000000 1.0
C      1  0.4473650000000  0.5736680000000  0.5420080000000 1.0
C      1  0.4986500000000  0.5888530000000  0.5514660000000 1.0
C      1  0.5117470000000  0.5970590000000  0.5056970000000 1.0
C      1  0.5522930000000  0.5237270000000  0.5444080000000 1.0
C      1  0.5723680000000  0.5019580000000  0.5397960000000 1.0
C      1  0.5452360000000  0.5266310000000  0.4395560000000 1.0
C      1  0.4967590000000  0.4458890000000  0.4568080000000 1.0
C      1  0.5146850000000  0.4060010000000  0.4663840000000 1.0
C      1  0.5094670000000  0.5609070000000  0.4395460000000 1.0
C      1  0.5360760000000  0.5823700000000  0.5106830000000 1.0
C      1  0.4895110000000  0.5302420000000  0.5653310000000 1.0
C      1  0.5520600000000  0.4954820000000  0.4933710000000 1.0
C      1  0.5349180000000  0.5238760000000  0.5675390000000 1.0
C      1  0.5264400000000  0.4079950000000  0.4927450000000 1.0
C      1  0.4613850000000  0.5010310000000  0.5238950000000 1.0
C      1  0.4766300000000  0.5364000000000  0.4705270000000 1.0
C      1  0.4105890000000  0.5129320000000  0.5133560000000 1.0
C      1  0.5673150000000  0.5237610000000  0.4618640000000 1.0
C      1  0.4841420000000  0.5111430000000  0.4821370000000 1.0
C      1  0.4933100000000  0.5801400000000  0.4540460000000 1.0
C      1  0.4713680000000  0.4745500000000  0.5327810000000 1.0
C      1  0.4808380000000  0.5584270000000  0.4938810000000 1.0
C      1  0.4435200000000  0.4473200000000  0.5318400000000 1.0
C      1  0.5550700000000  0.5242080000000  0.4906020000000 1.0
C      1  0.4715840000000  0.4596320000000  0.4026500000000 1.0
C      1  0.5820250000000  0.4874760000000  0.4946340000000 1.0
C      1  0.5505260000000  0.4228330000000  0.4995780000000 1.0
C      1  0.5282850000000  0.5345590000000  0.4963980000000 1.0
C      1  0.4865710000000  0.5428760000000  0.5179810000000 1.0
C      1  0.5302720000000  0.5495780000000  0.5785880000000 1.0
C      1  0.5021940000000  0.6049640000000  0.5296560000000 1.0
C      1  0.5678630000000  0.4408740000000  0.4838040000000 1.0
C      1  0.5862630000000  0.5077220000000  0.5164180000000 1.0
C      1  0.4413940000000  0.4493690000000  0.4682390000000 1.0
C      1  0.5087130000000  0.5076920000000  0.5624540000000 1.0
C      1  0.4366440000000  0.5605050000000  0.5189060000000 1.0
C      1  0.5222970000000  0.5671250000000  0.5540170000000 1.0
C      1  0.5081060000000  0.5023320000000  0.5308650000000 1.0
C      1  0.4081710000000  0.5105200000000  0.4855090000000 1.0
C      1  0.4670630000000  0.5028080000000  0.4217040000000 1.0
C      1  0.5170720000000  0.4828010000000  0.4070350000000 1.0
C      1  0.4934250000000  0.5299260000000  0.5966310000000 1.0
C      1  0.5050210000000  0.5454360000000  0.5405140000000 1.0
C      1  0.5695910000000  0.4747140000000  0.5485380000000 1.0
C      1  0.5134840000000  0.5141290000000  0.4790530000000 1.0
C      1  0.5033010000000  0.4726420000000  0.5283170000000 1.0
C      1  0.4708790000000  0.5818110000000  0.5558890000000 1.0
C      1  0.5801050000000  0.4593440000000  0.5021200000000 1.0
C      1  0.4839370000000  0.5141410000000  0.5135760000000 1.0
C      1  0.4799110000000  0.4217160000000  0.5022260000000 1.0
C      1  0.5307790000000  0.5651740000000  0.4869250000000 1.0
C      1  0.5097260000000  0.4663160000000  0.4994090000000 1.0
C      1  0.4754050000000  0.5059840000000  0.6023290000000 1.0
C      1  0.4502790000000  0.4901280000000  0.4431580000000 1.0
C      1  0.5924430000000  0.5521360000000  0.4893660000000 1.0
C      1  0.4663520000000  0.5749770000000  0.4483660000000 1.0
C      1  0.5776540000000  0.5356620000000  0.5088370000000 1.0
C      1  0.4518050000000  0.4504720000000  0.4163610000000 1.0
C      1  0.5046860000000  0.4079370000000  0.5115050000000 1.0
C      1  0.4136360000000  0.4866420000000  0.5276470000000 1.0
C      1  0.5554380000000  0.4705000000000  0.5718890000000 1.0
C      1  0.5293020000000  0.4299420000000  0.5437020000000 1.0
C      1  0.4437400000000  0.4610010000000  0.4404330000000 1.0
C      1  0.4463670000000  0.4215100000000  0.4705090000000 1.0
C      1  0.4541940000000  0.5614980000000  0.5654810000000 1.0
C      1  0.5509760000000  0.5664430000000  0.4633680000000 1.0
C      1  0.4539650000000  0.4767320000000  0.5081650000000 1.0
C      1  0.5169200000000  0.5420340000000  0.6013960000000 1.0
C      1  0.5290260000000  0.4671870000000  0.5735250000000 1.0
C      1  0.5452240000000  0.5704230000000  0.5349540000000 1.0
C      1  0.5189500000000  0.4291190000000  0.4498600000000 1.0
C      1  0.4424780000000  0.5165180000000  0.5448080000000 1.0
C      1  0.4729510000000  0.5301750000000  0.4234520000000 1.0
C      1  0.4937660000000  0.4731620000000  0.4467840000000 1.0
C      1  0.4301520000000  0.4897260000000  0.5497330000000 1.0
C      1  0.4660300000000  0.4586470000000  0.5786160000000 1.0
C      1  0.5072890000000  0.4130220000000  0.5387190000000 1.0
C      1  0.4897640000000  0.4486950000000  0.4862160000000 1.0
C      1  0.4431330000000  0.5425770000000  0.4592900000000 1.0
C      1  0.5331010000000  0.5019280000000  0.3951370000000 1.0
C      1  0.4674500000000  0.4065240000000  0.4777010000000 1.0
C      1  0.4639260000000  0.4266630000000  0.5274000000000 1.0
C      1  0.5752610000000  0.4761340000000  0.4483050000000 1.0
C      1  0.4497620000000  0.4664560000000  0.5535890000000 1.0
C      1  0.5648450000000  0.4499290000000  0.4566000000000 1.0
C      1  0.4775710000000  0.4341360000000  0.5734690000000 1.0
C      1  0.4827620000000  0.4796580000000  0.5919960000000 1.0
C      1  0.4259730000000  0.5335150000000  0.5264780000000 1.0
C      1  0.5412600000000  0.4437320000000  0.4407180000000 1.0
C      1  0.4463410000000  0.5710590000000  0.4686790000000 1.0
C      1  0.4809460000000  0.4207680000000  0.5496060000000 1.0
C      1  0.4238680000000  0.4985450000000  0.4507450000000 1.0
C      1  0.5633800000000  0.5481200000000  0.5328260000000 1.0
C      1  0.4735370000000  0.4871460000000  0.4654250000000 1.0
C      1  0.4651350000000  0.4659450000000  0.4837000000000 1.0
C      1  0.4558960000000  0.5506300000000  0.4336970000000 1.0
C      1  0.4892160000000  0.3959810000000  0.4647930000000 1.0
C      1  0.5182920000000  0.5153390000000  0.4492810000000 1.0
C      1  0.4546640000000  0.5205220000000  0.5946300000000 1.0
C      1  0.5183720000000  0.4556090000000  0.5500220000000 1.0
C      1  0.4192650000000  0.4613900000000  0.4840710000000 1.0
C      1  0.5375360000000  0.5562040000000  0.4414640000000 1.0
C      1  0.4204770000000  0.5242780000000  0.4628470000000 1.0
C      1  0.5765220000000  0.5523870000000  0.4670910000000 1.0
C      1  0.4103020000000  0.4846030000000  0.4722750000000 1.0
C      1  0.5814220000000  0.4965780000000  0.4664130000000 1.0
C      1  0.5255390000000  0.5261690000000  0.5262280000000 1.0
C      1  0.4525160000000  0.5691130000000  0.4958310000000 1.0
END
