TITL C-162429-1436-4 65.2275476543552 125000 -1084.56998237905 0 0 154 (C1) n - 1
REM
REM in /rds/project/t2_vol4/rds-t2-cs072/BORA/CARBON/from-Arr/AIRSS/Generating-Clusters/GAP-ML-2020/Only-C1/SD-CG/HFTN-CG
REM
REM
REM
REM
REM
REM ./C.cell (11c1c37f851c82e70ff6c80c92926a4b)
REM AIRSS Version 0.9.1 bugfix July 2018 build 013d7b7c2542+ Fri, 06 Jul 2018 19:26:36 +0100
REM compiler GCC version 9.3.0
REM options -cpp -mtune=generic -march=x86-64 -g -O0
REM seed -1174104149 -1552244080 -1061083868 416095317 -1133179819 1956662925 -29745853 1616335498 -311756955 1036264369 1246805319 2132823224 1718090374 -1836384652 1003943161 -1467714760 1973949850 -742092448 844597247 -18320441 1212068359 -223409239 -251565129 1336328752 437242878 -505399508 -1897875493 -714244274 1234681630 -1760080611 311883913 -1348846778 1501228671
REM
CELL 1.54180   50.00000   50.00000   50.00000   90.00000   90.00000   90.00000
LATT -1
SFAC C  
C      1  0.5924130000000  0.5146290000000  0.4420180000000 1.0
C      1  0.5259140000000  0.5794580000000  0.5323930000000 1.0
C      1  0.4204050000000  0.4546920000000  0.4737460000000 1.0
C      1  0.4568640000000  0.4672870000000  0.5799600000000 1.0
C      1  0.4636320000000  0.6052410000000  0.5251670000000 1.0
C      1  0.4394700000000  0.5684840000000  0.4711110000000 1.0
C      1  0.5939500000000  0.4650620000000  0.4380500000000 1.0
C      1  0.5363050000000  0.4210690000000  0.5574860000000 1.0
C      1  0.5664940000000  0.4181200000000  0.4928150000000 1.0
C      1  0.5124030000000  0.4972070000000  0.6021190000000 1.0
C      1  0.5452910000000  0.4638120000000  0.5798620000000 1.0
C      1  0.4748450000000  0.4450110000000  0.5743580000000 1.0
C      1  0.4310940000000  0.4249330000000  0.4411800000000 1.0
C      1  0.5177030000000  0.4140330000000  0.5053410000000 1.0
C      1  0.4164090000000  0.4769000000000  0.4559170000000 1.0
C      1  0.5597080000000  0.4165810000000  0.4647490000000 1.0
C      1  0.5101010000000  0.5388880000000  0.4213710000000 1.0
C      1  0.5236420000000  0.5649380000000  0.4214660000000 1.0
C      1  0.4110860000000  0.4551030000000  0.5749550000000 1.0
C      1  0.4874290000000  0.4940920000000  0.6124720000000 1.0
C      1  0.5044770000000  0.4493240000000  0.5739470000000 1.0
C      1  0.5322290000000  0.5674180000000  0.5610550000000 1.0
C      1  0.5520140000000  0.5778460000000  0.4886020000000 1.0
C      1  0.4456530000000  0.5079490000000  0.4991030000000 1.0
C      1  0.5190720000000  0.5469810000000  0.5237990000000 1.0
C      1  0.4360150000000  0.5493660000000  0.4198400000000 1.0
C      1  0.5225060000000  0.5407120000000  0.4712920000000 1.0
C      1  0.3987020000000  0.5107920000000  0.4938760000000 1.0
C      1  0.4275710000000  0.5526180000000  0.4457940000000 1.0
C      1  0.5706870000000  0.5497580000000  0.4348040000000 1.0
C      1  0.5122080000000  0.4190390000000  0.4773610000000 1.0
C      1  0.5442230000000  0.4519720000000  0.4191680000000 1.0
C      1  0.4340740000000  0.4325500000000  0.5132320000000 1.0
C      1  0.4577600000000  0.4887130000000  0.4239580000000 1.0
C      1  0.4393220000000  0.4346390000000  0.5403120000000 1.0
C      1  0.4547280000000  0.5936390000000  0.4791550000000 1.0
C      1  0.5737190000000  0.5613050000000  0.4995280000000 1.0
C      1  0.4635520000000  0.4277020000000  0.5539560000000 1.0
C      1  0.4208640000000  0.5280570000000  0.4623840000000 1.0
C      1  0.5991730000000  0.4429660000000  0.4551350000000 1.0
C      1  0.5857100000000  0.4861930000000  0.4809490000000 1.0
C      1  0.5100230000000  0.4324120000000  0.5484490000000 1.0
C      1  0.4412590000000  0.4333320000000  0.4678760000000 1.0
C      1  0.4860660000000  0.4148100000000  0.5426810000000 1.0
C      1  0.5885360000000  0.5393770000000  0.4566250000000 1.0
C      1  0.5063620000000  0.5845140000000  0.4282210000000 1.0
C      1  0.4345680000000  0.5749930000000  0.5449280000000 1.0
C      1  0.4458590000000  0.5078500000000  0.5524690000000 1.0
C      1  0.4582410000000  0.5177780000000  0.5239170000000 1.0
C      1  0.4685640000000  0.4478050000000  0.4618660000000 1.0
C      1  0.4835080000000  0.5967640000000  0.4736620000000 1.0
C      1  0.5337740000000  0.4646090000000  0.5121200000000 1.0
C      1  0.4873620000000  0.4512990000000  0.5103550000000 1.0
C      1  0.5827070000000  0.5122850000000  0.4983910000000 1.0
C      1  0.4519680000000  0.5339940000000  0.4057150000000 1.0
C      1  0.4189830000000  0.5633800000000  0.4928810000000 1.0
C      1  0.5482840000000  0.5065020000000  0.4223150000000 1.0
C      1  0.5866380000000  0.5400560000000  0.4846650000000 1.0
C      1  0.5774090000000  0.4278450000000  0.4457860000000 1.0
C      1  0.5063830000000  0.5375570000000  0.4982630000000 1.0
C      1  0.4926090000000  0.5112460000000  0.5520960000000 1.0
C      1  0.4512400000000  0.5521050000000  0.5807720000000 1.0
C      1  0.5255380000000  0.4997860000000  0.4045160000000 1.0
C      1  0.4205580000000  0.5249180000000  0.5569280000000 1.0
C      1  0.5448450000000  0.5334390000000  0.5245650000000 1.0
C      1  0.5718090000000  0.5231760000000  0.4222560000000 1.0
C      1  0.4076000000000  0.5380900000000  0.4873530000000 1.0
C      1  0.5576980000000  0.4772350000000  0.4691410000000 1.0
C      1  0.5539180000000  0.5514000000000  0.5692130000000 1.0
C      1  0.5020830000000  0.5347450000000  0.4493410000000 1.0
C      1  0.4496610000000  0.5208970000000  0.4712600000000 1.0
C      1  0.5380760000000  0.4633460000000  0.4839910000000 1.0
C      1  0.4227920000000  0.4603780000000  0.5470510000000 1.0
C      1  0.4597190000000  0.5900260000000  0.5491860000000 1.0
C      1  0.5770520000000  0.5474960000000  0.5516310000000 1.0
C      1  0.4642030000000  0.4997560000000  0.4533590000000 1.0
C      1  0.4720620000000  0.5375640000000  0.5882680000000 1.0
C      1  0.5309740000000  0.5902400000000  0.5041210000000 1.0
C      1  0.5937370000000  0.4652800000000  0.5012590000000 1.0
C      1  0.5834540000000  0.4621680000000  0.5475330000000 1.0
C      1  0.5476360000000  0.5267260000000  0.5820860000000 1.0
C      1  0.4958890000000  0.5408640000000  0.5434390000000 1.0
C      1  0.4909700000000  0.6079110000000  0.5191720000000 1.0
C      1  0.4452210000000  0.5983000000000  0.5053700000000 1.0
C      1  0.4073400000000  0.5009780000000  0.4675210000000 1.0
C      1  0.5330390000000  0.4934800000000  0.5161080000000 1.0
C      1  0.4305190000000  0.4561140000000  0.5911040000000 1.0
C      1  0.4797220000000  0.5494760000000  0.4995540000000 1.0
C      1  0.5336390000000  0.4379740000000  0.5798600000000 1.0
C      1  0.5976120000000  0.4895980000000  0.4525800000000 1.0
C      1  0.4897150000000  0.4036130000000  0.5165330000000 1.0
C      1  0.4265880000000  0.5789470000000  0.5163570000000 1.0
C      1  0.4282760000000  0.4469630000000  0.4236910000000 1.0
C      1  0.5686900000000  0.5534550000000  0.5261450000000 1.0
C      1  0.4686360000000  0.5123160000000  0.5723020000000 1.0
C      1  0.5783230000000  0.4364950000000  0.5343520000000 1.0
C      1  0.4684670000000  0.4911860000000  0.5925630000000 1.0
C      1  0.5928910000000  0.5064310000000  0.5262260000000 1.0
C      1  0.5632640000000  0.5050360000000  0.5640670000000 1.0
C      1  0.4703780000000  0.5127750000000  0.4068970000000 1.0
C      1  0.5044490000000  0.6015080000000  0.4951910000000 1.0
C      1  0.4662540000000  0.4768270000000  0.4736790000000 1.0
C      1  0.5392980000000  0.5066470000000  0.5425990000000 1.0
C      1  0.5269530000000  0.4313840000000  0.4317680000000 1.0
C      1  0.4831570000000  0.4995800000000  0.5262670000000 1.0
C      1  0.4309220000000  0.4742070000000  0.4305410000000 1.0
C      1  0.4897280000000  0.5819430000000  0.4496830000000 1.0
C      1  0.5186620000000  0.4776520000000  0.5790730000000 1.0
C      1  0.4629280000000  0.5477630000000  0.4747380000000 1.0
C      1  0.5038400000000  0.5611900000000  0.5686210000000 1.0
C      1  0.5324320000000  0.4182000000000  0.4568040000000 1.0
C      1  0.5216820000000  0.5241180000000  0.5957140000000 1.0
C      1  0.5844820000000  0.4378920000000  0.5063090000000 1.0
C      1  0.4815920000000  0.5545510000000  0.4531230000000 1.0
C      1  0.5148050000000  0.4862410000000  0.4501510000000 1.0
C      1  0.5511590000000  0.5141510000000  0.5005690000000 1.0
C      1  0.4681400000000  0.4018720000000  0.5007310000000 1.0
C      1  0.5479580000000  0.5653750000000  0.4381440000000 1.0
C      1  0.5677020000000  0.4756110000000  0.5676260000000 1.0
C      1  0.5166600000000  0.4985220000000  0.5585410000000 1.0
C      1  0.5469450000000  0.4097550000000  0.5121490000000 1.0
C      1  0.5423380000000  0.4973450000000  0.4518080000000 1.0
C      1  0.4869110000000  0.5851640000000  0.5600330000000 1.0
C      1  0.5017230000000  0.4358870000000  0.4210400000000 1.0
C      1  0.5394830000000  0.5665880000000  0.4655900000000 1.0
C      1  0.4460990000000  0.4166020000000  0.4934410000000 1.0
C      1  0.4741660000000  0.4416410000000  0.4312710000000 1.0
C      1  0.5039310000000  0.5962210000000  0.5407440000000 1.0
C      1  0.5009050000000  0.4597970000000  0.4048860000000 1.0
C      1  0.5714290000000  0.4490860000000  0.4260630000000 1.0
C      1  0.5116480000000  0.4667100000000  0.4723930000000 1.0
C      1  0.5042750000000  0.5049450000000  0.5059790000000 1.0
C      1  0.4237320000000  0.4586310000000  0.5020010000000 1.0
C      1  0.4504380000000  0.4786930000000  0.4993900000000 1.0
C      1  0.5845730000000  0.5197890000000  0.5503520000000 1.0
C      1  0.4930480000000  0.4429230000000  0.4786600000000 1.0
C      1  0.4306430000000  0.5521370000000  0.5628480000000 1.0
C      1  0.5265440000000  0.4711000000000  0.4044710000000 1.0
C      1  0.4690480000000  0.4730500000000  0.5229990000000 1.0
C      1  0.4750470000000  0.4668510000000  0.4148890000000 1.0
C      1  0.4492170000000  0.4279170000000  0.4201820000000 1.0
C      1  0.5005510000000  0.5438720000000  0.5915780000000 1.0
C      1  0.5566150000000  0.4179690000000  0.5382450000000 1.0
C      1  0.4478960000000  0.4774480000000  0.5510970000000 1.0
C      1  0.5011690000000  0.5163610000000  0.4049840000000 1.0
C      1  0.4010170000000  0.5145200000000  0.5419100000000 1.0
C      1  0.4714590000000  0.5437890000000  0.5255030000000 1.0
C      1  0.5951370000000  0.4782000000000  0.5269300000000 1.0
C      1  0.4943000000000  0.4895710000000  0.4814860000000 1.0
C      1  0.5132190000000  0.4446360000000  0.5211720000000 1.0
C      1  0.4080550000000  0.4707160000000  0.5230480000000 1.0
C      1  0.5413600000000  0.5188260000000  0.4728520000000 1.0
C      1  0.3981120000000  0.4977320000000  0.5204710000000 1.0
C      1  0.4938050000000  0.5061270000000  0.4549300000000 1.0
END
