TITL C-161230-6857-8 -38.2158033187295 125000 -787.62105597806 0 0 114 (C1) n - 1
REM
REM in /rds/project/t2_vol4/rds-t2-cs072/BORA/CARBON/from-Arr/AIRSS/Generating-Clusters/GAP-ML-2020/Only-C1/SD-CG/HFTN-CG
REM
REM
REM
REM
REM
REM ./C.cell (11c1c37f851c82e70ff6c80c92926a4b)
REM AIRSS Version 0.9.1 bugfix July 2018 build 013d7b7c2542+ Fri, 06 Jul 2018 19:26:36 +0100
REM compiler GCC version 9.3.0
REM options -cpp -mtune=generic -march=x86-64 -g -O0
REM seed -302341903 -2044952536 912595398 -1151045099 702960479 824323251 1320754872 -126397927 201999926 129525524 1322669342 152055985 -1220933791 -1757952276 -430945459 1303525456 1438080182 -833058708 -1345289587 -2095946240 173891554 -1393565123 333295745 399162882 -416879045 -1101380922 -91290264 -1133691952 -2006950121 397238049 -1843728680 -367545051 2126142432
REM
CELL 1.54180   50.00000   50.00000   50.00000   90.00000   90.00000   90.00000
LATT -1
SFAC C  
C      1  0.5569570000000  0.4936710000000  0.5562360000000 1.0
C      1  0.4816900000000  0.5198960000000  0.5847340000000 1.0
C      1  0.5763960000000  0.4727990000000  0.5449980000000 1.0
C      1  0.4938310000000  0.5089650000000  0.5421940000000 1.0
C      1  0.5625290000000  0.4506860000000  0.5573690000000 1.0
C      1  0.4052270000000  0.5140200000000  0.5204880000000 1.0
C      1  0.4892940000000  0.4299020000000  0.4821810000000 1.0
C      1  0.5161290000000  0.4622560000000  0.5719580000000 1.0
C      1  0.5448530000000  0.4678980000000  0.5697640000000 1.0
C      1  0.4687260000000  0.5502640000000  0.4474800000000 1.0
C      1  0.5040160000000  0.5398810000000  0.4935070000000 1.0
C      1  0.4063770000000  0.4962280000000  0.4986300000000 1.0
C      1  0.5192340000000  0.5495940000000  0.5616530000000 1.0
C      1  0.4936400000000  0.5458000000000  0.5785800000000 1.0
C      1  0.4201720000000  0.5108430000000  0.5456830000000 1.0
C      1  0.5228190000000  0.4395920000000  0.4438150000000 1.0
C      1  0.5789830000000  0.5037270000000  0.4793760000000 1.0
C      1  0.4853780000000  0.5014590000000  0.5150570000000 1.0
C      1  0.5305660000000  0.5843100000000  0.4889760000000 1.0
C      1  0.4550220000000  0.5013590000000  0.5144750000000 1.0
C      1  0.5294040000000  0.4218830000000  0.5393470000000 1.0
C      1  0.4515300000000  0.5262540000000  0.4473200000000 1.0
C      1  0.5701420000000  0.4393070000000  0.5134300000000 1.0
C      1  0.5336460000000  0.4873870000000  0.4619040000000 1.0
C      1  0.5128110000000  0.5762260000000  0.5459510000000 1.0
C      1  0.5397770000000  0.4951590000000  0.4205020000000 1.0
C      1  0.4960200000000  0.5056870000000  0.4073840000000 1.0
C      1  0.5894440000000  0.5160240000000  0.5184930000000 1.0
C      1  0.4936260000000  0.5046140000000  0.4684550000000 1.0
C      1  0.5049780000000  0.4780880000000  0.4621230000000 1.0
C      1  0.5038910000000  0.4759600000000  0.5947770000000 1.0
C      1  0.5468610000000  0.5424150000000  0.5693180000000 1.0
C      1  0.5679800000000  0.5399000000000  0.5507840000000 1.0
C      1  0.5164770000000  0.5672750000000  0.4446600000000 1.0
C      1  0.4719220000000  0.5857370000000  0.5265840000000 1.0
C      1  0.4574340000000  0.5605230000000  0.5211800000000 1.0
C      1  0.5543340000000  0.5217990000000  0.4836950000000 1.0
C      1  0.4641930000000  0.5096570000000  0.4701740000000 1.0
C      1  0.5183960000000  0.5280150000000  0.5386580000000 1.0
C      1  0.5354480000000  0.5192720000000  0.4594180000000 1.0
C      1  0.4545960000000  0.4779350000000  0.4393430000000 1.0
C      1  0.4819030000000  0.4309950000000  0.5493920000000 1.0
C      1  0.5233440000000  0.4638250000000  0.5040760000000 1.0
C      1  0.5167440000000  0.5794190000000  0.5160780000000 1.0
C      1  0.4510260000000  0.4487190000000  0.4389120000000 1.0
C      1  0.5823160000000  0.4668290000000  0.5181500000000 1.0
C      1  0.5023940000000  0.4795100000000  0.5486050000000 1.0
C      1  0.5136270000000  0.4838960000000  0.4154270000000 1.0
C      1  0.5609020000000  0.4270750000000  0.4884540000000 1.0
C      1  0.4906590000000  0.5908170000000  0.5065420000000 1.0
C      1  0.4546850000000  0.5044210000000  0.4254690000000 1.0
C      1  0.5099900000000  0.4331240000000  0.5574380000000 1.0
C      1  0.4131720000000  0.4665480000000  0.4996330000000 1.0
C      1  0.5541350000000  0.5696290000000  0.4835220000000 1.0
C      1  0.5060710000000  0.5106480000000  0.4964820000000 1.0
C      1  0.4168490000000  0.4575420000000  0.4726960000000 1.0
C      1  0.4352620000000  0.4558630000000  0.5167640000000 1.0
C      1  0.5033380000000  0.4615050000000  0.4343560000000 1.0
C      1  0.5565470000000  0.4316170000000  0.5377440000000 1.0
C      1  0.5782130000000  0.4852810000000  0.4579100000000 1.0
C      1  0.5542390000000  0.5461190000000  0.5019620000000 1.0
C      1  0.4966250000000  0.5467450000000  0.4397290000000 1.0
C      1  0.4631540000000  0.4511120000000  0.5562430000000 1.0
C      1  0.4859020000000  0.5823060000000  0.5513110000000 1.0
C      1  0.5358280000000  0.5243560000000  0.4292510000000 1.0
C      1  0.5534920000000  0.4786530000000  0.4409230000000 1.0
C      1  0.4847570000000  0.5852620000000  0.4790180000000 1.0
C      1  0.5341940000000  0.4165830000000  0.4882180000000 1.0
C      1  0.5238040000000  0.5483520000000  0.5139970000000 1.0
C      1  0.5678750000000  0.4410280000000  0.4645010000000 1.0
C      1  0.4718890000000  0.4186760000000  0.5248960000000 1.0
C      1  0.4603730000000  0.5214090000000  0.4963450000000 1.0
C      1  0.5201330000000  0.4126750000000  0.5132380000000 1.0
C      1  0.5631330000000  0.5195800000000  0.5694330000000 1.0
C      1  0.5089380000000  0.5311310000000  0.4644310000000 1.0
C      1  0.4553020000000  0.5442920000000  0.5489800000000 1.0
C      1  0.4987840000000  0.4608580000000  0.4880080000000 1.0
C      1  0.4929880000000  0.4141330000000  0.5068940000000 1.0
C      1  0.4132390000000  0.5421330000000  0.5218470000000 1.0
C      1  0.4523290000000  0.4759190000000  0.4988740000000 1.0
C      1  0.4737220000000  0.5467730000000  0.4981450000000 1.0
C      1  0.4801680000000  0.4719650000000  0.5081920000000 1.0
C      1  0.4821790000000  0.4632510000000  0.5367710000000 1.0
C      1  0.4920350000000  0.4983350000000  0.5984230000000 1.0
C      1  0.4685030000000  0.5072900000000  0.4012460000000 1.0
C      1  0.5418310000000  0.5548630000000  0.4387030000000 1.0
C      1  0.5749210000000  0.5384540000000  0.5233750000000 1.0
C      1  0.4389610000000  0.4400370000000  0.4637720000000 1.0
C      1  0.4751520000000  0.4557710000000  0.4296530000000 1.0
C      1  0.5376050000000  0.5042040000000  0.5317110000000 1.0
C      1  0.5150900000000  0.4235130000000  0.4667610000000 1.0
C      1  0.5865850000000  0.4608890000000  0.4662980000000 1.0
C      1  0.4336650000000  0.5563710000000  0.4783250000000 1.0
C      1  0.5360150000000  0.5043910000000  0.5020350000000 1.0
C      1  0.4639250000000  0.5634000000000  0.4728130000000 1.0
C      1  0.4458400000000  0.4964580000000  0.5443990000000 1.0
C      1  0.4498810000000  0.4300360000000  0.5097120000000 1.0
C      1  0.4571180000000  0.4287230000000  0.4820470000000 1.0
C      1  0.4213520000000  0.4836040000000  0.4608710000000 1.0
C      1  0.4678750000000  0.5161910000000  0.5576430000000 1.0
C      1  0.4298860000000  0.5586800000000  0.5065140000000 1.0
C      1  0.4441140000000  0.4662920000000  0.5440330000000 1.0
C      1  0.4125500000000  0.5079110000000  0.4729570000000 1.0
C      1  0.5587570000000  0.5641720000000  0.4566380000000 1.0
C      1  0.5086900000000  0.5283920000000  0.4201820000000 1.0
C      1  0.4262060000000  0.5330530000000  0.4635730000000 1.0
C      1  0.5108110000000  0.5833470000000  0.4678300000000 1.0
C      1  0.5243390000000  0.4771270000000  0.5303130000000 1.0
C      1  0.4738020000000  0.5613670000000  0.5663820000000 1.0
C      1  0.5493120000000  0.4491110000000  0.4441530000000 1.0
C      1  0.4260010000000  0.5384260000000  0.5482130000000 1.0
C      1  0.4503170000000  0.4845810000000  0.4687090000000 1.0
C      1  0.5890360000000  0.4929820000000  0.5044950000000 1.0
C      1  0.5408520000000  0.4791830000000  0.4887110000000 1.0
END
