TITL C-160266-8376-8 -33.9446230542441 125000 -153.78222536932 0 0 24 (C1) n - 1
REM
REM in /rds/project/t2_vol4/rds-t2-cs072/BORA/CARBON/from-Arr/AIRSS/Generating-Clusters/GAP-ML-2020/Only-C1/SD-CG/HFTN-CG
REM
REM
REM
REM
REM
REM ./C.cell (11c1c37f851c82e70ff6c80c92926a4b)
REM AIRSS Version 0.9.1 bugfix July 2018 build 013d7b7c2542+ Fri, 06 Jul 2018 19:26:36 +0100
REM compiler GCC version 9.3.0
REM options -cpp -mtune=generic -march=x86-64 -g -O0
REM seed -174927429 -2128039019 110107709 231119181 836251764 -166154171 -103577238 346705195 -299449936 1087849136 -388334616 -339399633 -435564155 -1876434241 1383430939 1342832600 536314825 631791061 -2065066699 401314227 -1207657486 -2045173362 -1403236871 -903290250 1692868994 1010351296 -840712404 -1076043307 1858887725 1759589596 1933058507 -1490783661 2085816547
REM
CELL 1.54180   50.00000   50.00000   50.00000   90.00000   90.00000   90.00000
LATT -1
SFAC C  
C      1  0.4752760000000  0.5385610000000  0.5436100000000 1.0
C      1  0.4947660000000  0.4788710000000  0.4698710000000 1.0
C      1  0.5423460000000  0.5148530000000  0.5076950000000 1.0
C      1  0.4532330000000  0.4862360000000  0.4932630000000 1.0
C      1  0.4799390000000  0.4999700000000  0.4846090000000 1.0
C      1  0.4986540000000  0.4593990000000  0.5399280000000 1.0
C      1  0.5475210000000  0.5084150000000  0.4805190000000 1.0
C      1  0.5048390000000  0.4602830000000  0.4903800000000 1.0
C      1  0.4819280000000  0.5214290000000  0.5615340000000 1.0
C      1  0.5397490000000  0.4818780000000  0.4703000000000 1.0
C      1  0.4992930000000  0.4737130000000  0.5612290000000 1.0
C      1  0.4908660000000  0.4976790000000  0.5667270000000 1.0
C      1  0.4933790000000  0.5317950000000  0.4485850000000 1.0
C      1  0.4808940000000  0.5272700000000  0.4731210000000 1.0
C      1  0.4594300000000  0.4655260000000  0.5060650000000 1.0
C      1  0.5162510000000  0.4879080000000  0.4537270000000 1.0
C      1  0.5406960000000  0.5240530000000  0.4591040000000 1.0
C      1  0.5165390000000  0.5167130000000  0.4473310000000 1.0
C      1  0.4897270000000  0.4669070000000  0.5148360000000 1.0
C      1  0.4766840000000  0.5432350000000  0.4954820000000 1.0
C      1  0.4726820000000  0.5494620000000  0.5195400000000 1.0
C      1  0.5320430000000  0.4607750000000  0.4871110000000 1.0
C      1  0.5189110000000  0.5073870000000  0.5145310000000 1.0
C      1  0.4943520000000  0.4976820000000  0.5109000000000 1.0
END
