TITL C-167841-5599-7 55.9397722738364 125000 -122.578147494629 0 0 19 (C1) n - 1
REM
REM in /rds/project/t2_vol4/rds-t2-cs072/BORA/CARBON/from-Arr/AIRSS/Generating-Clusters/GAP-ML-2020/Only-C1/SD-CG/HFTN-CG
REM
REM
REM
REM
REM
REM ./C.cell (11c1c37f851c82e70ff6c80c92926a4b)
REM AIRSS Version 0.9.1 bugfix July 2018 build 013d7b7c2542+ Fri, 06 Jul 2018 19:26:36 +0100
REM compiler GCC version 9.3.0
REM options -cpp -mtune=generic -march=x86-64 -g -O0
REM seed 853973448 1587336110 -1437413314 1609526612 -1503339710 218201230 866217831 395665599 -2056846394 -1509845282 -1519173644 1722155185 1385637395 552216706 -403376134 -1285693909 405612942 1131210955 -1158881151 -1606092392 687870172 2146070943 1054180493 686885439 227905154 1003333220 1603124092 1903592223 1793179094 1754526240 -763334062 269731811 1301151514
REM
CELL 1.54180   50.00000   50.00000   50.00000   90.00000   90.00000   90.00000
LATT -1
SFAC C  
C      1  0.4969710000000  0.4932030000000  0.5504120000000 1.0
C      1  0.5378600000000  0.5364080000000  0.4779240000000 1.0
C      1  0.4815110000000  0.5108670000000  0.4703390000000 1.0
C      1  0.4547230000000  0.4900310000000  0.5052870000000 1.0
C      1  0.5026140000000  0.5177850000000  0.5516250000000 1.0
C      1  0.5268860000000  0.4871160000000  0.4747660000000 1.0
C      1  0.5192500000000  0.4650430000000  0.5173920000000 1.0
C      1  0.5077260000000  0.5426060000000  0.5414600000000 1.0
C      1  0.4560730000000  0.5050270000000  0.4845290000000 1.0
C      1  0.4950420000000  0.4721670000000  0.5304970000000 1.0
C      1  0.4714470000000  0.4685660000000  0.5143300000000 1.0
C      1  0.4756070000000  0.4494040000000  0.4919170000000 1.0
C      1  0.4864780000000  0.4617900000000  0.4721130000000 1.0
C      1  0.5126580000000  0.5462470000000  0.4896440000000 1.0
C      1  0.5395210000000  0.5116730000000  0.4722080000000 1.0
C      1  0.4914370000000  0.5359350000000  0.4746270000000 1.0
C      1  0.5340320000000  0.4684210000000  0.4971310000000 1.0
C      1  0.5109470000000  0.5511730000000  0.5176430000000 1.0
C      1  0.4992160000000  0.4865390000000  0.4661550000000 1.0
END
