TITL C-161213-3129-5 11.1682755051289 125000 -115.438270195728 0 0 19 (C1) n - 1
REM
REM in /rds/project/t2_vol4/rds-t2-cs072/BORA/CARBON/from-Arr/AIRSS/Generating-Clusters/GAP-ML-2020/Only-C1/SD-CG/HFTN-CG
REM
REM
REM
REM
REM
REM ./C.cell (11c1c37f851c82e70ff6c80c92926a4b)
REM AIRSS Version 0.9.1 bugfix July 2018 build 013d7b7c2542+ Fri, 06 Jul 2018 19:26:36 +0100
REM compiler GCC version 9.3.0
REM options -cpp -mtune=generic -march=x86-64 -g -O0
REM seed -647334939 370446707 -679929064 1987116336 124020940 547940352 387153047 -1020312343 1825396258 462489035 1867749815 -1377348077 -666802656 -22509344 -1445294934 -1996336814 -1304062983 -1420141337 -1989006881 -449288292 -1277098386 499698278 -150713476 -1117738917 1129457356 1911826905 394991610 -827059075 600849162 1889651002 1956211143 -1342070876 963037166
REM
CELL 1.54180   50.00000   50.00000   50.00000   90.00000   90.00000   90.00000
LATT -1
SFAC C  
C      1  0.4939970000000  0.4626750000000  0.5197850000000 1.0
C      1  0.5027460000000  0.5100220000000  0.4581540000000 1.0
C      1  0.5002400000000  0.4933940000000  0.4802890000000 1.0
C      1  0.4850710000000  0.4915210000000  0.5251810000000 1.0
C      1  0.4664600000000  0.5337340000000  0.4703400000000 1.0
C      1  0.5540710000000  0.5227180000000  0.4970570000000 1.0
C      1  0.4826210000000  0.4478380000000  0.4972490000000 1.0
C      1  0.5212380000000  0.4640980000000  0.5273850000000 1.0
C      1  0.4409830000000  0.5280220000000  0.4853460000000 1.0
C      1  0.5645580000000  0.4794620000000  0.4802420000000 1.0
C      1  0.5534340000000  0.4951790000000  0.4985860000000 1.0
C      1  0.5296060000000  0.4884670000000  0.5158820000000 1.0
C      1  0.4843070000000  0.5265440000000  0.4511740000000 1.0
C      1  0.4696390000000  0.4984190000000  0.5455200000000 1.0
C      1  0.5425610000000  0.5444760000000  0.4978350000000 1.0
C      1  0.4509630000000  0.5047190000000  0.5614120000000 1.0
C      1  0.4886040000000  0.4689320000000  0.4828260000000 1.0
C      1  0.5050810000000  0.5034510000000  0.5075700000000 1.0
C      1  0.4638180000000  0.5363300000000  0.4981680000000 1.0
END
