TITL C-162442-2243-9 154.780456363746 125000 -342.462349762918 0 0 51 (C1) n - 1
REM
REM in /rds/project/t2_vol4/rds-t2-cs072/BORA/CARBON/from-Arr/AIRSS/Generating-Clusters/GAP-ML-2020/Only-C1/SD-CG/HFTN-CG
REM
REM
REM
REM
REM
REM ./C.cell (11c1c37f851c82e70ff6c80c92926a4b)
REM AIRSS Version 0.9.1 bugfix July 2018 build 013d7b7c2542+ Fri, 06 Jul 2018 19:26:36 +0100
REM compiler GCC version 9.3.0
REM options -cpp -mtune=generic -march=x86-64 -g -O0
REM seed -1263996075 1656760764 2068737740 224553719 -1725511590 1198281315 750981788 -1473826295 627724319 -1690353442 -111149742 -736507228 -1909604332 -550256334 1351609198 1250149150 -10688364 2005570000 -1117464073 1034149848 -696857995 534888950 1572422099 -1171815827 1766030038 595805040 -156672558 1151439938 -1640861496 -537488059 503375638 -2000087924 798544256
REM
CELL 1.54180   50.00000   50.00000   50.00000   90.00000   90.00000   90.00000
LATT -1
SFAC C  
C      1  0.4978340000000  0.4577650000000  0.5098050000000 1.0
C      1  0.4423280000000  0.5162820000000  0.4422130000000 1.0
C      1  0.5196300000000  0.4514830000000  0.4912010000000 1.0
C      1  0.4728140000000  0.4478870000000  0.5010850000000 1.0
C      1  0.5658420000000  0.5070710000000  0.4795440000000 1.0
C      1  0.4557640000000  0.5516230000000  0.4810390000000 1.0
C      1  0.5186010000000  0.4829000000000  0.4374140000000 1.0
C      1  0.5285530000000  0.5274190000000  0.5400240000000 1.0
C      1  0.5185660000000  0.4987090000000  0.5029970000000 1.0
C      1  0.5012010000000  0.5616500000000  0.4672950000000 1.0
C      1  0.4425250000000  0.4904770000000  0.4417050000000 1.0
C      1  0.4892680000000  0.5042660000000  0.5633870000000 1.0
C      1  0.5372170000000  0.5003090000000  0.4391780000000 1.0
C      1  0.4376270000000  0.5091220000000  0.4910070000000 1.0
C      1  0.4404400000000  0.4810460000000  0.4901400000000 1.0
C      1  0.4827480000000  0.4784200000000  0.5749560000000 1.0
C      1  0.5320340000000  0.4786140000000  0.4865600000000 1.0
C      1  0.4794300000000  0.5088370000000  0.4730810000000 1.0
C      1  0.5598990000000  0.4669090000000  0.5109590000000 1.0
C      1  0.5159400000000  0.4609680000000  0.5653810000000 1.0
C      1  0.5453730000000  0.5112220000000  0.5218630000000 1.0
C      1  0.4706880000000  0.5246140000000  0.5230330000000 1.0
C      1  0.5010350000000  0.5175580000000  0.4892120000000 1.0
C      1  0.5504660000000  0.4842120000000  0.5320080000000 1.0
C      1  0.5011170000000  0.4438020000000  0.4665510000000 1.0
C      1  0.5167410000000  0.5485970000000  0.5244480000000 1.0
C      1  0.4766950000000  0.4348260000000  0.4765530000000 1.0
C      1  0.5002630000000  0.4597990000000  0.5861430000000 1.0
C      1  0.4770300000000  0.4832400000000  0.4617050000000 1.0
C      1  0.4590930000000  0.4682260000000  0.5633200000000 1.0
C      1  0.4780870000000  0.4990520000000  0.5355990000000 1.0
C      1  0.4536010000000  0.5240880000000  0.4689320000000 1.0
C      1  0.5030070000000  0.4829160000000  0.5235460000000 1.0
C      1  0.4924230000000  0.5393030000000  0.5091790000000 1.0
C      1  0.5337480000000  0.5627850000000  0.5085210000000 1.0
C      1  0.4977100000000  0.4677730000000  0.4493680000000 1.0
C      1  0.4827390000000  0.5581360000000  0.4867620000000 1.0
C      1  0.4394490000000  0.5538260000000  0.5023320000000 1.0
C      1  0.4578990000000  0.4756750000000  0.5373690000000 1.0
C      1  0.5608170000000  0.4806710000000  0.4860100000000 1.0
C      1  0.5165760000000  0.5092320000000  0.5570960000000 1.0
C      1  0.5452090000000  0.4437020000000  0.5023930000000 1.0
C      1  0.5615960000000  0.5240030000000  0.5016600000000 1.0
C      1  0.5449220000000  0.5457790000000  0.4635040000000 1.0
C      1  0.4494840000000  0.4739300000000  0.4631300000000 1.0
C      1  0.5503400000000  0.5484120000000  0.4921750000000 1.0
C      1  0.4514040000000  0.4648730000000  0.5106190000000 1.0
C      1  0.4446260000000  0.5282570000000  0.5114780000000 1.0
C      1  0.5521580000000  0.5180750000000  0.4562430000000 1.0
C      1  0.5242930000000  0.4801460000000  0.5456810000000 1.0
C      1  0.5231510000000  0.5615120000000  0.4545940000000 1.0
END
