TITL C-162445-2413-5 -0.238804897118665 125000 -397.90924360223 0 0 59 (C1) n - 1
REM
REM in /rds/project/t2_vol4/rds-t2-cs072/BORA/CARBON/from-Arr/AIRSS/Generating-Clusters/GAP-ML-2020/Only-C1/SD-CG/HFTN-CG
REM
REM
REM
REM
REM
REM ./C.cell (11c1c37f851c82e70ff6c80c92926a4b)
REM AIRSS Version 0.9.1 bugfix July 2018 build 013d7b7c2542+ Fri, 06 Jul 2018 19:26:36 +0100
REM compiler GCC version 9.3.0
REM options -cpp -mtune=generic -march=x86-64 -g -O0
REM seed 649555916 40351528 1730319633 365916533 -1994145336 -994337125 -359342563 1533297958 740618435 33215454 683379617 35455169 -1210321451 -367028655 -988958535 -1528859487 578181553 -1023316793 -64766003 -1512544015 -706973118 64581649 -324391774 1548140871 428733718 -577833792 -1549575723 -1544530725 1659156538 1418093714 -1925472842 -246409344 1720745285
REM
CELL 1.54180   50.00000   50.00000   50.00000   90.00000   90.00000   90.00000
LATT -1
SFAC C  
C      1  0.4885260000000  0.5023640000000  0.4388820000000 1.0
C      1  0.5027980000000  0.4418320000000  0.4953460000000 1.0
C      1  0.4332830000000  0.4959710000000  0.5372030000000 1.0
C      1  0.4760570000000  0.4844110000000  0.5359390000000 1.0
C      1  0.5553380000000  0.4746620000000  0.4496360000000 1.0
C      1  0.4251240000000  0.5164270000000  0.4971740000000 1.0
C      1  0.4780750000000  0.5489520000000  0.4920570000000 1.0
C      1  0.5031670000000  0.5594330000000  0.4842090000000 1.0
C      1  0.5435800000000  0.5424520000000  0.5170090000000 1.0
C      1  0.5220540000000  0.4899470000000  0.5640760000000 1.0
C      1  0.5059570000000  0.5569450000000  0.5329690000000 1.0
C      1  0.4766540000000  0.5263950000000  0.5125920000000 1.0
C      1  0.4965570000000  0.4821290000000  0.5749970000000 1.0
C      1  0.4378870000000  0.4886340000000  0.4663660000000 1.0
C      1  0.4737880000000  0.5236730000000  0.4305510000000 1.0
C      1  0.5219220000000  0.5000160000000  0.4789270000000 1.0
C      1  0.4812000000000  0.5475660000000  0.5467850000000 1.0
C      1  0.4608360000000  0.5438080000000  0.4698510000000 1.0
C      1  0.5139730000000  0.5147300000000  0.5484010000000 1.0
C      1  0.4750330000000  0.4825480000000  0.4902670000000 1.0
C      1  0.5526380000000  0.5401290000000  0.4381060000000 1.0
C      1  0.5475160000000  0.4693740000000  0.5020260000000 1.0
C      1  0.4775040000000  0.5455490000000  0.4469530000000 1.0
C      1  0.4810730000000  0.4411820000000  0.5146130000000 1.0
C      1  0.4826320000000  0.4748280000000  0.4454390000000 1.0
C      1  0.4582690000000  0.5317700000000  0.5349280000000 1.0
C      1  0.5050370000000  0.5534000000000  0.4556910000000 1.0
C      1  0.4578730000000  0.5025830000000  0.5512920000000 1.0
C      1  0.5192880000000  0.4529690000000  0.5373470000000 1.0
C      1  0.4862670000000  0.4647740000000  0.5556210000000 1.0
C      1  0.5276940000000  0.5400170000000  0.5412720000000 1.0
C      1  0.4939840000000  0.4414920000000  0.5418650000000 1.0
C      1  0.5253380000000  0.5362810000000  0.4447350000000 1.0
C      1  0.5498860000000  0.4987000000000  0.4876910000000 1.0
C      1  0.4644420000000  0.5089040000000  0.4938810000000 1.0
C      1  0.4444390000000  0.5198700000000  0.4757770000000 1.0
C      1  0.4241960000000  0.4866180000000  0.4916500000000 1.0
C      1  0.4919380000000  0.5274540000000  0.5651960000000 1.0
C      1  0.5582210000000  0.5184150000000  0.5096560000000 1.0
C      1  0.5655970000000  0.5207630000000  0.4488370000000 1.0
C      1  0.4619470000000  0.4742290000000  0.4641200000000 1.0
C      1  0.5655990000000  0.5016570000000  0.5303860000000 1.0
C      1  0.5460190000000  0.4497250000000  0.4781640000000 1.0
C      1  0.5632080000000  0.4500200000000  0.4574420000000 1.0
C      1  0.5284010000000  0.4813550000000  0.4428540000000 1.0
C      1  0.5077680000000  0.4614230000000  0.4485860000000 1.0
C      1  0.4766690000000  0.5055480000000  0.5735630000000 1.0
C      1  0.4642100000000  0.4667520000000  0.5134500000000 1.0
C      1  0.5190360000000  0.4636590000000  0.5094900000000 1.0
C      1  0.5204520000000  0.5592300000000  0.5071240000000 1.0
C      1  0.5380850000000  0.4695910000000  0.5509390000000 1.0
C      1  0.5163770000000  0.4447450000000  0.4711500000000 1.0
C      1  0.5581090000000  0.4754220000000  0.5303070000000 1.0
C      1  0.4964930000000  0.5052660000000  0.5238360000000 1.0
C      1  0.5157270000000  0.5077980000000  0.4501240000000 1.0
C      1  0.5042410000000  0.4899390000000  0.5001260000000 1.0
C      1  0.5662450000000  0.4981960000000  0.4627300000000 1.0
C      1  0.4350410000000  0.4749600000000  0.5150830000000 1.0
C      1  0.4307310000000  0.5225230000000  0.5247110000000 1.0
END
