TITL C-160274-8308-11 -24.982639813855 125000 -111.451725225736 0 0 18 (C1) n - 1
REM
REM in /rds/project/t2_vol4/rds-t2-cs072/BORA/CARBON/from-Arr/AIRSS/Generating-Clusters/GAP-ML-2020/Only-C1/SD-CG/HFTN-CG
REM
REM
REM
REM
REM
REM ./C.cell (11c1c37f851c82e70ff6c80c92926a4b)
REM AIRSS Version 0.9.1 bugfix July 2018 build 013d7b7c2542+ Fri, 06 Jul 2018 19:26:36 +0100
REM compiler GCC version 9.3.0
REM options -cpp -mtune=generic -march=x86-64 -g -O0
REM seed 1552839024 -889309074 1915993882 752140327 -1393227709 -375037223 457142542 2133562949 -322663474 295530952 1538887787 -1843573494 1777026408 1770795911 -637325662 212693707 -2134971063 2108308278 146901287 219269968 1251839564 -1873327294 -1460394195 2000590878 -137329945 -1067436318 -1243874677 239252476 1721002560 -957895526 -760308915 -1527753690 1307910541
REM
CELL 1.54180   50.00000   50.00000   50.00000   90.00000   90.00000   90.00000
LATT -1
SFAC C  
C      1  0.5334900000000  0.4847650000000  0.5271850000000 1.0
C      1  0.4944010000000  0.5923550000000  0.5388970000000 1.0
C      1  0.4778420000000  0.4310380000000  0.5289860000000 1.0
C      1  0.5115760000000  0.5381690000000  0.4881340000000 1.0
C      1  0.4495070000000  0.4973000000000  0.4800650000000 1.0
C      1  0.5423490000000  0.5060770000000  0.5157390000000 1.0
C      1  0.4918830000000  0.5703590000000  0.5249200000000 1.0
C      1  0.5059140000000  0.5395420000000  0.4613720000000 1.0
C      1  0.5171080000000  0.4652350000000  0.5298970000000 1.0
C      1  0.5149670000000  0.4885630000000  0.4637370000000 1.0
C      1  0.5382700000000  0.4996220000000  0.4688680000000 1.0
C      1  0.5339460000000  0.5165920000000  0.4916730000000 1.0
C      1  0.4593590000000  0.4380220000000  0.5104720000000 1.0
C      1  0.4940720000000  0.4537940000000  0.5221490000000 1.0
C      1  0.4729890000000  0.4610010000000  0.5019510000000 1.0
C      1  0.4705520000000  0.4807560000000  0.4802420000000 1.0
C      1  0.4907840000000  0.4819050000000  0.4586870000000 1.0
C      1  0.5009900000000  0.5549040000000  0.5070250000000 1.0
END
