TITL C-161216-3198-5 -0.184988144943907 125000 -501.102455574144 0 0 72 (C1) n - 1
REM
REM in /rds/project/t2_vol4/rds-t2-cs072/BORA/CARBON/from-Arr/AIRSS/Generating-Clusters/GAP-ML-2020/Only-C1/SD-CG/HFTN-CG
REM
REM
REM
REM
REM
REM ./C.cell (11c1c37f851c82e70ff6c80c92926a4b)
REM AIRSS Version 0.9.1 bugfix July 2018 build 013d7b7c2542+ Fri, 06 Jul 2018 19:26:36 +0100
REM compiler GCC version 9.3.0
REM options -cpp -mtune=generic -march=x86-64 -g -O0
REM seed -842793750 1329664415 -1808261933 -817651228 -731821325 1032141010 861331023 745505502 462619675 -1693474758 1502756048 -1060222746 831595962 1949339231 -1921072713 395647567 1227746281 -264229171 -2118011993 1070636838 -1331580812 18088725 -1220107965 623285391 1870402677 -432583032 -886651489 -1742340354 -1138324969 123312697 1588218463 -1877894273 551721701
REM
CELL 1.54180   50.00000   50.00000   50.00000   90.00000   90.00000   90.00000
LATT -1
SFAC C  
C      1  0.5584710000000  0.4658470000000  0.4826030000000 1.0
C      1  0.5426160000000  0.5527780000000  0.4543570000000 1.0
C      1  0.5031200000000  0.5194750000000  0.4302800000000 1.0
C      1  0.4932370000000  0.4360020000000  0.4643910000000 1.0
C      1  0.5115930000000  0.5517260000000  0.5581440000000 1.0
C      1  0.4978000000000  0.5648250000000  0.5375220000000 1.0
C      1  0.5147650000000  0.5558560000000  0.4598170000000 1.0
C      1  0.5350240000000  0.5346340000000  0.5611730000000 1.0
C      1  0.5755170000000  0.5064220000000  0.5043570000000 1.0
C      1  0.4748280000000  0.4309120000000  0.4855140000000 1.0
C      1  0.4409300000000  0.4951190000000  0.5481080000000 1.0
C      1  0.5397520000000  0.4457960000000  0.4934590000000 1.0
C      1  0.5123710000000  0.4895970000000  0.5101670000000 1.0
C      1  0.4775360000000  0.4529780000000  0.4472570000000 1.0
C      1  0.5087070000000  0.4673830000000  0.5582870000000 1.0
C      1  0.5305450000000  0.5115180000000  0.4315880000000 1.0
C      1  0.5584960000000  0.4826280000000  0.4583480000000 1.0
C      1  0.5273260000000  0.4878850000000  0.5652630000000 1.0
C      1  0.5498440000000  0.5609900000000  0.4816480000000 1.0
C      1  0.4943950000000  0.5428890000000  0.4456390000000 1.0
C      1  0.4586260000000  0.5015520000000  0.4333060000000 1.0
C      1  0.5191880000000  0.5136070000000  0.5744770000000 1.0
C      1  0.5799260000000  0.5223890000000  0.4813150000000 1.0
C      1  0.4848640000000  0.4976690000000  0.4267990000000 1.0
C      1  0.4527770000000  0.4607490000000  0.4603420000000 1.0
C      1  0.4420550000000  0.4852510000000  0.4512300000000 1.0
C      1  0.4956640000000  0.4972390000000  0.4776290000000 1.0
C      1  0.5155270000000  0.4460550000000  0.5403970000000 1.0
C      1  0.4237690000000  0.5224290000000  0.4875320000000 1.0
C      1  0.4692540000000  0.5597400000000  0.5328190000000 1.0
C      1  0.5162440000000  0.4330480000000  0.4839840000000 1.0
C      1  0.5624640000000  0.4722700000000  0.5322380000000 1.0
C      1  0.5082090000000  0.5152520000000  0.5259030000000 1.0
C      1  0.4826210000000  0.4895960000000  0.5020680000000 1.0
C      1  0.5673040000000  0.5102140000000  0.4596250000000 1.0
C      1  0.4645890000000  0.4945720000000  0.5629990000000 1.0
C      1  0.5195740000000  0.4657130000000  0.4311510000000 1.0
C      1  0.5208110000000  0.5051170000000  0.4866450000000 1.0
C      1  0.4316280000000  0.5495280000000  0.4876630000000 1.0
C      1  0.4494740000000  0.5258890000000  0.4455690000000 1.0
C      1  0.4526930000000  0.4499200000000  0.4886290000000 1.0
C      1  0.4716390000000  0.5227270000000  0.5656060000000 1.0
C      1  0.4423690000000  0.4360680000000  0.5320630000000 1.0
C      1  0.4801470000000  0.5121840000000  0.5211890000000 1.0
C      1  0.5683610000000  0.5459940000000  0.4949890000000 1.0
C      1  0.5632980000000  0.4449300000000  0.5388130000000 1.0
C      1  0.4800540000000  0.4714440000000  0.5569600000000 1.0
C      1  0.5498510000000  0.5273330000000  0.4445210000000 1.0
C      1  0.5701920000000  0.4798340000000  0.5050210000000 1.0
C      1  0.4366770000000  0.4851400000000  0.5218230000000 1.0
C      1  0.4340100000000  0.4339780000000  0.5076640000000 1.0
C      1  0.4315880000000  0.5106290000000  0.4627340000000 1.0
C      1  0.4721820000000  0.5665880000000  0.5042550000000 1.0
C      1  0.4554910000000  0.5394050000000  0.5479870000000 1.0
C      1  0.5262710000000  0.5289600000000  0.5043360000000 1.0
C      1  0.4598110000000  0.4705620000000  0.5101540000000 1.0
C      1  0.4574100000000  0.5567880000000  0.4809870000000 1.0
C      1  0.4964080000000  0.5311130000000  0.5738280000000 1.0
C      1  0.5541340000000  0.5214930000000  0.5451470000000 1.0
C      1  0.5385270000000  0.4837080000000  0.4368230000000 1.0
C      1  0.4928720000000  0.4704470000000  0.4307640000000 1.0
C      1  0.4955860000000  0.4260160000000  0.5037810000000 1.0
C      1  0.5512360000000  0.4926630000000  0.5497800000000 1.0
C      1  0.4672350000000  0.5451920000000  0.4554830000000 1.0
C      1  0.4924180000000  0.4368890000000  0.5287510000000 1.0
C      1  0.4349940000000  0.5218960000000  0.5379880000000 1.0
C      1  0.5010880000000  0.5710440000000  0.5086620000000 1.0
C      1  0.5398200000000  0.4441040000000  0.5239160000000 1.0
C      1  0.5570730000000  0.5276540000000  0.5168640000000 1.0
C      1  0.4256480000000  0.5105880000000  0.5130510000000 1.0
C      1  0.4688060000000  0.4529280000000  0.5352080000000 1.0
C      1  0.5206700000000  0.5586430000000  0.4906150000000 1.0
END
