TITL C-161233-6909-5 0.0637553006609891 125000 -698.227229509605 0 0 100 (C1) n - 1
REM
REM in /rds/project/t2_vol4/rds-t2-cs072/BORA/CARBON/from-Arr/AIRSS/Generating-Clusters/GAP-ML-2020/Only-C1/SD-CG/HFTN-CG
REM
REM
REM
REM
REM
REM ./C.cell (11c1c37f851c82e70ff6c80c92926a4b)
REM AIRSS Version 0.9.1 bugfix July 2018 build 013d7b7c2542+ Fri, 06 Jul 2018 19:26:36 +0100
REM compiler GCC version 9.3.0
REM options -cpp -mtune=generic -march=x86-64 -g -O0
REM seed -245509209 -1151849939 -197582608 -1448009962 1034154348 -1564964765 -178747027 -1418414478 -1896202724 -2105792323 136340463 1262871338 205726924 -1979341418 1304252643 2099804871 870448620 291789421 -1002490970 1948539131 611831771 -1223473422 677055734 -1981920415 -1844429730 1013858393 1866427835 1225250771 -1567585684 1328741974 -1112536213 234520084 61093487
REM
CELL 1.54180   50.00000   50.00000   50.00000   90.00000   90.00000   90.00000
LATT -1
SFAC C  
C      1  0.4393410000000  0.5333530000000  0.5106270000000 1.0
C      1  0.4698360000000  0.4956310000000  0.4816180000000 1.0
C      1  0.4971450000000  0.5312280000000  0.5145490000000 1.0
C      1  0.5298250000000  0.4655750000000  0.4408830000000 1.0
C      1  0.4485000000000  0.4829570000000  0.5713970000000 1.0
C      1  0.4956460000000  0.5512880000000  0.4437590000000 1.0
C      1  0.4953310000000  0.4314390000000  0.5461190000000 1.0
C      1  0.5146050000000  0.4890000000000  0.4605920000000 1.0
C      1  0.5028050000000  0.4731890000000  0.5047920000000 1.0
C      1  0.4608960000000  0.5706440000000  0.5278410000000 1.0
C      1  0.5363560000000  0.4105740000000  0.5285950000000 1.0
C      1  0.5111400000000  0.5578590000000  0.5232570000000 1.0
C      1  0.5144110000000  0.4926560000000  0.4039330000000 1.0
C      1  0.4210430000000  0.4804040000000  0.4734550000000 1.0
C      1  0.4981600000000  0.5084280000000  0.5326160000000 1.0
C      1  0.5374520000000  0.4842640000000  0.4185320000000 1.0
C      1  0.5484770000000  0.4448630000000  0.4804540000000 1.0
C      1  0.5541700000000  0.4539350000000  0.4532130000000 1.0
C      1  0.5246580000000  0.5553730000000  0.4377700000000 1.0
C      1  0.5632320000000  0.4658760000000  0.5301120000000 1.0
C      1  0.5260470000000  0.4978250000000  0.5374810000000 1.0
C      1  0.5031230000000  0.5740260000000  0.4988480000000 1.0
C      1  0.4730140000000  0.5685380000000  0.4969460000000 1.0
C      1  0.4339730000000  0.4550540000000  0.4802680000000 1.0
C      1  0.4418220000000  0.4437220000000  0.5063770000000 1.0
C      1  0.5801920000000  0.4576820000000  0.4432940000000 1.0
C      1  0.4761210000000  0.5790420000000  0.5492230000000 1.0
C      1  0.4500000000000  0.4887380000000  0.4357540000000 1.0
C      1  0.4792810000000  0.4480930000000  0.5631970000000 1.0
C      1  0.5353830000000  0.5245890000000  0.5768980000000 1.0
C      1  0.4283680000000  0.5264060000000  0.4600080000000 1.0
C      1  0.5335660000000  0.5678160000000  0.5578510000000 1.0
C      1  0.4584380000000  0.5665160000000  0.4728210000000 1.0
C      1  0.5735050000000  0.5077660000000  0.4462960000000 1.0
C      1  0.4935030000000  0.4800990000000  0.4782990000000 1.0
C      1  0.5139650000000  0.5184950000000  0.4149430000000 1.0
C      1  0.5010920000000  0.5097330000000  0.4435050000000 1.0
C      1  0.5427080000000  0.5594350000000  0.5285710000000 1.0
C      1  0.4973540000000  0.5308810000000  0.4646390000000 1.0
C      1  0.5016680000000  0.4306110000000  0.4634560000000 1.0
C      1  0.4715920000000  0.5240670000000  0.4753880000000 1.0
C      1  0.4530390000000  0.4453770000000  0.4609980000000 1.0
C      1  0.5696540000000  0.4935820000000  0.5365380000000 1.0
C      1  0.4885390000000  0.4839560000000  0.4121810000000 1.0
C      1  0.5050750000000  0.5703600000000  0.5502250000000 1.0
C      1  0.5127080000000  0.5261490000000  0.4890090000000 1.0
C      1  0.5060490000000  0.4467800000000  0.4396760000000 1.0
C      1  0.5390800000000  0.5661330000000  0.4597460000000 1.0
C      1  0.5497610000000  0.5745180000000  0.5041660000000 1.0
C      1  0.5300450000000  0.4854210000000  0.5079340000000 1.0
C      1  0.5266160000000  0.5026550000000  0.4841690000000 1.0
C      1  0.4695320000000  0.5368380000000  0.5757180000000 1.0
C      1  0.4723670000000  0.5060100000000  0.4274630000000 1.0
C      1  0.4601860000000  0.4903890000000  0.5081600000000 1.0
C      1  0.4836260000000  0.5144730000000  0.5882410000000 1.0
C      1  0.4524750000000  0.4577500000000  0.5568580000000 1.0
C      1  0.4653070000000  0.4274840000000  0.5017120000000 1.0
C      1  0.4837030000000  0.4176140000000  0.5224560000000 1.0
C      1  0.5292580000000  0.4756060000000  0.5586650000000 1.0
C      1  0.5578500000000  0.4659940000000  0.5007660000000 1.0
C      1  0.5770970000000  0.5267480000000  0.4677180000000 1.0
C      1  0.5817500000000  0.5110650000000  0.4917990000000 1.0
C      1  0.5272130000000  0.5769360000000  0.4842170000000 1.0
C      1  0.5406420000000  0.5521210000000  0.5793440000000 1.0
C      1  0.4838120000000  0.4864910000000  0.5231900000000 1.0
C      1  0.5361900000000  0.5327050000000  0.4225590000000 1.0
C      1  0.4701990000000  0.5380000000000  0.4322590000000 1.0
C      1  0.4739170000000  0.4296600000000  0.4738780000000 1.0
C      1  0.5666240000000  0.5546810000000  0.4690550000000 1.0
C      1  0.5004610000000  0.3970800000000  0.5126970000000 1.0
C      1  0.4690910000000  0.5381200000000  0.5010320000000 1.0
C      1  0.4843280000000  0.4595980000000  0.4260860000000 1.0
C      1  0.5255510000000  0.4269500000000  0.4808720000000 1.0
C      1  0.5758640000000  0.5158240000000  0.5190890000000 1.0
C      1  0.4429720000000  0.5489200000000  0.5350000000000 1.0
C      1  0.4339580000000  0.5036920000000  0.5154870000000 1.0
C      1  0.4586150000000  0.4612230000000  0.4379640000000 1.0
C      1  0.5530300000000  0.5084620000000  0.4267660000000 1.0
C      1  0.4197930000000  0.4959490000000  0.5391960000000 1.0
C      1  0.4126330000000  0.4690490000000  0.5373630000000 1.0
C      1  0.5258590000000  0.4309900000000  0.5444510000000 1.0
C      1  0.5240430000000  0.4087740000000  0.5033220000000 1.0
C      1  0.4895290000000  0.4675190000000  0.5823570000000 1.0
C      1  0.4828940000000  0.5606790000000  0.5686520000000 1.0
C      1  0.5148980000000  0.4806640000000  0.5820070000000 1.0
C      1  0.4465540000000  0.5319250000000  0.5592580000000 1.0
C      1  0.4148180000000  0.4997070000000  0.4931340000000 1.0
C      1  0.4343730000000  0.4526080000000  0.5338170000000 1.0
C      1  0.5777770000000  0.4834190000000  0.4860440000000 1.0
C      1  0.4712160000000  0.4887070000000  0.5867090000000 1.0
C      1  0.5429130000000  0.4540970000000  0.5477870000000 1.0
C      1  0.5791950000000  0.4811990000000  0.4575070000000 1.0
C      1  0.5594630000000  0.5350000000000  0.5330150000000 1.0
C      1  0.4348590000000  0.5056650000000  0.5608300000000 1.0
C      1  0.4199000000000  0.5271650000000  0.4870190000000 1.0
C      1  0.5741580000000  0.5705980000000  0.4914460000000 1.0
C      1  0.4524060000000  0.5429150000000  0.4553510000000 1.0
C      1  0.5124720000000  0.5089000000000  0.5868060000000 1.0
C      1  0.4288100000000  0.4976690000000  0.4517950000000 1.0
C      1  0.5475070000000  0.5137640000000  0.5502610000000 1.0
END
