TITL C-161234-5531-1 -13.1022802191888 125000 -449.470085195181 0 0 66 (C1) n - 1
REM
REM in /rds/project/t2_vol4/rds-t2-cs072/BORA/CARBON/from-Arr/AIRSS/Generating-Clusters/GAP-ML-2020/Only-C1/SD-CG/HFTN-CG
REM
REM
REM
REM
REM
REM ./C.cell (11c1c37f851c82e70ff6c80c92926a4b)
REM AIRSS Version 0.9.1 bugfix July 2018 build 013d7b7c2542+ Fri, 06 Jul 2018 19:26:36 +0100
REM compiler GCC version 9.3.0
REM options -cpp -mtune=generic -march=x86-64 -g -O0
REM seed -705810426 -1371609243 -436038372 1159548450 -1580423211 25147366 1184679394 340285056 -1400028685 -1739735684 -54328829 1771829384 179787426 1079028222 1261947204 1170995075 1107542003 -913019437 -4331810 -1484843797 1957205620 631550963 1795727966 1840190306 -1410607389 1495955531 510785446 -1453751855 -335264456 -1023944615 906946233 -2016626839 -1022929177
REM
CELL 1.54180   50.00000   50.00000   50.00000   90.00000   90.00000   90.00000
LATT -1
SFAC C  
C      1  0.4527720000000  0.4462650000000  0.4721690000000 1.0
C      1  0.4973250000000  0.5701410000000  0.4954970000000 1.0
C      1  0.4394880000000  0.4567980000000  0.5252920000000 1.0
C      1  0.5392040000000  0.4980620000000  0.5467970000000 1.0
C      1  0.4970840000000  0.5259910000000  0.4816090000000 1.0
C      1  0.4936330000000  0.5036660000000  0.5256830000000 1.0
C      1  0.4473170000000  0.5049250000000  0.5379940000000 1.0
C      1  0.4311640000000  0.4895710000000  0.4918490000000 1.0
C      1  0.5286210000000  0.5647910000000  0.4612640000000 1.0
C      1  0.4800660000000  0.5126070000000  0.5731000000000 1.0
C      1  0.5029390000000  0.4717100000000  0.5704150000000 1.0
C      1  0.5744290000000  0.4770290000000  0.5050050000000 1.0
C      1  0.4834140000000  0.4555060000000  0.5318100000000 1.0
C      1  0.4315260000000  0.5166110000000  0.4845770000000 1.0
C      1  0.5255010000000  0.4543790000000  0.4600440000000 1.0
C      1  0.4366160000000  0.4707390000000  0.4710670000000 1.0
C      1  0.5586180000000  0.4630920000000  0.5231170000000 1.0
C      1  0.5126770000000  0.4477970000000  0.5320350000000 1.0
C      1  0.4693910000000  0.4583110000000  0.4511040000000 1.0
C      1  0.4779310000000  0.4694290000000  0.5571770000000 1.0
C      1  0.5474670000000  0.5318180000000  0.4913720000000 1.0
C      1  0.4985830000000  0.5255280000000  0.5086950000000 1.0
C      1  0.5450110000000  0.5506350000000  0.5135940000000 1.0
C      1  0.5008230000000  0.4927640000000  0.4475870000000 1.0
C      1  0.5030360000000  0.5346830000000  0.4325180000000 1.0
C      1  0.5268790000000  0.5135400000000  0.5677180000000 1.0
C      1  0.4446640000000  0.4838770000000  0.5174490000000 1.0
C      1  0.4649010000000  0.4307250000000  0.4928590000000 1.0
C      1  0.5234300000000  0.5778900000000  0.4865990000000 1.0
C      1  0.4439520000000  0.5376040000000  0.5012290000000 1.0
C      1  0.4889090000000  0.4174870000000  0.4877880000000 1.0
C      1  0.4507240000000  0.4803590000000  0.4475060000000 1.0
C      1  0.5024430000000  0.5576420000000  0.4495530000000 1.0
C      1  0.5451710000000  0.4702980000000  0.4513890000000 1.0
C      1  0.4442320000000  0.5265640000000  0.4606190000000 1.0
C      1  0.4628230000000  0.4945840000000  0.5594230000000 1.0
C      1  0.5203210000000  0.4967930000000  0.5245990000000 1.0
C      1  0.5374760000000  0.5028650000000  0.4837900000000 1.0
C      1  0.5792830000000  0.4881590000000  0.4822170000000 1.0
C      1  0.4962400000000  0.4671480000000  0.4601520000000 1.0
C      1  0.5154210000000  0.5104850000000  0.4654350000000 1.0
C      1  0.4513420000000  0.5323210000000  0.5282760000000 1.0
C      1  0.4840490000000  0.5126710000000  0.4352470000000 1.0
C      1  0.5243990000000  0.4816580000000  0.5007520000000 1.0
C      1  0.5324640000000  0.4526540000000  0.5089890000000 1.0
C      1  0.5050900000000  0.4986510000000  0.5776680000000 1.0
C      1  0.5141490000000  0.4120200000000  0.4858320000000 1.0
C      1  0.4869580000000  0.5377110000000  0.5615880000000 1.0
C      1  0.4564540000000  0.5480150000000  0.4762020000000 1.0
C      1  0.4969930000000  0.4751550000000  0.4902370000000 1.0
C      1  0.5282250000000  0.4363620000000  0.4840110000000 1.0
C      1  0.5542920000000  0.5218000000000  0.4464720000000 1.0
C      1  0.5240230000000  0.4585240000000  0.5553450000000 1.0
C      1  0.5279090000000  0.5220140000000  0.4400080000000 1.0
C      1  0.4604570000000  0.4400740000000  0.5199700000000 1.0
C      1  0.4569130000000  0.5083690000000  0.4422300000000 1.0
C      1  0.4736610000000  0.5476590000000  0.5390280000000 1.0
C      1  0.5490860000000  0.4717640000000  0.5488160000000 1.0
C      1  0.5449830000000  0.5760600000000  0.5028330000000 1.0
C      1  0.5227970000000  0.5517400000000  0.5348100000000 1.0
C      1  0.4849520000000  0.5544860000000  0.4738200000000 1.0
C      1  0.5587220000000  0.4943170000000  0.4617350000000 1.0
C      1  0.5489500000000  0.5435710000000  0.4649160000000 1.0
C      1  0.4961200000000  0.5546320000000  0.5206610000000 1.0
C      1  0.4791220000000  0.4806570000000  0.5126650000000 1.0
C      1  0.5163820000000  0.5382510000000  0.5581940000000 1.0
END
