TITL C-161229-5396-9 -0.117156041212596 125000 -462.764589347123 0 0 68 (C1) n - 1
REM
REM in /rds/project/t2_vol4/rds-t2-cs072/BORA/CARBON/from-Arr/AIRSS/Generating-Clusters/GAP-ML-2020/Only-C1/SD-CG/HFTN-CG
REM
REM
REM
REM
REM
REM ./C.cell (11c1c37f851c82e70ff6c80c92926a4b)
REM AIRSS Version 0.9.1 bugfix July 2018 build 013d7b7c2542+ Fri, 06 Jul 2018 19:26:36 +0100
REM compiler GCC version 9.3.0
REM options -cpp -mtune=generic -march=x86-64 -g -O0
REM seed -1349383288 583838944 1875018486 -1640705937 -84483670 -308283533 -248828303 1944142892 -1097853436 1407168081 -1254464302 569999746 -1080824569 1415299653 1807050317 -1691765555 1449272117 857926114 -1375538322 -2108927029 1663150417 1830591552 -1584930516 -2113189790 -1400094172 1667725044 1868825953 990664968 -1508189602 1433871852 321851202 -1704680016 -277202658
REM
CELL 1.54180   50.00000   50.00000   50.00000   90.00000   90.00000   90.00000
LATT -1
SFAC C  
C      1  0.5172690000000  0.4968870000000  0.4844910000000 1.0
C      1  0.5735560000000  0.4827270000000  0.5154720000000 1.0
C      1  0.4887920000000  0.4607700000000  0.4775080000000 1.0
C      1  0.5339290000000  0.5599220000000  0.4689450000000 1.0
C      1  0.4821770000000  0.4331030000000  0.4715580000000 1.0
C      1  0.4593260000000  0.4764920000000  0.4346430000000 1.0
C      1  0.4590460000000  0.4535930000000  0.5146860000000 1.0
C      1  0.5238790000000  0.4686500000000  0.4430310000000 1.0
C      1  0.4445900000000  0.5400570000000  0.4935430000000 1.0
C      1  0.4572900000000  0.5278150000000  0.5496400000000 1.0
C      1  0.4326140000000  0.4697360000000  0.4782180000000 1.0
C      1  0.4335850000000  0.4762910000000  0.5315720000000 1.0
C      1  0.5799250000000  0.5100570000000  0.5267280000000 1.0
C      1  0.5061910000000  0.4558710000000  0.4257110000000 1.0
C      1  0.4652910000000  0.4375540000000  0.4497490000000 1.0
C      1  0.4880410000000  0.5479380000000  0.4831170000000 1.0
C      1  0.5599090000000  0.5605470000000  0.4785810000000 1.0
C      1  0.4320740000000  0.5050890000000  0.5288260000000 1.0
C      1  0.4459160000000  0.4596200000000  0.4549860000000 1.0
C      1  0.5433580000000  0.5381750000000  0.5206450000000 1.0
C      1  0.5017660000000  0.5559090000000  0.5392000000000 1.0
C      1  0.4795550000000  0.5071550000000  0.5533990000000 1.0
C      1  0.4719600000000  0.5464990000000  0.4573060000000 1.0
C      1  0.4826990000000  0.4760090000000  0.5489420000000 1.0
C      1  0.5135500000000  0.5606380000000  0.4894280000000 1.0
C      1  0.4996520000000  0.4698900000000  0.5228790000000 1.0
C      1  0.5209910000000  0.5576090000000  0.5169660000000 1.0
C      1  0.5612430000000  0.5259350000000  0.5412840000000 1.0
C      1  0.5117640000000  0.4725730000000  0.4686350000000 1.0
C      1  0.5489680000000  0.5139250000000  0.5646110000000 1.0
C      1  0.5508940000000  0.4870990000000  0.5668790000000 1.0
C      1  0.5235890000000  0.4884150000000  0.5130670000000 1.0
C      1  0.5040840000000  0.4220760000000  0.5116340000000 1.0
C      1  0.4316470000000  0.4982340000000  0.4776240000000 1.0
C      1  0.4897050000000  0.5163340000000  0.5257280000000 1.0
C      1  0.5138680000000  0.5473580000000  0.5615370000000 1.0
C      1  0.4428220000000  0.5120400000000  0.5017820000000 1.0
C      1  0.5822750000000  0.5202510000000  0.4997560000000 1.0
C      1  0.4303870000000  0.5248440000000  0.5493370000000 1.0
C      1  0.5776210000000  0.4942550000000  0.4870620000000 1.0
C      1  0.4799990000000  0.5266070000000  0.4374080000000 1.0
C      1  0.5050960000000  0.4779040000000  0.5692820000000 1.0
C      1  0.5332210000000  0.5163190000000  0.4421180000000 1.0
C      1  0.4594850000000  0.5052830000000  0.4366990000000 1.0
C      1  0.4459270000000  0.5399030000000  0.4654240000000 1.0
C      1  0.4762850000000  0.5435090000000  0.5301880000000 1.0
C      1  0.5230610000000  0.5250900000000  0.5737000000000 1.0
C      1  0.5080960000000  0.5292230000000  0.4327430000000 1.0
C      1  0.4675030000000  0.5521770000000  0.5040310000000 1.0
C      1  0.4385370000000  0.5144000000000  0.4551030000000 1.0
C      1  0.5457330000000  0.4883930000000  0.4400000000000 1.0
C      1  0.4795000000000  0.4554310000000  0.4292820000000 1.0
C      1  0.4921530000000  0.5133630000000  0.4847400000000 1.0
C      1  0.5609000000000  0.4910700000000  0.4650190000000 1.0
C      1  0.5642480000000  0.5427810000000  0.4988370000000 1.0
C      1  0.5195900000000  0.5132190000000  0.5263120000000 1.0
C      1  0.5311180000000  0.4680050000000  0.5629480000000 1.0
C      1  0.4576580000000  0.4629350000000  0.5421800000000 1.0
C      1  0.5012780000000  0.5060580000000  0.5731220000000 1.0
C      1  0.4334290000000  0.4606750000000  0.5056370000000 1.0
C      1  0.4744950000000  0.5014860000000  0.5035680000000 1.0
C      1  0.5122560000000  0.4425350000000  0.5270420000000 1.0
C      1  0.5395490000000  0.5103140000000  0.4712910000000 1.0
C      1  0.5367100000000  0.4525250000000  0.5386870000000 1.0
C      1  0.5484300000000  0.4718200000000  0.5203140000000 1.0
C      1  0.4794650000000  0.4711260000000  0.5023410000000 1.0
C      1  0.5275850000000  0.5449660000000  0.4438530000000 1.0
C      1  0.4928950000000  0.4149370000000  0.4894210000000 1.0
END
