TITL C-161216-3198-8 -38.5006088550453 125000 -369.481502096033 0 0 52 (C1) n - 1
REM
REM in /rds/project/t2_vol4/rds-t2-cs072/BORA/CARBON/from-Arr/AIRSS/Generating-Clusters/GAP-ML-2020/Only-C1/SD-CG/HFTN-CG
REM
REM
REM
REM
REM
REM ./C.cell (11c1c37f851c82e70ff6c80c92926a4b)
REM AIRSS Version 0.9.1 bugfix July 2018 build 013d7b7c2542+ Fri, 06 Jul 2018 19:26:36 +0100
REM compiler GCC version 9.3.0
REM options -cpp -mtune=generic -march=x86-64 -g -O0
REM seed 1169873919 936573824 -433569919 -828519047 -886972113 -711944624 -1366901164 1588058180 -1667255599 1003888987 -446196981 -558094098 143490466 954436484 -21779516 287380339 -714238126 1132684369 -389568926 1915327637 963170997 -479686344 929309517 -1259002017 287696825 -1367679510 -1006197618 1807673653 -751584194 -1632783604 1473795422 467246541 -1684112403
REM
CELL 1.54180   50.00000   50.00000   50.00000   90.00000   90.00000   90.00000
LATT -1
SFAC C  
C      1  0.4964490000000  0.4399880000000  0.4726860000000 1.0
C      1  0.4538290000000  0.4676580000000  0.4737560000000 1.0
C      1  0.4434210000000  0.4769480000000  0.4993530000000 1.0
C      1  0.5061310000000  0.4999710000000  0.4342560000000 1.0
C      1  0.5219300000000  0.5398890000000  0.4521800000000 1.0
C      1  0.4969780000000  0.4699400000000  0.5526430000000 1.0
C      1  0.5421690000000  0.4855950000000  0.5455140000000 1.0
C      1  0.4808910000000  0.5387220000000  0.5534210000000 1.0
C      1  0.5499550000000  0.5291890000000  0.5285130000000 1.0
C      1  0.4818420000000  0.5382440000000  0.5090960000000 1.0
C      1  0.5428020000000  0.5198440000000  0.4570500000000 1.0
C      1  0.5563150000000  0.5200190000000  0.4828850000000 1.0
C      1  0.4680010000000  0.4713910000000  0.5434050000000 1.0
C      1  0.4791080000000  0.5125180000000  0.5627020000000 1.0
C      1  0.4445280000000  0.5147400000000  0.5305390000000 1.0
C      1  0.4626900000000  0.4860220000000  0.4536240000000 1.0
C      1  0.5644270000000  0.4683640000000  0.4896480000000 1.0
C      1  0.5651980000000  0.4964930000000  0.4985730000000 1.0
C      1  0.5304890000000  0.5317510000000  0.5495650000000 1.0
C      1  0.5237630000000  0.4622890000000  0.5405830000000 1.0
C      1  0.5273660000000  0.5053780000000  0.5607600000000 1.0
C      1  0.5014700000000  0.4952780000000  0.5661240000000 1.0
C      1  0.5095520000000  0.4315500000000  0.5003720000000 1.0
C      1  0.5102570000000  0.5570510000000  0.4718040000000 1.0
C      1  0.4752620000000  0.5343360000000  0.4493680000000 1.0
C      1  0.4897260000000  0.5140710000000  0.4939380000000 1.0
C      1  0.4561970000000  0.5141110000000  0.4575740000000 1.0
C      1  0.5562190000000  0.4591780000000  0.4646000000000 1.0
C      1  0.4497060000000  0.5623230000000  0.5143800000000 1.0
C      1  0.4876040000000  0.4218510000000  0.5160420000000 1.0
C      1  0.5041650000000  0.4955990000000  0.5013710000000 1.0
C      1  0.4548850000000  0.4597740000000  0.5202710000000 1.0
C      1  0.4802620000000  0.5547970000000  0.4686170000000 1.0
C      1  0.4590870000000  0.5498480000000  0.4896800000000 1.0
C      1  0.5475390000000  0.5410740000000  0.5020840000000 1.0
C      1  0.4997820000000  0.5269730000000  0.4380460000000 1.0
C      1  0.4690770000000  0.4441020000000  0.4791420000000 1.0
C      1  0.5308670000000  0.4447410000000  0.5177080000000 1.0
C      1  0.5243400000000  0.5580340000000  0.4973830000000 1.0
C      1  0.4448040000000  0.5232000000000  0.4819820000000 1.0
C      1  0.4664160000000  0.4372790000000  0.5073120000000 1.0
C      1  0.5328590000000  0.4956880000000  0.4433850000000 1.0
C      1  0.4388270000000  0.5050120000000  0.5036100000000 1.0
C      1  0.5587750000000  0.5016160000000  0.5266060000000 1.0
C      1  0.4884670000000  0.4786540000000  0.4418650000000 1.0
C      1  0.5060320000000  0.4576260000000  0.4521420000000 1.0
C      1  0.5564030000000  0.4498150000000  0.5087560000000 1.0
C      1  0.5044890000000  0.5567550000000  0.5179260000000 1.0
C      1  0.4585280000000  0.4979130000000  0.5487410000000 1.0
C      1  0.5074470000000  0.5477730000000  0.5448300000000 1.0
C      1  0.5342050000000  0.4677700000000  0.4511160000000 1.0
C      1  0.4584700000000  0.5412580000000  0.5324710000000 1.0
END
