TITL C-160265-8248-2 5.19515582211197 125000 -191.570431622147 0 0 29 (C1) n - 1
REM
REM in /rds/project/t2_vol4/rds-t2-cs072/BORA/CARBON/from-Arr/AIRSS/Generating-Clusters/GAP-ML-2020/Only-C1/SD-CG/HFTN-CG
REM
REM
REM
REM
REM
REM ./C.cell (11c1c37f851c82e70ff6c80c92926a4b)
REM AIRSS Version 0.9.1 bugfix July 2018 build 013d7b7c2542+ Fri, 06 Jul 2018 19:26:36 +0100
REM compiler GCC version 9.3.0
REM options -cpp -mtune=generic -march=x86-64 -g -O0
REM seed 1471626240 1673527998 -1518581108 145448347 255873638 2074768213 1616090340 -759760793 21476267 1546662904 1600185563 1879976606 43179648 -1327561748 -1211383447 -1416871394 -1689160547 29626120 -403756409 -732773656 345482435 438228841 414001341 1326054570 457056007 1892448960 17108702 -1377746131 1097891028 -380186372 286657396 -822920913 -729049103
REM
CELL 1.54180   50.00000   50.00000   50.00000   90.00000   90.00000   90.00000
LATT -1
SFAC C  
C      1  0.5084820000000  0.4761670000000  0.5392830000000 1.0
C      1  0.5072190000000  0.4629590000000  0.4517300000000 1.0
C      1  0.5323640000000  0.5320830000000  0.4838000000000 1.0
C      1  0.4529820000000  0.5043630000000  0.5183850000000 1.0
C      1  0.4942250000000  0.4845620000000  0.4427570000000 1.0
C      1  0.5278790000000  0.4955070000000  0.5297550000000 1.0
C      1  0.5189430000000  0.4594120000000  0.4775510000000 1.0
C      1  0.4986110000000  0.4534220000000  0.5233500000000 1.0
C      1  0.5291420000000  0.5165520000000  0.4582700000000 1.0
C      1  0.5065600000000  0.5118290000000  0.4432480000000 1.0
C      1  0.4763250000000  0.5437630000000  0.5320660000000 1.0
C      1  0.4978610000000  0.5320380000000  0.5482090000000 1.0
C      1  0.4691080000000  0.4529040000000  0.5254450000000 1.0
C      1  0.5132320000000  0.5362750000000  0.5040670000000 1.0
C      1  0.4790910000000  0.5120330000000  0.5577700000000 1.0
C      1  0.5189350000000  0.5239580000000  0.5306150000000 1.0
C      1  0.4838060000000  0.4858580000000  0.5492690000000 1.0
C      1  0.5488480000000  0.4979140000000  0.4670500000000 1.0
C      1  0.5539890000000  0.5142360000000  0.4919580000000 1.0
C      1  0.5414700000000  0.4756580000000  0.4840740000000 1.0
C      1  0.4644160000000  0.5186140000000  0.4936610000000 1.0
C      1  0.4620420000000  0.4784980000000  0.5303940000000 1.0
C      1  0.4848360000000  0.5287830000000  0.4493070000000 1.0
C      1  0.4667610000000  0.5129490000000  0.4656100000000 1.0
C      1  0.5081580000000  0.4467060000000  0.4996350000000 1.0
C      1  0.5458660000000  0.4911650000000  0.5084600000000 1.0
C      1  0.4669670000000  0.4895200000000  0.4496450000000 1.0
C      1  0.4579300000000  0.5233730000000  0.5403030000000 1.0
C      1  0.4839520000000  0.5388990000000  0.5043330000000 1.0
END
