TITL C-161218-3279-2 25.4055080211218 125000 -315.742521141516 0 0 47 (C1) n - 1
REM
REM in /rds/project/t2_vol4/rds-t2-cs072/BORA/CARBON/from-Arr/AIRSS/Generating-Clusters/GAP-ML-2020/Only-C1/SD-CG/HFTN-CG
REM
REM
REM
REM
REM
REM ./C.cell (11c1c37f851c82e70ff6c80c92926a4b)
REM AIRSS Version 0.9.1 bugfix July 2018 build 013d7b7c2542+ Fri, 06 Jul 2018 19:26:36 +0100
REM compiler GCC version 9.3.0
REM options -cpp -mtune=generic -march=x86-64 -g -O0
REM seed 22019622 1789655594 -1849217187 297999892 -201986247 2121635389 758558135 -1088861110 895180289 380442983 -76602222 833708824 1580679362 -441911395 601868801 -687755573 904181314 1042107381 -584532238 -1848756960 -1889467697 1960047311 1001087347 456727574 1653810002 -1374473094 -2111257978 869275302 1608410401 1486040792 1915327835 462971512 -4037898
REM
CELL 1.54180   50.00000   50.00000   50.00000   90.00000   90.00000   90.00000
LATT -1
SFAC C  
C      1  0.4549160000000  0.5227710000000  0.5033370000000 1.0
C      1  0.5666500000000  0.5295600000000  0.5024850000000 1.0
C      1  0.4756800000000  0.5267960000000  0.4559560000000 1.0
C      1  0.5245960000000  0.4938910000000  0.5474600000000 1.0
C      1  0.5154790000000  0.5012180000000  0.4994920000000 1.0
C      1  0.4780900000000  0.4737380000000  0.4580580000000 1.0
C      1  0.4945050000000  0.4859810000000  0.5102690000000 1.0
C      1  0.5280730000000  0.5372770000000  0.5323060000000 1.0
C      1  0.4602380000000  0.4501790000000  0.5063000000000 1.0
C      1  0.4374350000000  0.4439730000000  0.4917670000000 1.0
C      1  0.5498930000000  0.4961630000000  0.5336130000000 1.0
C      1  0.5317800000000  0.5306910000000  0.4680870000000 1.0
C      1  0.4636750000000  0.5009350000000  0.5516930000000 1.0
C      1  0.4884960000000  0.5010400000000  0.4561640000000 1.0
C      1  0.5200000000000  0.5529040000000  0.4857910000000 1.0
C      1  0.5127720000000  0.4385440000000  0.5071250000000 1.0
C      1  0.4518580000000  0.4652970000000  0.4495050000000 1.0
C      1  0.4993960000000  0.4517630000000  0.4619330000000 1.0
C      1  0.4952500000000  0.5474560000000  0.4471890000000 1.0
C      1  0.4395440000000  0.5134780000000  0.5453400000000 1.0
C      1  0.5144420000000  0.5533410000000  0.5136190000000 1.0
C      1  0.4847040000000  0.5216660000000  0.5440770000000 1.0
C      1  0.5687030000000  0.4786420000000  0.5243860000000 1.0
C      1  0.4708140000000  0.4503210000000  0.5336030000000 1.0
C      1  0.5575440000000  0.4905400000000  0.4780270000000 1.0
C      1  0.5344390000000  0.4535280000000  0.4942270000000 1.0
C      1  0.4711780000000  0.5470300000000  0.5359270000000 1.0
C      1  0.5518030000000  0.5236990000000  0.5244490000000 1.0
C      1  0.5356150000000  0.4841670000000  0.4614340000000 1.0
C      1  0.5211770000000  0.5386700000000  0.4416500000000 1.0
C      1  0.5003510000000  0.4459350000000  0.5316990000000 1.0
C      1  0.5149390000000  0.5045280000000  0.4704040000000 1.0
C      1  0.4801110000000  0.4667640000000  0.4928360000000 1.0
C      1  0.4765040000000  0.5611030000000  0.4887120000000 1.0
C      1  0.4924870000000  0.4405590000000  0.4871300000000 1.0
C      1  0.4786260000000  0.5088430000000  0.5156770000000 1.0
C      1  0.4365730000000  0.4518080000000  0.4662470000000 1.0
C      1  0.4865220000000  0.5597630000000  0.5164070000000 1.0
C      1  0.5569170000000  0.5188010000000  0.4798540000000 1.0
C      1  0.4982130000000  0.5638590000000  0.4710120000000 1.0
C      1  0.4619710000000  0.5377710000000  0.4802470000000 1.0
C      1  0.5129720000000  0.5196080000000  0.5483920000000 1.0
C      1  0.5040620000000  0.4742880000000  0.5405050000000 1.0
C      1  0.4447390000000  0.5348780000000  0.5276140000000 1.0
C      1  0.4747630000000  0.4745820000000  0.5502990000000 1.0
C      1  0.5557220000000  0.4728050000000  0.5007120000000 1.0
C      1  0.5257840000000  0.4588480000000  0.4669830000000 1.0
END
