TITL C-162445-2413-6 -0.0364217348303687 125000 -216.988254138668 0 0 33 (C1) n - 1
REM
REM in /rds/project/t2_vol4/rds-t2-cs072/BORA/CARBON/from-Arr/AIRSS/Generating-Clusters/GAP-ML-2020/Only-C1/SD-CG/HFTN-CG
REM
REM
REM
REM
REM
REM ./C.cell (11c1c37f851c82e70ff6c80c92926a4b)
REM AIRSS Version 0.9.1 bugfix July 2018 build 013d7b7c2542+ Fri, 06 Jul 2018 19:26:36 +0100
REM compiler GCC version 9.3.0
REM options -cpp -mtune=generic -march=x86-64 -g -O0
REM seed 819239480 2139969928 -949146395 1091539668 -1930771002 -452910192 869247270 83546823 -1960815349 -2018297075 760667270 -1083149708 1457017540 -2048916623 -764926688 310515359 -836610102 -1631228286 -1453983528 1894025108 843838811 -159116079 -542978949 1940268104 -1704809214 -2124865672 1814047929 174420491 -1575500727 -2019520904 1067879557 1366408300 -1875118975
REM
CELL 1.54180   50.00000   50.00000   50.00000   90.00000   90.00000   90.00000
LATT -1
SFAC C  
C      1  0.4422140000000  0.4761950000000  0.5157630000000 1.0
C      1  0.5144940000000  0.5266230000000  0.5538870000000 1.0
C      1  0.4762170000000  0.5336280000000  0.5442300000000 1.0
C      1  0.5133980000000  0.5022750000000  0.4948650000000 1.0
C      1  0.5162940000000  0.4477670000000  0.4920310000000 1.0
C      1  0.4709220000000  0.4561410000000  0.4814540000000 1.0
C      1  0.4796950000000  0.5377620000000  0.5157990000000 1.0
C      1  0.4909640000000  0.4771170000000  0.4442620000000 1.0
C      1  0.4648710000000  0.5055130000000  0.5460420000000 1.0
C      1  0.4756800000000  0.4810000000000  0.4688160000000 1.0
C      1  0.5034550000000  0.5542860000000  0.4734620000000 1.0
C      1  0.4857760000000  0.4628950000000  0.5278200000000 1.0
C      1  0.5320120000000  0.4938820000000  0.4740440000000 1.0
C      1  0.4685480000000  0.5151200000000  0.5034460000000 1.0
C      1  0.5199830000000  0.5117950000000  0.4506850000000 1.0
C      1  0.4857120000000  0.5007060000000  0.4867130000000 1.0
C      1  0.5228550000000  0.5385130000000  0.4623820000000 1.0
C      1  0.5547540000000  0.5124000000000  0.4821510000000 1.0
C      1  0.5251000000000  0.5021500000000  0.5219920000000 1.0
C      1  0.5289610000000  0.4646670000000  0.4705210000000 1.0
C      1  0.4498100000000  0.5014570000000  0.5214630000000 1.0
C      1  0.5035230000000  0.4997960000000  0.4336070000000 1.0
C      1  0.4942120000000  0.4411720000000  0.4740910000000 1.0
C      1  0.4942540000000  0.5416640000000  0.5639710000000 1.0
C      1  0.4864000000000  0.4861900000000  0.5455320000000 1.0
C      1  0.4625280000000  0.4593470000000  0.5097000000000 1.0
C      1  0.5018260000000  0.5501820000000  0.5013490000000 1.0
C      1  0.5436680000000  0.5369270000000  0.4841880000000 1.0
C      1  0.5095440000000  0.4537420000000  0.5172040000000 1.0
C      1  0.5081390000000  0.4552600000000  0.4515200000000 1.0
C      1  0.5117110000000  0.4979090000000  0.5474130000000 1.0
C      1  0.5321370000000  0.5294720000000  0.5309920000000 1.0
C      1  0.5303440000000  0.5464490000000  0.5086060000000 1.0
END
