TITL C-167826-8054-9 -0.0599109816877904 125000 -368.44882217359 0 0 54 (C1) n - 1
REM
REM in /rds/project/t2_vol4/rds-t2-cs072/BORA/CARBON/from-Arr/AIRSS/Generating-Clusters/GAP-ML-2020/Only-C1/SD-CG/HFTN-CG
REM
REM
REM
REM
REM
REM ./C.cell (11c1c37f851c82e70ff6c80c92926a4b)
REM AIRSS Version 0.9.1 bugfix July 2018 build 013d7b7c2542+ Fri, 06 Jul 2018 19:26:36 +0100
REM compiler GCC version 9.3.0
REM options -cpp -mtune=generic -march=x86-64 -g -O0
REM seed 609890008 286057868 -1592980253 1515836878 -1284827893 -1973724581 1944521434 -84279866 -1184429223 -1896757228 -1061270136 470597729 256692044 308755826 1079093186 -272772593 595614976 1773866719 1380201203 2004428896 -947648559 -518538567 -407939476 1974110634 -1074129484 1937794061 -1610741572 803422747 -353296415 -124394428 -459675258 834681263 258453473
REM
CELL 1.54180   50.00000   50.00000   50.00000   90.00000   90.00000   90.00000
LATT -1
SFAC C  
C      1  0.4753790000000  0.5523400000000  0.4986760000000 1.0
C      1  0.5187710000000  0.5404560000000  0.5670160000000 1.0
C      1  0.5045560000000  0.4977880000000  0.4474420000000 1.0
C      1  0.4528270000000  0.4489580000000  0.4941470000000 1.0
C      1  0.5212370000000  0.5609650000000  0.4955680000000 1.0
C      1  0.5180470000000  0.5227790000000  0.4460000000000 1.0
C      1  0.5438790000000  0.5458310000000  0.4849520000000 1.0
C      1  0.4490690000000  0.4614240000000  0.4685330000000 1.0
C      1  0.4751620000000  0.4935840000000  0.4974440000000 1.0
C      1  0.5476950000000  0.4448950000000  0.5093010000000 1.0
C      1  0.5140250000000  0.5592900000000  0.5232080000000 1.0
C      1  0.4573200000000  0.5320610000000  0.4584590000000 1.0
C      1  0.4940410000000  0.4710670000000  0.5599410000000 1.0
C      1  0.4698000000000  0.4999860000000  0.5275690000000 1.0
C      1  0.5472190000000  0.4498470000000  0.4798650000000 1.0
C      1  0.4372530000000  0.4874560000000  0.4679670000000 1.0
C      1  0.4479090000000  0.4612620000000  0.5191730000000 1.0
C      1  0.5195430000000  0.4578530000000  0.5603860000000 1.0
C      1  0.5437610000000  0.4567960000000  0.5541680000000 1.0
C      1  0.4929940000000  0.5659580000000  0.4546710000000 1.0
C      1  0.5192630000000  0.4368640000000  0.5079170000000 1.0
C      1  0.4969900000000  0.4948860000000  0.5735470000000 1.0
C      1  0.5434490000000  0.4760800000000  0.4702210000000 1.0
C      1  0.5603090000000  0.5342520000000  0.5056640000000 1.0
C      1  0.4912050000000  0.5188120000000  0.5347560000000 1.0
C      1  0.5033600000000  0.4948650000000  0.4959020000000 1.0
C      1  0.4773700000000  0.4895460000000  0.4437040000000 1.0
C      1  0.4415000000000  0.5074410000000  0.5268120000000 1.0
C      1  0.5309050000000  0.5503830000000  0.5438300000000 1.0
C      1  0.5134820000000  0.5040670000000  0.5199920000000 1.0
C      1  0.4770550000000  0.4672080000000  0.5342960000000 1.0
C      1  0.4745140000000  0.5482280000000  0.4425590000000 1.0
C      1  0.4969570000000  0.4518580000000  0.4693910000000 1.0
C      1  0.4934450000000  0.4465390000000  0.5165690000000 1.0
C      1  0.5023850000000  0.5455540000000  0.4367310000000 1.0
C      1  0.5006130000000  0.5205230000000  0.5635300000000 1.0
C      1  0.4262100000000  0.4967820000000  0.4920080000000 1.0
C      1  0.4796390000000  0.4417180000000  0.4928410000000 1.0
C      1  0.5677590000000  0.5066570000000  0.4988200000000 1.0
C      1  0.4541820000000  0.5047110000000  0.4518400000000 1.0
C      1  0.5208370000000  0.4362430000000  0.4783750000000 1.0
C      1  0.5568160000000  0.5013180000000  0.4724610000000 1.0
C      1  0.4308390000000  0.4827300000000  0.5166070000000 1.0
C      1  0.5608590000000  0.4898460000000  0.5216830000000 1.0
C      1  0.4961020000000  0.5641350000000  0.4822550000000 1.0
C      1  0.4533310000000  0.5383740000000  0.4869200000000 1.0
C      1  0.4358620000000  0.5222970000000  0.5021850000000 1.0
C      1  0.5502910000000  0.5338010000000  0.5321550000000 1.0
C      1  0.5399460000000  0.5064010000000  0.5319170000000 1.0
C      1  0.5572040000000  0.4626530000000  0.5289340000000 1.0
C      1  0.5139350000000  0.4806520000000  0.4700280000000 1.0
C      1  0.5412630000000  0.5252870000000  0.4638700000000 1.0
C      1  0.4738400000000  0.4625460000000  0.4538050000000 1.0
C      1  0.4878000000000  0.5461480000000  0.5233850000000 1.0
END
