TITL C-166708-7384-9 -82.5815909037539 125000 -834.648137757688 0 0 118 (C1) n - 1
REM
REM in /rds/project/t2_vol4/rds-t2-cs072/BORA/CARBON/from-Arr/AIRSS/Generating-Clusters/GAP-ML-2020/Only-C1/SD-CG/HFTN-CG
REM
REM
REM
REM
REM
REM ./C.cell (11c1c37f851c82e70ff6c80c92926a4b)
REM AIRSS Version 0.9.1 bugfix July 2018 build 013d7b7c2542+ Fri, 06 Jul 2018 19:26:36 +0100
REM compiler GCC version 9.3.0
REM options -cpp -mtune=generic -march=x86-64 -g -O0
REM seed 1787686428 1732058956 -112357105 -1829727453 -1419491620 2099047535 -1334698617 -1371607682 1010034481 611580012 -1539253836 -1214665543 89651481 -1905275892 1040124863 437737581 2147259671 1939583181 -890200952 -1571547015 499353764 1902865415 820251761 -724908635 1756562657 -1568090937 -212458935 -1404323313 -1893621954 1501691500 -374376723 -1171314760 1894708821
REM
CELL 1.54180   50.00000   50.00000   50.00000   90.00000   90.00000   90.00000
LATT -1
SFAC C  
C      1  0.4511060000000  0.4231960000000  0.5083440000000 1.0
C      1  0.4724390000000  0.4991390000000  0.4764730000000 1.0
C      1  0.5428370000000  0.4490680000000  0.4808990000000 1.0
C      1  0.5080350000000  0.5855380000000  0.4608910000000 1.0
C      1  0.5354770000000  0.5121770000000  0.5992480000000 1.0
C      1  0.4190120000000  0.4567590000000  0.5398430000000 1.0
C      1  0.4231360000000  0.4610460000000  0.4502200000000 1.0
C      1  0.4669890000000  0.5134410000000  0.5647750000000 1.0
C      1  0.5817010000000  0.5116480000000  0.5454900000000 1.0
C      1  0.5720850000000  0.5082640000000  0.4440880000000 1.0
C      1  0.4849290000000  0.4613610000000  0.5210750000000 1.0
C      1  0.4883590000000  0.5394710000000  0.5011000000000 1.0
C      1  0.4799020000000  0.4337120000000  0.5055300000000 1.0
C      1  0.5906600000000  0.4716170000000  0.4674440000000 1.0
C      1  0.5529130000000  0.4925370000000  0.4978900000000 1.0
C      1  0.5105590000000  0.5308800000000  0.4145490000000 1.0
C      1  0.4864500000000  0.5261280000000  0.4738110000000 1.0
C      1  0.4583210000000  0.4746820000000  0.5154180000000 1.0
C      1  0.5162370000000  0.4410410000000  0.5509470000000 1.0
C      1  0.5563750000000  0.4632880000000  0.4269800000000 1.0
C      1  0.4902730000000  0.5603300000000  0.5639130000000 1.0
C      1  0.4311630000000  0.5309990000000  0.5309490000000 1.0
C      1  0.4835200000000  0.5221010000000  0.4131600000000 1.0
C      1  0.4885090000000  0.4328730000000  0.4330570000000 1.0
C      1  0.4389880000000  0.5339740000000  0.4357780000000 1.0
C      1  0.5122270000000  0.5039960000000  0.5025180000000 1.0
C      1  0.5273100000000  0.4309520000000  0.5243820000000 1.0
C      1  0.5602220000000  0.4728070000000  0.5209020000000 1.0
C      1  0.5334040000000  0.5369230000000  0.4547470000000 1.0
C      1  0.5175040000000  0.5511470000000  0.4325520000000 1.0
C      1  0.5443570000000  0.4779810000000  0.4713340000000 1.0
C      1  0.5941700000000  0.5181200000000  0.5212400000000 1.0
C      1  0.5385440000000  0.5440730000000  0.5069050000000 1.0
C      1  0.5467940000000  0.5524520000000  0.4778370000000 1.0
C      1  0.4150310000000  0.5144180000000  0.4693640000000 1.0
C      1  0.4665590000000  0.5775130000000  0.5290290000000 1.0
C      1  0.4497710000000  0.4613310000000  0.4908150000000 1.0
C      1  0.4644780000000  0.5600390000000  0.5518080000000 1.0
C      1  0.4342300000000  0.5527450000000  0.4570770000000 1.0
C      1  0.5283490000000  0.5096970000000  0.4187200000000 1.0
C      1  0.4209640000000  0.5039160000000  0.5299320000000 1.0
C      1  0.4750050000000  0.4508910000000  0.4783630000000 1.0
C      1  0.4554980000000  0.4868240000000  0.5631980000000 1.0
C      1  0.6010140000000  0.4952980000000  0.5060060000000 1.0
C      1  0.4497060000000  0.5360270000000  0.5525620000000 1.0
C      1  0.4332700000000  0.4352350000000  0.4877910000000 1.0
C      1  0.5101680000000  0.5249390000000  0.5946950000000 1.0
C      1  0.4317690000000  0.5492820000000  0.5069490000000 1.0
C      1  0.4691300000000  0.4498330000000  0.4256070000000 1.0
C      1  0.5829410000000  0.5415260000000  0.5088840000000 1.0
C      1  0.4941210000000  0.5888100000000  0.5277180000000 1.0
C      1  0.5149040000000  0.4144940000000  0.4823950000000 1.0
C      1  0.5328280000000  0.4577680000000  0.5087010000000 1.0
C      1  0.5056180000000  0.4188770000000  0.5072130000000 1.0
C      1  0.4926000000000  0.4750730000000  0.4758200000000 1.0
C      1  0.5315240000000  0.5597400000000  0.5605780000000 1.0
C      1  0.5614740000000  0.5538680000000  0.5232720000000 1.0
C      1  0.5352990000000  0.5035160000000  0.5412040000000 1.0
C      1  0.5163850000000  0.4868550000000  0.4597520000000 1.0
C      1  0.5132130000000  0.5152160000000  0.4703790000000 1.0
C      1  0.4049170000000  0.4670880000000  0.4713170000000 1.0
C      1  0.4841040000000  0.4934900000000  0.4173210000000 1.0
C      1  0.4354310000000  0.4823460000000  0.4354180000000 1.0
C      1  0.5114430000000  0.5557340000000  0.5126830000000 1.0
C      1  0.4540900000000  0.5723980000000  0.4566780000000 1.0
C      1  0.4501910000000  0.5722080000000  0.5064240000000 1.0
C      1  0.4368430000000  0.4200620000000  0.5313580000000 1.0
C      1  0.5217260000000  0.4441580000000  0.5769130000000 1.0
C      1  0.4764360000000  0.4695650000000  0.5709000000000 1.0
C      1  0.5166820000000  0.4665570000000  0.5927710000000 1.0
C      1  0.5761360000000  0.5421410000000  0.4811230000000 1.0
C      1  0.5666990000000  0.4328950000000  0.4922730000000 1.0
C      1  0.5385670000000  0.4830590000000  0.5955910000000 1.0
C      1  0.5094960000000  0.5687200000000  0.5428850000000 1.0
C      1  0.5116720000000  0.5489800000000  0.5794880000000 1.0
C      1  0.4028360000000  0.4930170000000  0.4826020000000 1.0
C      1  0.4041590000000  0.4905560000000  0.5114980000000 1.0
C      1  0.4372650000000  0.4367560000000  0.4579440000000 1.0
C      1  0.4867340000000  0.5156040000000  0.5165470000000 1.0
C      1  0.4073040000000  0.4480950000000  0.4927950000000 1.0
C      1  0.5293090000000  0.5789470000000  0.4790090000000 1.0
C      1  0.5890070000000  0.4687770000000  0.5124940000000 1.0
C      1  0.5874970000000  0.4529540000000  0.4893210000000 1.0
C      1  0.5685390000000  0.4786390000000  0.4484390000000 1.0
C      1  0.4654300000000  0.4369110000000  0.4530860000000 1.0
C      1  0.4996750000000  0.5716610000000  0.4377620000000 1.0
C      1  0.5550910000000  0.4220020000000  0.5143910000000 1.0
C      1  0.4909660000000  0.4807090000000  0.5919240000000 1.0
C      1  0.4870220000000  0.5087410000000  0.5905460000000 1.0
C      1  0.5130630000000  0.4859340000000  0.4269930000000 1.0
C      1  0.5707770000000  0.5311010000000  0.5637360000000 1.0
C      1  0.5296100000000  0.4592330000000  0.4247320000000 1.0
C      1  0.5101470000000  0.4944690000000  0.5498640000000 1.0
C      1  0.4720890000000  0.5657330000000  0.4351410000000 1.0
C      1  0.4886590000000  0.5911200000000  0.4813050000000 1.0
C      1  0.5488500000000  0.5198840000000  0.4355950000000 1.0
C      1  0.5574790000000  0.5529120000000  0.5513920000000 1.0
C      1  0.4617140000000  0.5831240000000  0.4817030000000 1.0
C      1  0.4645610000000  0.4998050000000  0.5033400000000 1.0
C      1  0.5993040000000  0.4972530000000  0.4781190000000 1.0
C      1  0.5259170000000  0.4308560000000  0.4644970000000 1.0
C      1  0.4610830000000  0.4766970000000  0.4221080000000 1.0
C      1  0.4035850000000  0.4624860000000  0.5169930000000 1.0
C      1  0.4382070000000  0.4805170000000  0.5406700000000 1.0
C      1  0.5068270000000  0.4740160000000  0.5028080000000 1.0
C      1  0.4273600000000  0.5090660000000  0.4435040000000 1.0
C      1  0.5605260000000  0.5161630000000  0.5851670000000 1.0
C      1  0.4231850000000  0.5403620000000  0.4802940000000 1.0
C      1  0.5086240000000  0.5845810000000  0.5016960000000 1.0
C      1  0.4901490000000  0.5134180000000  0.5446970000000 1.0
C      1  0.5864480000000  0.5200820000000  0.4655580000000 1.0
C      1  0.4962870000000  0.4633270000000  0.5483450000000 1.0
C      1  0.4637320000000  0.5409940000000  0.4229510000000 1.0
C      1  0.5615880000000  0.4892800000000  0.5473740000000 1.0
C      1  0.5158360000000  0.4373850000000  0.4383480000000 1.0
C      1  0.5613370000000  0.4875630000000  0.5779140000000 1.0
C      1  0.5368900000000  0.5126170000000  0.5126220000000 1.0
C      1  0.4205450000000  0.4297970000000  0.5489120000000 1.0
END
