TITL C-160273-8304-1 -0.0700947398587433 125000 -136.416424433027 0 0 21 (C1) n - 1
REM
REM in /rds/project/t2_vol4/rds-t2-cs072/BORA/CARBON/from-Arr/AIRSS/Generating-Clusters/GAP-ML-2020/Only-C1/SD-CG/HFTN-CG
REM
REM
REM
REM
REM
REM ./C.cell (11c1c37f851c82e70ff6c80c92926a4b)
REM AIRSS Version 0.9.1 bugfix July 2018 build 013d7b7c2542+ Fri, 06 Jul 2018 19:26:36 +0100
REM compiler GCC version 9.3.0
REM options -cpp -mtune=generic -march=x86-64 -g -O0
REM seed 1194888811 1843994391 -1006621137 -1283138032 204947891 -1711612004 -1878938460 -1979112816 -47805029 2141015256 1564422187 -447443770 1872264092 -949237510 996658834 -444576397 485203960 1448500498 -122774881 1743188064 -2061902625 1293662777 1023933424 -794699861 962599137 423920470 -1133919273 -1067069649 449156696 -334891466 206258846 -2136194291 -1522381375
REM
CELL 1.54180   50.00000   50.00000   50.00000   90.00000   90.00000   90.00000
LATT -1
SFAC C  
C      1  0.4662470000000  0.4897480000000  0.5225210000000 1.0
C      1  0.4876500000000  0.5129980000000  0.4563810000000 1.0
C      1  0.5164270000000  0.4911110000000  0.5423650000000 1.0
C      1  0.5085940000000  0.5359860000000  0.4894190000000 1.0
C      1  0.5324410000000  0.4966560000000  0.4710290000000 1.0
C      1  0.4849420000000  0.5322440000000  0.5065880000000 1.0
C      1  0.4878760000000  0.4911180000000  0.5407970000000 1.0
C      1  0.5014280000000  0.5352400000000  0.5298930000000 1.0
C      1  0.5459750000000  0.5194020000000  0.5147720000000 1.0
C      1  0.4985120000000  0.4615240000000  0.4610050000000 1.0
C      1  0.5390840000000  0.4935100000000  0.5254160000000 1.0
C      1  0.4555990000000  0.4646840000000  0.5149560000000 1.0
C      1  0.4710830000000  0.4990500000000  0.4737780000000 1.0
C      1  0.5250100000000  0.5377560000000  0.5128510000000 1.0
C      1  0.5005680000000  0.5146290000000  0.5484720000000 1.0
C      1  0.5438010000000  0.4974390000000  0.4974950000000 1.0
C      1  0.5129920000000  0.5190070000000  0.4667550000000 1.0
C      1  0.4735440000000  0.4698280000000  0.4715470000000 1.0
C      1  0.4595940000000  0.4558700000000  0.4913550000000 1.0
C      1  0.4672800000000  0.5100100000000  0.5011260000000 1.0
C      1  0.5213560000000  0.4721910000000  0.4614770000000 1.0
END
