TITL C-166678-7419-5 0.861066345673046 125000 -451.886463346109 0 0 66 (C1) n - 1
REM
REM in /rds/project/t2_vol4/rds-t2-cs072/BORA/CARBON/from-Arr/AIRSS/Generating-Clusters/GAP-ML-2020/Only-C1/SD-CG/HFTN-CG
REM
REM
REM
REM
REM
REM ./C.cell (11c1c37f851c82e70ff6c80c92926a4b)
REM AIRSS Version 0.9.1 bugfix July 2018 build 013d7b7c2542+ Fri, 06 Jul 2018 19:26:36 +0100
REM compiler GCC version 9.3.0
REM options -cpp -mtune=generic -march=x86-64 -g -O0
REM seed -186996701 -1712247564 46599092 1407297592 -1085310513 689610651 1592193881 1841838824 -1965557395 765092452 1514128350 43580072 -285549146 1806458379 -1887268450 -851856801 -2016247430 202633660 1569355610 597572729 301597617 538649114 -1172172306 1249667596 -1264026712 275991404 -2081932254 172865704 -616540286 -332363532 -930058003 1320407915 1214932516
REM
CELL 1.54180   50.00000   50.00000   50.00000   90.00000   90.00000   90.00000
LATT -1
SFAC C  
C      1  0.4928440000000  0.5771980000000  0.5285190000000 1.0
C      1  0.4566450000000  0.5487490000000  0.5255110000000 1.0
C      1  0.4913840000000  0.4518170000000  0.4496710000000 1.0
C      1  0.4603370000000  0.4331330000000  0.4928070000000 1.0
C      1  0.4911840000000  0.4904070000000  0.5268880000000 1.0
C      1  0.4993130000000  0.4298890000000  0.5209410000000 1.0
C      1  0.5240090000000  0.5219540000000  0.5141520000000 1.0
C      1  0.4811720000000  0.5133420000000  0.5701590000000 1.0
C      1  0.5686580000000  0.5057960000000  0.4689700000000 1.0
C      1  0.4597530000000  0.4547600000000  0.5373110000000 1.0
C      1  0.5232080000000  0.5446160000000  0.5512210000000 1.0
C      1  0.5333380000000  0.4691290000000  0.4575660000000 1.0
C      1  0.5689490000000  0.5408430000000  0.4865450000000 1.0
C      1  0.4931520000000  0.5470010000000  0.4892940000000 1.0
C      1  0.4833580000000  0.5020650000000  0.4797790000000 1.0
C      1  0.4757790000000  0.5422420000000  0.4480330000000 1.0
C      1  0.4638950000000  0.4611840000000  0.4515590000000 1.0
C      1  0.4950500000000  0.5268540000000  0.4660660000000 1.0
C      1  0.5059180000000  0.4974060000000  0.4315210000000 1.0
C      1  0.5404840000000  0.4501560000000  0.5024240000000 1.0
C      1  0.5387750000000  0.4967220000000  0.4676870000000 1.0
C      1  0.4583040000000  0.4860550000000  0.4390500000000 1.0
C      1  0.5035320000000  0.4371000000000  0.4716180000000 1.0
C      1  0.5283020000000  0.4517130000000  0.5507630000000 1.0
C      1  0.4463280000000  0.5116130000000  0.4465910000000 1.0
C      1  0.5151400000000  0.5625490000000  0.5294980000000 1.0
C      1  0.5729080000000  0.5316940000000  0.4575570000000 1.0
C      1  0.4882230000000  0.4287030000000  0.4943610000000 1.0
C      1  0.4374050000000  0.4666890000000  0.4973310000000 1.0
C      1  0.5349440000000  0.5433090000000  0.4524180000000 1.0
C      1  0.5285090000000  0.4961060000000  0.4965190000000 1.0
C      1  0.4753630000000  0.5313260000000  0.5098250000000 1.0
C      1  0.4566850000000  0.5530580000000  0.4679570000000 1.0
C      1  0.5742470000000  0.5138180000000  0.4971630000000 1.0
C      1  0.4450060000000  0.5265500000000  0.4713300000000 1.0
C      1  0.4791910000000  0.5007290000000  0.4246150000000 1.0
C      1  0.4988980000000  0.5300330000000  0.5539960000000 1.0
C      1  0.4463580000000  0.4449450000000  0.5151210000000 1.0
C      1  0.5364870000000  0.4794570000000  0.5523870000000 1.0
C      1  0.4836970000000  0.4389360000000  0.5438590000000 1.0
C      1  0.4459680000000  0.5328550000000  0.5443830000000 1.0
C      1  0.4585660000000  0.5122300000000  0.4935840000000 1.0
C      1  0.4494540000000  0.4525090000000  0.4740030000000 1.0
C      1  0.4945760000000  0.4634050000000  0.5859920000000 1.0
C      1  0.4963430000000  0.5189740000000  0.5261620000000 1.0
C      1  0.4575150000000  0.5101550000000  0.5539670000000 1.0
C      1  0.5115270000000  0.4703320000000  0.4397400000000 1.0
C      1  0.4934460000000  0.4883750000000  0.5760120000000 1.0
C      1  0.5194320000000  0.5169910000000  0.4514020000000 1.0
C      1  0.4685110000000  0.5731520000000  0.5158410000000 1.0
C      1  0.5547090000000  0.5000400000000  0.5432160000000 1.0
C      1  0.5295780000000  0.4477450000000  0.4760120000000 1.0
C      1  0.5261450000000  0.4392280000000  0.5247290000000 1.0
C      1  0.5415860000000  0.5522570000000  0.4820800000000 1.0
C      1  0.5504420000000  0.4766220000000  0.5052020000000 1.0
C      1  0.5687700000000  0.4948570000000  0.5178590000000 1.0
C      1  0.5207250000000  0.5500130000000  0.5025690000000 1.0
C      1  0.5000980000000  0.4876020000000  0.4985110000000 1.0
C      1  0.4462910000000  0.4907940000000  0.5089980000000 1.0
C      1  0.5086380000000  0.4849390000000  0.5510030000000 1.0
C      1  0.4646420000000  0.5258900000000  0.4286330000000 1.0
C      1  0.4614930000000  0.4857100000000  0.5341070000000 1.0
C      1  0.4720940000000  0.5677200000000  0.4863750000000 1.0
C      1  0.5406380000000  0.5247590000000  0.5386460000000 1.0
C      1  0.5597930000000  0.5452900000000  0.4387300000000 1.0
C      1  0.5022890000000  0.4479120000000  0.5636610000000 1.0
END
