TITL C-160260-8340-3 10.415197332877 125000 -558.10098964076 0 0 83 (C1) n - 1
REM
REM in /rds/project/t2_vol4/rds-t2-cs072/BORA/CARBON/from-Arr/AIRSS/Generating-Clusters/GAP-ML-2020/Only-C1/SD-CG/HFTN-CG
REM
REM
REM
REM
REM
REM ./C.cell (11c1c37f851c82e70ff6c80c92926a4b)
REM AIRSS Version 0.9.1 bugfix July 2018 build 013d7b7c2542+ Fri, 06 Jul 2018 19:26:36 +0100
REM compiler GCC version 9.3.0
REM options -cpp -mtune=generic -march=x86-64 -g -O0
REM seed 1329857563 -1849377062 1801143793 17734539 803859493 -119172539 -1803691645 -981631037 -271557093 -361527581 550209078 1475418124 1606587688 -616750041 1727156061 -1093359435 1398420679 -2014157612 -414577120 1550495700 -728431895 -2115609126 252176508 -1491375736 245339859 -2093650617 -479750620 359660766 -1568491087 1786749470 456657453 -645349742 -337735039
REM
CELL 1.54180   50.00000   50.00000   50.00000   90.00000   90.00000   90.00000
LATT -1
SFAC C  
C      1  0.4666840000000  0.4698770000000  0.5240760000000 1.0
C      1  0.5035620000000  0.5375690000000  0.5485720000000 1.0
C      1  0.5083880000000  0.4545170000000  0.4920020000000 1.0
C      1  0.4683420000000  0.5105790000000  0.5749590000000 1.0
C      1  0.5162560000000  0.5591530000000  0.4502220000000 1.0
C      1  0.4781770000000  0.5341130000000  0.4455090000000 1.0
C      1  0.5407160000000  0.5617210000000  0.5097730000000 1.0
C      1  0.4288880000000  0.5076710000000  0.4967250000000 1.0
C      1  0.5220820000000  0.5185310000000  0.5287540000000 1.0
C      1  0.4957390000000  0.4506920000000  0.5563770000000 1.0
C      1  0.5019130000000  0.5370150000000  0.4631890000000 1.0
C      1  0.5104310000000  0.4217130000000  0.4913800000000 1.0
C      1  0.4805690000000  0.5576000000000  0.5072750000000 1.0
C      1  0.4607390000000  0.4688470000000  0.4839500000000 1.0
C      1  0.4878730000000  0.5097810000000  0.4965120000000 1.0
C      1  0.5027590000000  0.4983350000000  0.5176970000000 1.0
C      1  0.4985130000000  0.5371290000000  0.4920990000000 1.0
C      1  0.5511240000000  0.4324640000000  0.4901500000000 1.0
C      1  0.5123670000000  0.4262910000000  0.5432190000000 1.0
C      1  0.4487160000000  0.4702560000000  0.5607150000000 1.0
C      1  0.4996060000000  0.4881540000000  0.4567080000000 1.0
C      1  0.4641910000000  0.4497070000000  0.5459040000000 1.0
C      1  0.4791170000000  0.5449660000000  0.5337440000000 1.0
C      1  0.5182210000000  0.4727970000000  0.5134110000000 1.0
C      1  0.5017150000000  0.4169950000000  0.5191190000000 1.0
C      1  0.4968960000000  0.5825600000000  0.5037480000000 1.0
C      1  0.5567360000000  0.5329400000000  0.4473720000000 1.0
C      1  0.5126350000000  0.4954740000000  0.5729140000000 1.0
C      1  0.5443650000000  0.5670900000000  0.5596990000000 1.0
C      1  0.4799460000000  0.4538060000000  0.5013420000000 1.0
C      1  0.5488500000000  0.5000110000000  0.5322620000000 1.0
C      1  0.4588460000000  0.5117030000000  0.4569550000000 1.0
C      1  0.4704660000000  0.5635540000000  0.4503990000000 1.0
C      1  0.4680700000000  0.4822930000000  0.5777760000000 1.0
C      1  0.4421270000000  0.4735560000000  0.5075410000000 1.0
C      1  0.5332680000000  0.4207830000000  0.4727960000000 1.0
C      1  0.5752240000000  0.5440140000000  0.5223740000000 1.0
C      1  0.5191080000000  0.5122180000000  0.4612770000000 1.0
C      1  0.5639980000000  0.5346690000000  0.4750860000000 1.0
C      1  0.4850950000000  0.4938850000000  0.4285550000000 1.0
C      1  0.4581910000000  0.5255540000000  0.5322200000000 1.0
C      1  0.5185320000000  0.5643660000000  0.5481320000000 1.0
C      1  0.5194330000000  0.4358560000000  0.4508250000000 1.0
C      1  0.4459210000000  0.5155010000000  0.5566250000000 1.0
C      1  0.4969420000000  0.5922350000000  0.4786780000000 1.0
C      1  0.4424000000000  0.5309270000000  0.5074030000000 1.0
C      1  0.4736700000000  0.4241640000000  0.5098670000000 1.0
C      1  0.5213540000000  0.4637190000000  0.5427240000000 1.0
C      1  0.5713490000000  0.5164390000000  0.5193320000000 1.0
C      1  0.5229490000000  0.5225120000000  0.4229990000000 1.0
C      1  0.4938400000000  0.5198380000000  0.4225130000000 1.0
C      1  0.4395700000000  0.4761180000000  0.4489120000000 1.0
C      1  0.4952400000000  0.4266700000000  0.4422530000000 1.0
C      1  0.5550480000000  0.4905240000000  0.4849510000000 1.0
C      1  0.4722300000000  0.4316370000000  0.4578710000000 1.0
C      1  0.5254910000000  0.5354670000000  0.5047510000000 1.0
C      1  0.5561960000000  0.5575510000000  0.5381250000000 1.0
C      1  0.5337140000000  0.4874780000000  0.5557410000000 1.0
C      1  0.4774260000000  0.4964380000000  0.5300410000000 1.0
C      1  0.5523990000000  0.4458850000000  0.5135690000000 1.0
C      1  0.4525260000000  0.4536330000000  0.4605640000000 1.0
C      1  0.5371800000000  0.4396420000000  0.5369770000000 1.0
C      1  0.4516800000000  0.5655180000000  0.4698610000000 1.0
C      1  0.4768780000000  0.4938860000000  0.4753120000000 1.0
C      1  0.5410060000000  0.5073920000000  0.4411460000000 1.0
C      1  0.4242860000000  0.4903570000000  0.5196910000000 1.0
C      1  0.4329720000000  0.5012790000000  0.4679820000000 1.0
C      1  0.5182670000000  0.4642850000000  0.4630980000000 1.0
C      1  0.4564870000000  0.4247170000000  0.5320260000000 1.0
C      1  0.4956690000000  0.5187960000000  0.5707370000000 1.0
C      1  0.4961020000000  0.5787900000000  0.4546080000000 1.0
C      1  0.5744930000000  0.5108310000000  0.4904190000000 1.0
C      1  0.5352960000000  0.5480370000000  0.4332760000000 1.0
C      1  0.5189080000000  0.5775010000000  0.5214080000000 1.0
C      1  0.4571610000000  0.4924270000000  0.4338120000000 1.0
C      1  0.5478450000000  0.4774370000000  0.5104100000000 1.0
C      1  0.5440190000000  0.4811130000000  0.4592070000000 1.0
C      1  0.4327050000000  0.4917490000000  0.5479920000000 1.0
C      1  0.4811460000000  0.4183630000000  0.4817150000000 1.0
C      1  0.4942920000000  0.4722770000000  0.5760860000000 1.0
C      1  0.4537430000000  0.5535150000000  0.4940500000000 1.0
C      1  0.5658810000000  0.5558890000000  0.4958780000000 1.0
C      1  0.5372430000000  0.5186600000000  0.4840790000000 1.0
END
