TITL C-160255-8395-7 -0.0517429596083856 125000 -301.16562757 0 0 45 (C1) n - 1
REM
REM in /rds/project/t2_vol4/rds-t2-cs072/BORA/CARBON/from-Arr/AIRSS/Generating-Clusters/GAP-ML-2020/Only-C1/SD-CG/HFTN-CG
REM
REM
REM
REM
REM
REM ./C.cell (11c1c37f851c82e70ff6c80c92926a4b)
REM AIRSS Version 0.9.1 bugfix July 2018 build 013d7b7c2542+ Fri, 06 Jul 2018 19:26:36 +0100
REM compiler GCC version 9.3.0
REM options -cpp -mtune=generic -march=x86-64 -g -O0
REM seed -1499153481 -1252722716 -2047071422 -1220669487 431296342 1574463111 -934971920 2001597988 -1290059903 -457918009 -1809087841 -1682117712 1060080238 1270004167 -648799773 -836423784 -1116046128 270333469 1895988432 1331530696 503022292 1186706483 1740109397 -428078647 1945478798 894099017 1886360578 9959490 1078003785 -1944170725 453781825 1482143612 940596439
REM
CELL 1.54180   50.00000   50.00000   50.00000   90.00000   90.00000   90.00000
LATT -1
SFAC C  
C      1  0.4450520000000  0.4797640000000  0.5184610000000 1.0
C      1  0.5315160000000  0.4903070000000  0.5556200000000 1.0
C      1  0.5107510000000  0.5360350000000  0.4934760000000 1.0
C      1  0.5562710000000  0.4755880000000  0.5164440000000 1.0
C      1  0.5697110000000  0.5093450000000  0.4808670000000 1.0
C      1  0.4543980000000  0.4986950000000  0.4619060000000 1.0
C      1  0.4768360000000  0.5226670000000  0.4600630000000 1.0
C      1  0.4929490000000  0.5562540000000  0.5060220000000 1.0
C      1  0.5240870000000  0.4449890000000  0.5042650000000 1.0
C      1  0.4492170000000  0.5240030000000  0.5274050000000 1.0
C      1  0.4644120000000  0.5559180000000  0.4990680000000 1.0
C      1  0.4418110000000  0.5145020000000  0.4836570000000 1.0
C      1  0.5391240000000  0.4751260000000  0.4727030000000 1.0
C      1  0.5124970000000  0.4877450000000  0.4655820000000 1.0
C      1  0.4566140000000  0.4617080000000  0.5000770000000 1.0
C      1  0.5456830000000  0.4602140000000  0.4951170000000 1.0
C      1  0.4966560000000  0.5115950000000  0.4803000000000 1.0
C      1  0.5004290000000  0.5241970000000  0.5399830000000 1.0
C      1  0.5205530000000  0.4503730000000  0.5318190000000 1.0
C      1  0.5321110000000  0.5424130000000  0.4741550000000 1.0
C      1  0.5220030000000  0.5323410000000  0.4471710000000 1.0
C      1  0.4996680000000  0.4462900000000  0.4904370000000 1.0
C      1  0.4856460000000  0.4765570000000  0.5513520000000 1.0
C      1  0.5059420000000  0.4987670000000  0.5568890000000 1.0
C      1  0.4936750000000  0.4642690000000  0.4692160000000 1.0
C      1  0.5114860000000  0.4917570000000  0.5122270000000 1.0
C      1  0.4581520000000  0.5497130000000  0.5268520000000 1.0
C      1  0.4948670000000  0.5335290000000  0.4410140000000 1.0
C      1  0.4363410000000  0.5060610000000  0.5094430000000 1.0
C      1  0.4468370000000  0.4756560000000  0.4489630000000 1.0
C      1  0.4849440000000  0.4978230000000  0.5021770000000 1.0
C      1  0.5557350000000  0.5339510000000  0.4866960000000 1.0
C      1  0.4623900000000  0.4867980000000  0.5409250000000 1.0
C      1  0.4584870000000  0.5372610000000  0.4798030000000 1.0
C      1  0.5220590000000  0.5204450000000  0.5174240000000 1.0
C      1  0.4926150000000  0.4543870000000  0.5354500000000 1.0
C      1  0.4794080000000  0.4482410000000  0.5106280000000 1.0
C      1  0.5305140000000  0.5059650000000  0.4476340000000 1.0
C      1  0.5404300000000  0.4700720000000  0.5398640000000 1.0
C      1  0.4753650000000  0.5106970000000  0.5278770000000 1.0
C      1  0.5504310000000  0.5225610000000  0.5141230000000 1.0
C      1  0.4876630000000  0.5506820000000  0.5350540000000 1.0
C      1  0.5666200000000  0.4998910000000  0.5095120000000 1.0
C      1  0.5540410000000  0.4961200000000  0.4616720000000 1.0
C      1  0.4640060000000  0.4687320000000  0.4706080000000 1.0
END
