TITL C-160266-8376-4 -13.6350381872728 125000 -327.214852618634 0 0 48 (C1) n - 1
REM
REM in /rds/project/t2_vol4/rds-t2-cs072/BORA/CARBON/from-Arr/AIRSS/Generating-Clusters/GAP-ML-2020/Only-C1/SD-CG/HFTN-CG
REM
REM
REM
REM
REM
REM ./C.cell (11c1c37f851c82e70ff6c80c92926a4b)
REM AIRSS Version 0.9.1 bugfix July 2018 build 013d7b7c2542+ Fri, 06 Jul 2018 19:26:36 +0100
REM compiler GCC version 9.3.0
REM options -cpp -mtune=generic -march=x86-64 -g -O0
REM seed -897734956 2133805780 1567410998 -1322779205 -1192995881 753203629 916872575 -923567813 1883929009 -239702831 1111467332 1368441275 -1275773114 289235713 -1797736683 1432280660 -97280911 -450607081 356596151 1574541178 -519534728 -55818829 -298999217 -802866828 1318812701 -717151419 -672837972 -1393593110 -1224028743 62137519 1476522156 -600024619 439370597
REM
CELL 1.54180   50.00000   50.00000   50.00000   90.00000   90.00000   90.00000
LATT -1
SFAC C  
C      1  0.4626960000000  0.4668020000000  0.4693820000000 1.0
C      1  0.4697890000000  0.5582680000000  0.5246790000000 1.0
C      1  0.5512330000000  0.5046480000000  0.5193050000000 1.0
C      1  0.4813850000000  0.5561060000000  0.5471150000000 1.0
C      1  0.4948200000000  0.4894150000000  0.4379800000000 1.0
C      1  0.4600810000000  0.5370420000000  0.4760260000000 1.0
C      1  0.4795910000000  0.4636160000000  0.5362790000000 1.0
C      1  0.5433160000000  0.4770150000000  0.5224390000000 1.0
C      1  0.5065010000000  0.4521540000000  0.5368200000000 1.0
C      1  0.5099140000000  0.4489340000000  0.4610040000000 1.0
C      1  0.4690330000000  0.4738420000000  0.5602850000000 1.0
C      1  0.4817170000000  0.5324320000000  0.4415940000000 1.0
C      1  0.4763610000000  0.4827270000000  0.5131180000000 1.0
C      1  0.5443040000000  0.5412200000000  0.4898060000000 1.0
C      1  0.4915260000000  0.5334570000000  0.5598180000000 1.0
C      1  0.5265480000000  0.5422520000000  0.5118370000000 1.0
C      1  0.4646670000000  0.5085370000000  0.5209560000000 1.0
C      1  0.4528720000000  0.4742010000000  0.4958510000000 1.0
C      1  0.5496940000000  0.5027580000000  0.4517070000000 1.0
C      1  0.5303770000000  0.5245350000000  0.4460630000000 1.0
C      1  0.4613110000000  0.5161280000000  0.4552670000000 1.0
C      1  0.4685980000000  0.4879330000000  0.4510690000000 1.0
C      1  0.5699160000000  0.5072450000000  0.4705240000000 1.0
C      1  0.5595700000000  0.5174730000000  0.4935190000000 1.0
C      1  0.5298800000000  0.5456870000000  0.4655810000000 1.0
C      1  0.4889930000000  0.4892930000000  0.5732270000000 1.0
C      1  0.5370520000000  0.4563580000000  0.5017390000000 1.0
C      1  0.4510470000000  0.4981180000000  0.5570760000000 1.0
C      1  0.5138580000000  0.4697380000000  0.4413210000000 1.0
C      1  0.4386440000000  0.5004500000000  0.5317060000000 1.0
C      1  0.4732780000000  0.5134120000000  0.5700320000000 1.0
C      1  0.5042260000000  0.5164380000000  0.4369860000000 1.0
C      1  0.5037810000000  0.5534310000000  0.4751460000000 1.0
C      1  0.5254330000000  0.4719110000000  0.5441700000000 1.0
C      1  0.4704040000000  0.5337880000000  0.5055990000000 1.0
C      1  0.4319410000000  0.4814360000000  0.5126700000000 1.0
C      1  0.5361420000000  0.4565530000000  0.4733130000000 1.0
C      1  0.5096480000000  0.5065800000000  0.4865170000000 1.0
C      1  0.5143630000000  0.4926850000000  0.5605980000000 1.0
C      1  0.5004850000000  0.5345230000000  0.4981410000000 1.0
C      1  0.4802840000000  0.5533290000000  0.4603940000000 1.0
C      1  0.5144680000000  0.4409520000000  0.5120700000000 1.0
C      1  0.4934930000000  0.4352930000000  0.4957530000000 1.0
C      1  0.5002820000000  0.4845430000000  0.4959120000000 1.0
C      1  0.4842640000000  0.4460000000000  0.4726710000000 1.0
C      1  0.5352320000000  0.5249330000000  0.5323860000000 1.0
C      1  0.5167330000000  0.5196100000000  0.5531000000000 1.0
C      1  0.5402480000000  0.4762010000000  0.4514490000000 1.0
END
