TITL C-166705-7361-4 -24.7601162493018 125000 -432.715509178548 0 0 64 (C1) n - 1
REM
REM in /rds/project/t2_vol4/rds-t2-cs072/BORA/CARBON/from-Arr/AIRSS/Generating-Clusters/GAP-ML-2020/Only-C1/SD-CG/HFTN-CG
REM
REM
REM
REM
REM
REM ./C.cell (11c1c37f851c82e70ff6c80c92926a4b)
REM AIRSS Version 0.9.1 bugfix July 2018 build 013d7b7c2542+ Fri, 06 Jul 2018 19:26:36 +0100
REM compiler GCC version 9.3.0
REM options -cpp -mtune=generic -march=x86-64 -g -O0
REM seed -356056266 -1714674164 1794715905 223407487 818493556 716824217 -1157902763 826676610 -1411322328 1528199266 -284700631 -196746949 966250668 469770874 1421581507 663198841 1241548405 481337194 961067698 -1484186840 -1787013197 -300920852 -450694421 -1407224473 260733770 -612285892 -1428257502 -926408094 2118728283 1703850243 241526620 -1483777989 555563967
REM
CELL 1.54180   50.00000   50.00000   50.00000   90.00000   90.00000   90.00000
LATT -1
SFAC C  
C      1  0.4945010000000  0.5217430000000  0.5341620000000 1.0
C      1  0.5216040000000  0.4846850000000  0.5657890000000 1.0
C      1  0.4992570000000  0.5275670000000  0.5044910000000 1.0
C      1  0.4756520000000  0.5108970000000  0.4407100000000 1.0
C      1  0.4799910000000  0.5140380000000  0.4855230000000 1.0
C      1  0.4853930000000  0.4696710000000  0.4618780000000 1.0
C      1  0.5195790000000  0.4938890000000  0.4329920000000 1.0
C      1  0.5254420000000  0.5236180000000  0.4307630000000 1.0
C      1  0.4397960000000  0.4790930000000  0.4449960000000 1.0
C      1  0.5244930000000  0.5555810000000  0.4744220000000 1.0
C      1  0.4628060000000  0.4544370000000  0.5314160000000 1.0
C      1  0.4498740000000  0.5149110000000  0.4775440000000 1.0
C      1  0.4429360000000  0.5320450000000  0.5173220000000 1.0
C      1  0.4825140000000  0.5563190000000  0.4598390000000 1.0
C      1  0.4496710000000  0.5238600000000  0.5436800000000 1.0
C      1  0.4556320000000  0.4408340000000  0.5069010000000 1.0
C      1  0.4922920000000  0.4926730000000  0.5319070000000 1.0
C      1  0.5044770000000  0.5675960000000  0.5234150000000 1.0
C      1  0.5163370000000  0.5480600000000  0.4261420000000 1.0
C      1  0.5033460000000  0.4312210000000  0.5029330000000 1.0
C      1  0.4864870000000  0.4855520000000  0.4890140000000 1.0
C      1  0.4598540000000  0.5562370000000  0.5090690000000 1.0
C      1  0.5565340000000  0.4486340000000  0.5117080000000 1.0
C      1  0.5325730000000  0.5111660000000  0.5599790000000 1.0
C      1  0.4755050000000  0.5637460000000  0.4860720000000 1.0
C      1  0.5236260000000  0.5089170000000  0.5010090000000 1.0
C      1  0.5528390000000  0.5005720000000  0.5415110000000 1.0
C      1  0.4540280000000  0.4644090000000  0.4637400000000 1.0
C      1  0.4422830000000  0.4606970000000  0.4905800000000 1.0
C      1  0.5751390000000  0.4806720000000  0.4843290000000 1.0
C      1  0.5366290000000  0.5052430000000  0.4741730000000 1.0
C      1  0.4770730000000  0.4284610000000  0.4967850000000 1.0
C      1  0.5570970000000  0.4645740000000  0.4669080000000 1.0
C      1  0.5219690000000  0.5273210000000  0.4611690000000 1.0
C      1  0.5473760000000  0.5580420000000  0.4909680000000 1.0
C      1  0.4371820000000  0.4834080000000  0.5087810000000 1.0
C      1  0.4894200000000  0.5266670000000  0.4606480000000 1.0
C      1  0.5417920000000  0.4734530000000  0.5491320000000 1.0
C      1  0.4711790000000  0.4817810000000  0.5147300000000 1.0
C      1  0.4770520000000  0.5623130000000  0.5317690000000 1.0
C      1  0.4337770000000  0.5110000000000  0.5000940000000 1.0
C      1  0.5176630000000  0.5315070000000  0.5491220000000 1.0
C      1  0.5101500000000  0.4850790000000  0.5080080000000 1.0
C      1  0.5519590000000  0.5155470000000  0.5154130000000 1.0
C      1  0.5078570000000  0.5651980000000  0.4480470000000 1.0
C      1  0.4418110000000  0.4754410000000  0.5366090000000 1.0
C      1  0.5026390000000  0.5580680000000  0.4959810000000 1.0
C      1  0.5328700000000  0.4788170000000  0.4556430000000 1.0
C      1  0.4934690000000  0.4770360000000  0.5590170000000 1.0
C      1  0.4738550000000  0.5387830000000  0.5458630000000 1.0
C      1  0.5102710000000  0.4403660000000  0.5300600000000 1.0
C      1  0.5206380000000  0.4379220000000  0.4803590000000 1.0
C      1  0.5478200000000  0.4437840000000  0.4842570000000 1.0
C      1  0.5119180000000  0.4566580000000  0.4611190000000 1.0
C      1  0.5373180000000  0.4506550000000  0.5330670000000 1.0
C      1  0.4501620000000  0.5035080000000  0.4516700000000 1.0
C      1  0.5270510000000  0.5533090000000  0.5345270000000 1.0
C      1  0.4923560000000  0.4887920000000  0.4388490000000 1.0
C      1  0.4697190000000  0.4886860000000  0.5703140000000 1.0
C      1  0.5768190000000  0.4673860000000  0.5086290000000 1.0
C      1  0.5633370000000  0.5053030000000  0.4887370000000 1.0
C      1  0.4493990000000  0.4969920000000  0.5542610000000 1.0
C      1  0.5475880000000  0.5455910000000  0.5157330000000 1.0
C      1  0.4883220000000  0.4499660000000  0.5457240000000 1.0
END
