TITL C-166704-7458-12 16.39142265284 125000 -770.95026561934 0 0 109 (C1) n - 1
REM
REM in /rds/project/t2_vol4/rds-t2-cs072/BORA/CARBON/from-Arr/AIRSS/Generating-Clusters/GAP-ML-2020/Only-C1/SD-CG/HFTN-CG
REM
REM
REM
REM
REM
REM ./C.cell (11c1c37f851c82e70ff6c80c92926a4b)
REM AIRSS Version 0.9.1 bugfix July 2018 build 013d7b7c2542+ Fri, 06 Jul 2018 19:26:36 +0100
REM compiler GCC version 9.3.0
REM options -cpp -mtune=generic -march=x86-64 -g -O0
REM seed 1869974523 1548270522 1215265771 246212183 -1053634044 -1973176989 -1141613405 1825453766 346333097 -1996380798 1152657460 -47823617 1880284287 1717898947 249686241 514308513 -1905124406 -404202318 -1390636576 906471765 -2041637377 -1525296346 -2019537042 -1332254262 -1735651456 -199222307 -1647758714 303155258 1022534919 -1769246733 -483749970 -1701414764 -592821457
REM
CELL 1.54180   50.00000   50.00000   50.00000   90.00000   90.00000   90.00000
LATT -1
SFAC C  
C      1  0.5131960000000  0.5795570000000  0.5248030000000 1.0
C      1  0.5348230000000  0.5225450000000  0.4196580000000 1.0
C      1  0.5593310000000  0.4878910000000  0.5816300000000 1.0
C      1  0.4557460000000  0.5284520000000  0.4521080000000 1.0
C      1  0.5798140000000  0.5506590000000  0.5122010000000 1.0
C      1  0.4195630000000  0.4971410000000  0.4704050000000 1.0
C      1  0.5500910000000  0.4088800000000  0.4860160000000 1.0
C      1  0.5602230000000  0.5624100000000  0.5292620000000 1.0
C      1  0.4713090000000  0.4214720000000  0.4557090000000 1.0
C      1  0.4674430000000  0.4356080000000  0.4304310000000 1.0
C      1  0.4862560000000  0.5624760000000  0.5639770000000 1.0
C      1  0.5322800000000  0.4829870000000  0.5813460000000 1.0
C      1  0.5722320000000  0.5007940000000  0.4477030000000 1.0
C      1  0.5186800000000  0.5251130000000  0.4705120000000 1.0
C      1  0.4592110000000  0.5161240000000  0.5280250000000 1.0
C      1  0.4183070000000  0.4691510000000  0.4811910000000 1.0
C      1  0.4417410000000  0.4376600000000  0.4208330000000 1.0
C      1  0.5437060000000  0.5631470000000  0.4397870000000 1.0
C      1  0.4953350000000  0.5271070000000  0.4849150000000 1.0
C      1  0.5489660000000  0.5756920000000  0.4861900000000 1.0
C      1  0.5184240000000  0.4584270000000  0.5807610000000 1.0
C      1  0.4317170000000  0.4485190000000  0.4671630000000 1.0
C      1  0.4980550000000  0.4912720000000  0.5126880000000 1.0
C      1  0.5457390000000  0.4274300000000  0.4647440000000 1.0
C      1  0.5540200000000  0.5435560000000  0.5488010000000 1.0
C      1  0.4797510000000  0.5311280000000  0.4334760000000 1.0
C      1  0.5446060000000  0.4877940000000  0.4838640000000 1.0
C      1  0.4245450000000  0.4739370000000  0.5358090000000 1.0
C      1  0.5401010000000  0.5765130000000  0.5138460000000 1.0
C      1  0.5176100000000  0.4544710000000  0.5140680000000 1.0
C      1  0.4558280000000  0.4471300000000  0.5636560000000 1.0
C      1  0.4838580000000  0.5804250000000  0.4803630000000 1.0
C      1  0.4734300000000  0.4827540000000  0.4234230000000 1.0
C      1  0.4862010000000  0.4567160000000  0.4256890000000 1.0
C      1  0.5139460000000  0.4227460000000  0.5163460000000 1.0
C      1  0.4562450000000  0.5729460000000  0.4777620000000 1.0
C      1  0.5859830000000  0.5156430000000  0.4692890000000 1.0
C      1  0.5612970000000  0.5208190000000  0.4303350000000 1.0
C      1  0.4747740000000  0.4733070000000  0.4729100000000 1.0
C      1  0.4703760000000  0.4805330000000  0.5004760000000 1.0
C      1  0.5201400000000  0.4982250000000  0.5582260000000 1.0
C      1  0.4959790000000  0.4847870000000  0.5420360000000 1.0
C      1  0.4448210000000  0.4539840000000  0.5389390000000 1.0
C      1  0.5266920000000  0.4450650000000  0.5575410000000 1.0
C      1  0.5012150000000  0.4716320000000  0.4689730000000 1.0
C      1  0.4525610000000  0.4292660000000  0.4758400000000 1.0
C      1  0.5594520000000  0.4426850000000  0.5181420000000 1.0
C      1  0.4543750000000  0.4955530000000  0.5713790000000 1.0
C      1  0.4833120000000  0.5310250000000  0.5299680000000 1.0
C      1  0.5885910000000  0.5057680000000  0.4961560000000 1.0
C      1  0.4362620000000  0.5046440000000  0.4480940000000 1.0
C      1  0.4678380000000  0.4289450000000  0.5002970000000 1.0
C      1  0.4179820000000  0.5497800000000  0.4735490000000 1.0
C      1  0.4461300000000  0.4832310000000  0.4331730000000 1.0
C      1  0.5726300000000  0.4547810000000  0.4960570000000 1.0
C      1  0.4460250000000  0.5409990000000  0.5599180000000 1.0
C      1  0.5416200000000  0.4962320000000  0.5359920000000 1.0
C      1  0.4900050000000  0.5055370000000  0.4235200000000 1.0
C      1  0.4634820000000  0.5755130000000  0.5238690000000 1.0
C      1  0.4224260000000  0.5060950000000  0.4991100000000 1.0
C      1  0.5238020000000  0.5485430000000  0.4253940000000 1.0
C      1  0.4162390000000  0.4787260000000  0.5088510000000 1.0
C      1  0.4639520000000  0.4689130000000  0.5818680000000 1.0
C      1  0.5040400000000  0.4304960000000  0.5466570000000 1.0
C      1  0.4878540000000  0.5363170000000  0.5771000000000 1.0
C      1  0.5186930000000  0.4997790000000  0.4223320000000 1.0
C      1  0.5321830000000  0.5766530000000  0.4620870000000 1.0
C      1  0.5622230000000  0.4509710000000  0.4677350000000 1.0
C      1  0.4935220000000  0.4175790000000  0.4959300000000 1.0
C      1  0.4417920000000  0.5542740000000  0.4603330000000 1.0
C      1  0.4903090000000  0.4553670000000  0.5840820000000 1.0
C      1  0.5541190000000  0.4772780000000  0.4540790000000 1.0
C      1  0.5433330000000  0.4190220000000  0.5103920000000 1.0
C      1  0.4613940000000  0.5648980000000  0.5510670000000 1.0
C      1  0.5404420000000  0.4599700000000  0.5339830000000 1.0
C      1  0.4669560000000  0.4532930000000  0.5182540000000 1.0
C      1  0.5309900000000  0.5164140000000  0.5148890000000 1.0
C      1  0.5115540000000  0.4559830000000  0.4412600000000 1.0
C      1  0.5174330000000  0.4753250000000  0.4928170000000 1.0
C      1  0.5764950000000  0.5010820000000  0.5678380000000 1.0
C      1  0.5842640000000  0.5233250000000  0.5184690000000 1.0
C      1  0.5195200000000  0.4296010000000  0.4532820000000 1.0
C      1  0.4881800000000  0.5819060000000  0.5100900000000 1.0
C      1  0.5134030000000  0.5258490000000  0.5692750000000 1.0
C      1  0.4818890000000  0.4342200000000  0.5651890000000 1.0
C      1  0.5288310000000  0.5476460000000  0.5598070000000 1.0
C      1  0.5029300000000  0.5739150000000  0.4593790000000 1.0
C      1  0.5023650000000  0.5208340000000  0.5127850000000 1.0
C      1  0.5733840000000  0.4824250000000  0.4976170000000 1.0
C      1  0.4544900000000  0.5067600000000  0.5007360000000 1.0
C      1  0.4622180000000  0.5239340000000  0.5757400000000 1.0
C      1  0.4704560000000  0.4973630000000  0.5470450000000 1.0
C      1  0.5817110000000  0.5436170000000  0.4649250000000 1.0
C      1  0.4680870000000  0.5229140000000  0.4800600000000 1.0
C      1  0.5308120000000  0.4763460000000  0.4341760000000 1.0
C      1  0.5108300000000  0.5680920000000  0.5509140000000 1.0
C      1  0.4931510000000  0.4561160000000  0.5334730000000 1.0
C      1  0.5665570000000  0.5468200000000  0.4414950000000 1.0
C      1  0.4210780000000  0.5530810000000  0.5014050000000 1.0
C      1  0.5671880000000  0.5153480000000  0.5433590000000 1.0
C      1  0.5738480000000  0.5601910000000  0.4861950000000 1.0
C      1  0.4285560000000  0.4962120000000  0.5537950000000 1.0
C      1  0.5390440000000  0.5162820000000  0.4867280000000 1.0
C      1  0.4972540000000  0.4170510000000  0.4668510000000 1.0
C      1  0.4163980000000  0.5298260000000  0.5166310000000 1.0
C      1  0.4440130000000  0.5713700000000  0.5032330000000 1.0
C      1  0.4980560000000  0.5537330000000  0.4364870000000 1.0
C      1  0.4313360000000  0.5233600000000  0.5415720000000 1.0
C      1  0.4365290000000  0.4562980000000  0.4393890000000 1.0
END
