TITL C-166696-7362-6 -94.493013064999 125000 -480.511374376794 0 0 69 (C1) n - 1
REM
REM in /rds/project/t2_vol4/rds-t2-cs072/BORA/CARBON/from-Arr/AIRSS/Generating-Clusters/GAP-ML-2020/Only-C1/SD-CG/HFTN-CG
REM
REM
REM
REM
REM
REM ./C.cell (11c1c37f851c82e70ff6c80c92926a4b)
REM AIRSS Version 0.9.1 bugfix July 2018 build 013d7b7c2542+ Fri, 06 Jul 2018 19:26:36 +0100
REM compiler GCC version 9.3.0
REM options -cpp -mtune=generic -march=x86-64 -g -O0
REM seed 1918396421 1346679400 -1700721505 574171966 1129665006 909609643 2120923212 -1183468993 1251932987 -82525713 -133290611 2007568352 -868827200 -1549128027 623618926 -355788047 1753073368 1362518917 2051795587 -1900646687 -667483122 911230974 1250646053 -584001994 304545634 -260292217 1126020280 -694631591 1256457915 670130551 308233763 -1975326435 260949183
REM
CELL 1.54180   50.00000   50.00000   50.00000   90.00000   90.00000   90.00000
LATT -1
SFAC C  
C      1  0.4919640000000  0.4340950000000  0.5452470000000 1.0
C      1  0.4400300000000  0.4621420000000  0.5348100000000 1.0
C      1  0.5299470000000  0.5674310000000  0.5558000000000 1.0
C      1  0.5146860000000  0.4374130000000  0.4741330000000 1.0
C      1  0.4609890000000  0.4522210000000  0.4638510000000 1.0
C      1  0.5002530000000  0.4762340000000  0.5681100000000 1.0
C      1  0.5410680000000  0.4455130000000  0.4835160000000 1.0
C      1  0.4532760000000  0.4724830000000  0.5563510000000 1.0
C      1  0.5148560000000  0.5511570000000  0.4582390000000 1.0
C      1  0.5007220000000  0.4249130000000  0.5184230000000 1.0
C      1  0.4735310000000  0.5749770000000  0.4419810000000 1.0
C      1  0.5379090000000  0.5223310000000  0.5615840000000 1.0
C      1  0.5550290000000  0.5021140000000  0.5511770000000 1.0
C      1  0.5462680000000  0.5469080000000  0.5470570000000 1.0
C      1  0.4926910000000  0.4297600000000  0.4923550000000 1.0
C      1  0.5286990000000  0.4289680000000  0.5258430000000 1.0
C      1  0.4513150000000  0.4924290000000  0.4419500000000 1.0
C      1  0.5516340000000  0.5296710000000  0.4724650000000 1.0
C      1  0.4891300000000  0.5027390000000  0.5681620000000 1.0
C      1  0.4614810000000  0.5630010000000  0.4631590000000 1.0
C      1  0.5286520000000  0.4765900000000  0.4504490000000 1.0
C      1  0.4937820000000  0.5665540000000  0.5013260000000 1.0
C      1  0.5383420000000  0.5409590000000  0.4972690000000 1.0
C      1  0.4369820000000  0.5337120000000  0.4906360000000 1.0
C      1  0.5558970000000  0.5380540000000  0.5215350000000 1.0
C      1  0.4594970000000  0.5453900000000  0.5299620000000 1.0
C      1  0.4681420000000  0.5685730000000  0.4901330000000 1.0
C      1  0.4917080000000  0.5207690000000  0.4834320000000 1.0
C      1  0.4995030000000  0.5230020000000  0.5278250000000 1.0
C      1  0.4813670000000  0.4741000000000  0.5247270000000 1.0
C      1  0.4911700000000  0.5535690000000  0.4421590000000 1.0
C      1  0.4359670000000  0.5097420000000  0.5060550000000 1.0
C      1  0.4987570000000  0.5071280000000  0.4247860000000 1.0
C      1  0.5085970000000  0.4554140000000  0.4528500000000 1.0
C      1  0.4814900000000  0.4565010000000  0.4446120000000 1.0
C      1  0.4471040000000  0.4859770000000  0.4920910000000 1.0
C      1  0.4770180000000  0.5038020000000  0.5239140000000 1.0
C      1  0.5053300000000  0.5554880000000  0.5538360000000 1.0
C      1  0.4549760000000  0.5204960000000  0.4429770000000 1.0
C      1  0.4876860000000  0.4878920000000  0.4073080000000 1.0
C      1  0.5174670000000  0.5600430000000  0.4857310000000 1.0
C      1  0.4989910000000  0.4774500000000  0.5016050000000 1.0
C      1  0.4445850000000  0.4764900000000  0.4645580000000 1.0
C      1  0.5494090000000  0.4686430000000  0.4693800000000 1.0
C      1  0.5221060000000  0.4911270000000  0.5054980000000 1.0
C      1  0.4784180000000  0.4981230000000  0.4913620000000 1.0
C      1  0.5202600000000  0.4377010000000  0.5516890000000 1.0
C      1  0.4517720000000  0.5163030000000  0.5328290000000 1.0
C      1  0.5165020000000  0.5191470000000  0.5035840000000 1.0
C      1  0.5502980000000  0.4742050000000  0.5505210000000 1.0
C      1  0.4803080000000  0.4594420000000  0.5547140000000 1.0
C      1  0.5681890000000  0.4866560000000  0.4820240000000 1.0
C      1  0.5312920000000  0.5284070000000  0.4525990000000 1.0
C      1  0.5661490000000  0.5111070000000  0.5263760000000 1.0
C      1  0.4666610000000  0.4422710000000  0.4891620000000 1.0
C      1  0.4451550000000  0.5383690000000  0.4630480000000 1.0
C      1  0.5481870000000  0.4428750000000  0.5109310000000 1.0
C      1  0.5713010000000  0.5118870000000  0.4722540000000 1.0
C      1  0.5605440000000  0.4647270000000  0.5249530000000 1.0
C      1  0.4809230000000  0.5283360000000  0.4325240000000 1.0
C      1  0.4486500000000  0.5547260000000  0.5060680000000 1.0
C      1  0.5262190000000  0.4631360000000  0.5619830000000 1.0
C      1  0.4888370000000  0.5523030000000  0.5287640000000 1.0
C      1  0.4603890000000  0.5009200000000  0.5578550000000 1.0
C      1  0.5704180000000  0.4870130000000  0.5106230000000 1.0
C      1  0.5080040000000  0.5240530000000  0.5584610000000 1.0
C      1  0.4728420000000  0.4784430000000  0.4280190000000 1.0
C      1  0.5231210000000  0.5033740000000  0.4401790000000 1.0
C      1  0.4555600000000  0.4625080000000  0.5106130000000 1.0
END
