TITL C-161217-3110-8 -0.121589140342021 125000 -798.355385851139 0 0 116 (C1) n - 1
REM
REM in /rds/project/t2_vol4/rds-t2-cs072/BORA/CARBON/from-Arr/AIRSS/Generating-Clusters/GAP-ML-2020/Only-C1/SD-CG/HFTN-CG
REM
REM
REM
REM
REM
REM ./C.cell (11c1c37f851c82e70ff6c80c92926a4b)
REM AIRSS Version 0.9.1 bugfix July 2018 build 013d7b7c2542+ Fri, 06 Jul 2018 19:26:36 +0100
REM compiler GCC version 9.3.0
REM options -cpp -mtune=generic -march=x86-64 -g -O0
REM seed -1915629861 611562363 418699751 1592769990 -934265636 413492037 -568102596 -1253543049 1093181278 -465026647 651546622 1907419189 -165910748 1545619328 -1617077662 857536154 889881820 1232418336 -103055048 1523315729 1388799946 1456975605 748657098 2001018082 -288067069 -925245671 28371248 -730924160 -1067599605 -1838590606 -281065466 180561186 -30269674
REM
CELL 1.54180   50.00000   50.00000   50.00000   90.00000   90.00000   90.00000
LATT -1
SFAC C  
C      1  0.5068410000000  0.4778580000000  0.4553110000000 1.0
C      1  0.4476320000000  0.5042870000000  0.5602600000000 1.0
C      1  0.5165950000000  0.4922870000000  0.4043840000000 1.0
C      1  0.5460900000000  0.5141820000000  0.5092950000000 1.0
C      1  0.4867580000000  0.4581380000000  0.4088890000000 1.0
C      1  0.5715220000000  0.5331010000000  0.5409620000000 1.0
C      1  0.5518300000000  0.4972520000000  0.5729840000000 1.0
C      1  0.5772570000000  0.4539440000000  0.4705220000000 1.0
C      1  0.5552970000000  0.4596260000000  0.4516720000000 1.0
C      1  0.4320800000000  0.4601150000000  0.4542430000000 1.0
C      1  0.4991920000000  0.5767860000000  0.4767470000000 1.0
C      1  0.5436470000000  0.4862010000000  0.5472870000000 1.0
C      1  0.4548390000000  0.5678470000000  0.4986130000000 1.0
C      1  0.4656810000000  0.5738920000000  0.4463960000000 1.0
C      1  0.5258640000000  0.4480470000000  0.4900100000000 1.0
C      1  0.5798190000000  0.5142040000000  0.4715130000000 1.0
C      1  0.5518610000000  0.4771580000000  0.4294260000000 1.0
C      1  0.5076780000000  0.4483330000000  0.5809590000000 1.0
C      1  0.4671970000000  0.5394480000000  0.4952670000000 1.0
C      1  0.5385340000000  0.5632430000000  0.5555020000000 1.0
C      1  0.5801500000000  0.4277900000000  0.4792480000000 1.0
C      1  0.5589040000000  0.5585490000000  0.5347200000000 1.0
C      1  0.5136320000000  0.5401110000000  0.4207240000000 1.0
C      1  0.4484370000000  0.5735330000000  0.4690790000000 1.0
C      1  0.5390830000000  0.5392640000000  0.4680830000000 1.0
C      1  0.4468940000000  0.4956740000000  0.4237390000000 1.0
C      1  0.4831330000000  0.5320930000000  0.4227050000000 1.0
C      1  0.4783010000000  0.4844550000000  0.5344530000000 1.0
C      1  0.4249220000000  0.5031960000000  0.4667080000000 1.0
C      1  0.4940200000000  0.4100490000000  0.4994290000000 1.0
C      1  0.4881210000000  0.5351060000000  0.5573390000000 1.0
C      1  0.4962100000000  0.5457410000000  0.4892320000000 1.0
C      1  0.5413410000000  0.5411040000000  0.4984810000000 1.0
C      1  0.4232680000000  0.5329800000000  0.5176810000000 1.0
C      1  0.4629320000000  0.5226210000000  0.4700220000000 1.0
C      1  0.5638640000000  0.4212750000000  0.5000040000000 1.0
C      1  0.4995860000000  0.4605470000000  0.5003450000000 1.0
C      1  0.4666850000000  0.5549660000000  0.4275160000000 1.0
C      1  0.4544740000000  0.5513730000000  0.5879470000000 1.0
C      1  0.4534190000000  0.5249370000000  0.5194800000000 1.0
C      1  0.5093170000000  0.4748500000000  0.5893670000000 1.0
C      1  0.4680790000000  0.4927280000000  0.4785280000000 1.0
C      1  0.5298560000000  0.4683070000000  0.4136730000000 1.0
C      1  0.5272400000000  0.4520390000000  0.4610330000000 1.0
C      1  0.4700570000000  0.5057460000000  0.4127140000000 1.0
C      1  0.4643710000000  0.4483800000000  0.4201860000000 1.0
C      1  0.4491360000000  0.5563080000000  0.5611170000000 1.0
C      1  0.5863770000000  0.4721220000000  0.4924350000000 1.0
C      1  0.5512970000000  0.5065710000000  0.4310790000000 1.0
C      1  0.4252360000000  0.5558400000000  0.5010020000000 1.0
C      1  0.4910510000000  0.5653540000000  0.5593790000000 1.0
C      1  0.5152590000000  0.4977900000000  0.4755220000000 1.0
C      1  0.4305940000000  0.4869920000000  0.4441170000000 1.0
C      1  0.5745310000000  0.5100960000000  0.5205060000000 1.0
C      1  0.5296250000000  0.4626300000000  0.5354400000000 1.0
C      1  0.4286720000000  0.4396920000000  0.5007500000000 1.0
C      1  0.5054890000000  0.5784010000000  0.5203750000000 1.0
C      1  0.5277360000000  0.5081180000000  0.5318930000000 1.0
C      1  0.4984650000000  0.5021800000000  0.5224240000000 1.0
C      1  0.4106690000000  0.5148760000000  0.5339720000000 1.0
C      1  0.4670130000000  0.5745270000000  0.5474420000000 1.0
C      1  0.4721240000000  0.4193700000000  0.5147320000000 1.0
C      1  0.4303190000000  0.4626280000000  0.5440880000000 1.0
C      1  0.4774600000000  0.4376240000000  0.5409600000000 1.0
C      1  0.4202030000000  0.4449170000000  0.5265210000000 1.0
C      1  0.4582090000000  0.4482210000000  0.4480130000000 1.0
C      1  0.5309480000000  0.4964820000000  0.5915250000000 1.0
C      1  0.5180340000000  0.5642550000000  0.4375080000000 1.0
C      1  0.4952410000000  0.5769980000000  0.4490740000000 1.0
C      1  0.5401170000000  0.5413130000000  0.5750850000000 1.0
C      1  0.4917010000000  0.5211610000000  0.5850550000000 1.0
C      1  0.4945430000000  0.4900620000000  0.4946020000000 1.0
C      1  0.4340690000000  0.5292100000000  0.4624160000000 1.0
C      1  0.4892040000000  0.4865510000000  0.4018280000000 1.0
C      1  0.5104290000000  0.4322750000000  0.4473350000000 1.0
C      1  0.4404510000000  0.4868320000000  0.4898310000000 1.0
C      1  0.5610450000000  0.5243160000000  0.5662210000000 1.0
C      1  0.5430000000000  0.4365280000000  0.5404580000000 1.0
C      1  0.4254790000000  0.5548460000000  0.4721460000000 1.0
C      1  0.5125550000000  0.5481040000000  0.5124970000000 1.0
C      1  0.4592090000000  0.5299950000000  0.5493300000000 1.0
C      1  0.4868550000000  0.4909260000000  0.5832140000000 1.0
C      1  0.5601040000000  0.5214130000000  0.4546070000000 1.0
C      1  0.4653280000000  0.4266570000000  0.4677970000000 1.0
C      1  0.5144020000000  0.5768750000000  0.5484650000000 1.0
C      1  0.4850800000000  0.5270650000000  0.4521460000000 1.0
C      1  0.4703230000000  0.5365450000000  0.6011230000000 1.0
C      1  0.4280550000000  0.4612090000000  0.4821010000000 1.0
C      1  0.5174880000000  0.5889570000000  0.4945580000000 1.0
C      1  0.5556460000000  0.5650800000000  0.5065160000000 1.0
C      1  0.4731220000000  0.5792250000000  0.5202370000000 1.0
C      1  0.5289660000000  0.5164910000000  0.4157310000000 1.0
C      1  0.4970260000000  0.4601190000000  0.5294230000000 1.0
C      1  0.4506790000000  0.4946610000000  0.5185670000000 1.0
C      1  0.5429260000000  0.5820300000000  0.4853550000000 1.0
C      1  0.5214010000000  0.5233400000000  0.5895990000000 1.0
C      1  0.5214900000000  0.4180190000000  0.5429020000000 1.0
C      1  0.4673190000000  0.4831730000000  0.5628990000000 1.0
C      1  0.5109230000000  0.4468540000000  0.4201480000000 1.0
C      1  0.5177880000000  0.4079590000000  0.5155450000000 1.0
C      1  0.4287110000000  0.4935430000000  0.5417790000000 1.0
C      1  0.5392950000000  0.4926920000000  0.4916530000000 1.0
C      1  0.5062850000000  0.5280090000000  0.5336750000000 1.0
C      1  0.5003420000000  0.4309010000000  0.5602460000000 1.0
C      1  0.5707770000000  0.4851740000000  0.5345920000000 1.0
C      1  0.4528900000000  0.4250010000000  0.4941040000000 1.0
C      1  0.5392700000000  0.5664330000000  0.4591580000000 1.0
C      1  0.5352900000000  0.4194620000000  0.4967520000000 1.0
C      1  0.4924440000000  0.4188630000000  0.4686880000000 1.0
C      1  0.5407940000000  0.4672140000000  0.5058930000000 1.0
C      1  0.4566310000000  0.4566800000000  0.5534240000000 1.0
C      1  0.5882270000000  0.5008520000000  0.4933350000000 1.0
C      1  0.5723150000000  0.4636900000000  0.5165950000000 1.0
C      1  0.5094000000000  0.5267460000000  0.4688570000000 1.0
C      1  0.4781150000000  0.4756460000000  0.4566940000000 1.0
C      1  0.5662940000000  0.4359490000000  0.5242640000000 1.0
END
