TITL C-166700-7332-1 -59.8651583419727 125000 -134.750139871046 0 0 21 (C1) n - 1
REM
REM in /rds/project/t2_vol4/rds-t2-cs072/BORA/CARBON/from-Arr/AIRSS/Generating-Clusters/GAP-ML-2020/Only-C1/SD-CG/HFTN-CG
REM
REM
REM
REM
REM
REM ./C.cell (11c1c37f851c82e70ff6c80c92926a4b)
REM AIRSS Version 0.9.1 bugfix July 2018 build 013d7b7c2542+ Fri, 06 Jul 2018 19:26:36 +0100
REM compiler GCC version 9.3.0
REM options -cpp -mtune=generic -march=x86-64 -g -O0
REM seed 481999239 -370600445 882220338 419984743 -1856869918 1929383641 1616619036 153964906 153100316 -2051241013 -1240747457 1463878509 -723999278 -1541235002 -1430754696 -799539260 803617881 1658552493 896920545 -1896513220 1267658372 -1895634306 2091985093 1684055454 247603067 -247075884 -749605420 1680856708 -1844040109 1514747716 -1555898507 -1559951598 494880508
REM
CELL 1.54180   50.00000   50.00000   50.00000   90.00000   90.00000   90.00000
LATT -1
SFAC C  
C      1  0.4601570000000  0.5081780000000  0.4887400000000 1.0
C      1  0.4620230000000  0.4999000000000  0.5350320000000 1.0
C      1  0.5232910000000  0.4533430000000  0.4667130000000 1.0
C      1  0.5302660000000  0.4866770000000  0.5311600000000 1.0
C      1  0.5202020000000  0.5431370000000  0.4722470000000 1.0
C      1  0.5361710000000  0.5230050000000  0.4704910000000 1.0
C      1  0.5303340000000  0.5155270000000  0.5347030000000 1.0
C      1  0.4415910000000  0.4848650000000  0.5216000000000 1.0
C      1  0.4829970000000  0.4869690000000  0.5481550000000 1.0
C      1  0.5375670000000  0.4733680000000  0.4825470000000 1.0
C      1  0.5012300000000  0.4925960000000  0.4601060000000 1.0
C      1  0.5125250000000  0.5332310000000  0.5319910000000 1.0
C      1  0.4919240000000  0.5337760000000  0.5118440000000 1.0
C      1  0.5291120000000  0.4973450000000  0.4675840000000 1.0
C      1  0.4972640000000  0.5337010000000  0.4835140000000 1.0
C      1  0.5012750000000  0.4637950000000  0.4572330000000 1.0
C      1  0.5420620000000  0.4722700000000  0.5093510000000 1.0
C      1  0.5069800000000  0.4788250000000  0.5460600000000 1.0
C      1  0.4681430000000  0.5200390000000  0.5151040000000 1.0
C      1  0.4825950000000  0.5116400000000  0.4706090000000 1.0
C      1  0.4422920000000  0.4878110000000  0.4952150000000 1.0
END
