TITL C-166694-7624-5 245.155527680637 125000 -818.185799618832 0 0 117 (C1) n - 1
REM
REM in /rds/project/t2_vol4/rds-t2-cs072/BORA/CARBON/from-Arr/AIRSS/Generating-Clusters/GAP-ML-2020/Only-C1/SD-CG/HFTN-CG
REM
REM
REM
REM
REM
REM ./C.cell (11c1c37f851c82e70ff6c80c92926a4b)
REM AIRSS Version 0.9.1 bugfix July 2018 build 013d7b7c2542+ Fri, 06 Jul 2018 19:26:36 +0100
REM compiler GCC version 9.3.0
REM options -cpp -mtune=generic -march=x86-64 -g -O0
REM seed -2139006922 805898399 -523763947 -103627563 -1446252883 -1530247555 -615549116 -496080590 -289307717 -1357611205 680641264 -1868391506 -1374793469 741698139 838885628 2092088966 -1197791480 -1370770943 -642415578 844496908 765223450 2057326251 -611295678 -162444361 1603028800 -528872872 856898119 1536677276 1675005456 -702854949 147154823 -1425535183 605181651
REM
CELL 1.54180   50.00000   50.00000   50.00000   90.00000   90.00000   90.00000
LATT -1
SFAC C  
C      1  0.4764560000000  0.4088310000000  0.5157420000000 1.0
C      1  0.5470800000000  0.5631420000000  0.4672140000000 1.0
C      1  0.4496780000000  0.5135320000000  0.4887720000000 1.0
C      1  0.4863940000000  0.5467080000000  0.4147400000000 1.0
C      1  0.4406540000000  0.5603620000000  0.5014540000000 1.0
C      1  0.5177420000000  0.5340290000000  0.5254040000000 1.0
C      1  0.4869630000000  0.4471730000000  0.5787330000000 1.0
C      1  0.5424970000000  0.4901260000000  0.4647930000000 1.0
C      1  0.5606770000000  0.4437270000000  0.5509260000000 1.0
C      1  0.5616820000000  0.5623950000000  0.5225770000000 1.0
C      1  0.4682750000000  0.5271630000000  0.4695140000000 1.0
C      1  0.5125220000000  0.5554060000000  0.4227760000000 1.0
C      1  0.4322500000000  0.5206820000000  0.4461930000000 1.0
C      1  0.5306010000000  0.5332370000000  0.4240170000000 1.0
C      1  0.5794740000000  0.5127820000000  0.5054780000000 1.0
C      1  0.5544500000000  0.5255830000000  0.4946580000000 1.0
C      1  0.5076840000000  0.4907660000000  0.5773200000000 1.0
C      1  0.4797470000000  0.4836600000000  0.5421200000000 1.0
C      1  0.4194190000000  0.4791490000000  0.5542860000000 1.0
C      1  0.4832160000000  0.4249850000000  0.4923810000000 1.0
C      1  0.5160410000000  0.4427350000000  0.5241110000000 1.0
C      1  0.5377200000000  0.5148920000000  0.5172070000000 1.0
C      1  0.4774990000000  0.4726700000000  0.5176360000000 1.0
C      1  0.4951130000000  0.4506860000000  0.5050180000000 1.0
C      1  0.5760700000000  0.4974730000000  0.5437930000000 1.0
C      1  0.5585920000000  0.4251780000000  0.4797250000000 1.0
C      1  0.5337090000000  0.5637140000000  0.5179550000000 1.0
C      1  0.5270580000000  0.4677680000000  0.5356110000000 1.0
C      1  0.5304940000000  0.4627300000000  0.4250540000000 1.0
C      1  0.4573930000000  0.4856970000000  0.5006210000000 1.0
C      1  0.5109490000000  0.5254590000000  0.4685040000000 1.0
C      1  0.5791830000000  0.5231900000000  0.4477890000000 1.0
C      1  0.5852160000000  0.4645410000000  0.4960120000000 1.0
C      1  0.4131660000000  0.4705980000000  0.4908190000000 1.0
C      1  0.5059750000000  0.4817090000000  0.5487560000000 1.0
C      1  0.5610160000000  0.4322500000000  0.5259880000000 1.0
C      1  0.5160820000000  0.5346150000000  0.5559320000000 1.0
C      1  0.5540760000000  0.5549950000000  0.4944400000000 1.0
C      1  0.4679850000000  0.5329000000000  0.5291060000000 1.0
C      1  0.4637550000000  0.4395810000000  0.4730050000000 1.0
C      1  0.4850530000000  0.4967350000000  0.5018930000000 1.0
C      1  0.4148880000000  0.4526320000000  0.5110020000000 1.0
C      1  0.4479060000000  0.5138110000000  0.5667300000000 1.0
C      1  0.4808650000000  0.4167100000000  0.5416390000000 1.0
C      1  0.4880870000000  0.5750690000000  0.5537310000000 1.0
C      1  0.5340600000000  0.4153190000000  0.4903940000000 1.0
C      1  0.4246780000000  0.5058520000000  0.5483120000000 1.0
C      1  0.4723380000000  0.5108590000000  0.5500930000000 1.0
C      1  0.5332190000000  0.4754200000000  0.4869600000000 1.0
C      1  0.4527970000000  0.5753060000000  0.5220730000000 1.0
C      1  0.4267400000000  0.5055490000000  0.4716110000000 1.0
C      1  0.5407230000000  0.4848160000000  0.5145300000000 1.0
C      1  0.4879710000000  0.4851720000000  0.4739730000000 1.0
C      1  0.5528680000000  0.5338860000000  0.5640040000000 1.0
C      1  0.5073320000000  0.4661950000000  0.4825960000000 1.0
C      1  0.4611360000000  0.4584920000000  0.4287640000000 1.0
C      1  0.5381620000000  0.4846890000000  0.5766110000000 1.0
C      1  0.5105610000000  0.4186700000000  0.4486450000000 1.0
C      1  0.5715440000000  0.4600210000000  0.4491400000000 1.0
C      1  0.4223590000000  0.4548750000000  0.5372110000000 1.0
C      1  0.4879200000000  0.5198350000000  0.4075490000000 1.0
C      1  0.4578130000000  0.4679720000000  0.4768100000000 1.0
C      1  0.5392510000000  0.4567790000000  0.5638360000000 1.0
C      1  0.5845470000000  0.5217660000000  0.5322470000000 1.0
C      1  0.4112190000000  0.4986980000000  0.4969800000000 1.0
C      1  0.5324900000000  0.4364720000000  0.4389090000000 1.0
C      1  0.4833470000000  0.4748260000000  0.5867930000000 1.0
C      1  0.4423180000000  0.5015430000000  0.4271100000000 1.0
C      1  0.4377590000000  0.4690510000000  0.5741500000000 1.0
C      1  0.5571510000000  0.4361450000000  0.4536510000000 1.0
C      1  0.4953000000000  0.5901440000000  0.5307910000000 1.0
C      1  0.4816800000000  0.5968160000000  0.4872430000000 1.0
C      1  0.5506540000000  0.4774060000000  0.4396170000000 1.0
C      1  0.5101750000000  0.4800810000000  0.4141070000000 1.0
C      1  0.5081060000000  0.4253000000000  0.5459510000000 1.0
C      1  0.4421050000000  0.5317350000000  0.5114520000000 1.0
C      1  0.4854200000000  0.4154360000000  0.4374540000000 1.0
C      1  0.4450180000000  0.5664840000000  0.4736820000000 1.0
C      1  0.5095270000000  0.4146830000000  0.4769560000000 1.0
C      1  0.4201530000000  0.5135580000000  0.5211320000000 1.0
C      1  0.5106800000000  0.5933710000000  0.4861080000000 1.0
C      1  0.4897070000000  0.5087860000000  0.4584840000000 1.0
C      1  0.4724700000000  0.5934350000000  0.5141710000000 1.0
C      1  0.5080860000000  0.5774090000000  0.4410610000000 1.0
C      1  0.4833970000000  0.5411330000000  0.5840200000000 1.0
C      1  0.4662250000000  0.5582850000000  0.4311780000000 1.0
C      1  0.5733920000000  0.4846990000000  0.5147610000000 1.0
C      1  0.5133020000000  0.4398730000000  0.5695840000000 1.0
C      1  0.4416260000000  0.4449170000000  0.5588220000000 1.0
C      1  0.5253850000000  0.5819880000000  0.4633880000000 1.0
C      1  0.5886250000000  0.4740810000000  0.4674440000000 1.0
C      1  0.5178290000000  0.5873390000000  0.5130990000000 1.0
C      1  0.5348950000000  0.4222580000000  0.5179930000000 1.0
C      1  0.4385240000000  0.4745350000000  0.4366280000000 1.0
C      1  0.5565270000000  0.5034180000000  0.5648980000000 1.0
C      1  0.5036100000000  0.5599620000000  0.5734460000000 1.0
C      1  0.4794050000000  0.5798700000000  0.4437260000000 1.0
C      1  0.5326640000000  0.5509220000000  0.5737580000000 1.0
C      1  0.4490830000000  0.5448140000000  0.4525090000000 1.0
C      1  0.4670410000000  0.5008080000000  0.4113490000000 1.0
C      1  0.4572980000000  0.5432030000000  0.5726350000000 1.0
C      1  0.5402810000000  0.5178360000000  0.4691490000000 1.0
C      1  0.5740770000000  0.4384020000000  0.5005230000000 1.0
C      1  0.5893230000000  0.5011180000000  0.4564660000000 1.0
C      1  0.4566580000000  0.4875580000000  0.5834880000000 1.0
C      1  0.5698340000000  0.5436940000000  0.5418410000000 1.0
C      1  0.4650400000000  0.5864650000000  0.4673140000000 1.0
C      1  0.4800790000000  0.4755870000000  0.4138100000000 1.0
C      1  0.4670990000000  0.4329050000000  0.5617850000000 1.0
C      1  0.4639110000000  0.5589820000000  0.5462140000000 1.0
C      1  0.4960570000000  0.5177770000000  0.5698200000000 1.0
C      1  0.5140810000000  0.5096570000000  0.4133040000000 1.0
C      1  0.5516860000000  0.5364390000000  0.4476450000000 1.0
C      1  0.4670080000000  0.4348290000000  0.4449810000000 1.0
C      1  0.4923400000000  0.5392380000000  0.4853020000000 1.0
C      1  0.4917150000000  0.5271870000000  0.5114770000000 1.0
C      1  0.4312490000000  0.4755920000000  0.4653090000000 1.0
END
