TITL C-162427-1736-7 8.59628612106047 125000 -347.660727900263 0 0 51 (C1) n - 1
REM
REM in /rds/project/t2_vol4/rds-t2-cs072/BORA/CARBON/from-Arr/AIRSS/Generating-Clusters/GAP-ML-2020/Only-C1/SD-CG/HFTN-CG
REM
REM
REM
REM
REM
REM ./C.cell (11c1c37f851c82e70ff6c80c92926a4b)
REM AIRSS Version 0.9.1 bugfix July 2018 build 013d7b7c2542+ Fri, 06 Jul 2018 19:26:36 +0100
REM compiler GCC version 9.3.0
REM options -cpp -mtune=generic -march=x86-64 -g -O0
REM seed 2088893895 -1055395594 1677695944 1518895393 -679981439 -738900863 -1297087884 1637975040 -1909341121 1949753385 -2080642140 1878949503 -2031739306 -873997020 799225892 -146973090 1998633841 1537946559 -1535394068 -953176929 1146004125 1991444059 2081572700 2128560961 18051425 -414539424 1874473840 375057232 -2039367971 1075555040 1160856475 -1732766856 115494802
REM
CELL 1.54180   50.00000   50.00000   50.00000   90.00000   90.00000   90.00000
LATT -1
SFAC C  
C      1  0.5304300000000  0.5274390000000  0.5374450000000 1.0
C      1  0.5613920000000  0.5034940000000  0.5075580000000 1.0
C      1  0.5069630000000  0.5439410000000  0.5295640000000 1.0
C      1  0.5054170000000  0.4791290000000  0.4379090000000 1.0
C      1  0.4445190000000  0.4975350000000  0.4724610000000 1.0
C      1  0.5408480000000  0.4549700000000  0.5398310000000 1.0
C      1  0.5306400000000  0.5217370000000  0.4458610000000 1.0
C      1  0.5157510000000  0.4642600000000  0.4589260000000 1.0
C      1  0.4666370000000  0.5540210000000  0.5083160000000 1.0
C      1  0.5413980000000  0.4962550000000  0.4870720000000 1.0
C      1  0.5025840000000  0.4935770000000  0.5550180000000 1.0
C      1  0.5162500000000  0.4448240000000  0.5301870000000 1.0
C      1  0.4360460000000  0.5189700000000  0.5419810000000 1.0
C      1  0.4369030000000  0.5152270000000  0.5149680000000 1.0
C      1  0.5434110000000  0.4512980000000  0.4940050000000 1.0
C      1  0.5505680000000  0.5280510000000  0.5170930000000 1.0
C      1  0.4824090000000  0.5146600000000  0.4362130000000 1.0
C      1  0.4835960000000  0.5022640000000  0.5331810000000 1.0
C      1  0.5416050000000  0.5426570000000  0.4940750000000 1.0
C      1  0.4692630000000  0.4541340000000  0.4740280000000 1.0
C      1  0.5034210000000  0.5158860000000  0.5143650000000 1.0
C      1  0.5307960000000  0.5215740000000  0.4753110000000 1.0
C      1  0.5106700000000  0.5079380000000  0.4354850000000 1.0
C      1  0.5360760000000  0.5691540000000  0.4983140000000 1.0
C      1  0.5668300000000  0.4830850000000  0.5251780000000 1.0
C      1  0.4898950000000  0.4959540000000  0.4790730000000 1.0
C      1  0.4657270000000  0.4805990000000  0.4614800000000 1.0
C      1  0.5484270000000  0.4823750000000  0.5484460000000 1.0
C      1  0.4514590000000  0.4663330000000  0.5071110000000 1.0
C      1  0.4874050000000  0.5639390000000  0.4918820000000 1.0
C      1  0.4969970000000  0.4762190000000  0.4985610000000 1.0
C      1  0.5120260000000  0.5628180000000  0.5076540000000 1.0
C      1  0.4383080000000  0.4907340000000  0.4993190000000 1.0
C      1  0.4491240000000  0.4447900000000  0.4893410000000 1.0
C      1  0.4630630000000  0.5225820000000  0.5426020000000 1.0
C      1  0.5202250000000  0.4897510000000  0.5105200000000 1.0
C      1  0.4771720000000  0.5457610000000  0.5329560000000 1.0
C      1  0.4776480000000  0.4739480000000  0.5211820000000 1.0
C      1  0.5294240000000  0.5027080000000  0.5526160000000 1.0
C      1  0.4764130000000  0.4866250000000  0.4362810000000 1.0
C      1  0.4969810000000  0.4694270000000  0.5652590000000 1.0
C      1  0.4504200000000  0.5252280000000  0.4713220000000 1.0
C      1  0.4708610000000  0.5334270000000  0.4535900000000 1.0
C      1  0.4930210000000  0.4569620000000  0.5412450000000 1.0
C      1  0.5175500000000  0.4416230000000  0.5010110000000 1.0
C      1  0.4463170000000  0.5368090000000  0.4968060000000 1.0
C      1  0.5580240000000  0.4576250000000  0.5165030000000 1.0
C      1  0.4987580000000  0.4517460000000  0.4804570000000 1.0
C      1  0.5401770000000  0.4705080000000  0.4731890000000 1.0
C      1  0.4885770000000  0.5445380000000  0.4722520000000 1.0
C      1  0.5015810000000  0.5208950000000  0.4849980000000 1.0
END
