TITL C-162425-26-2 -0.0857519327633641 125000 -487.959767648079 0 0 70 (C1) n - 1
REM
REM in /rds/project/t2_vol4/rds-t2-cs072/BORA/CARBON/from-Arr/AIRSS/Generating-Clusters/GAP-ML-2020/Only-C1/SD-CG/HFTN-CG
REM
REM
REM
REM
REM
REM ./C.cell (11c1c37f851c82e70ff6c80c92926a4b)
REM AIRSS Version 0.9.1 bugfix July 2018 build 013d7b7c2542+ Fri, 06 Jul 2018 19:26:36 +0100
REM compiler GCC version 9.3.0
REM options -cpp -mtune=generic -march=x86-64 -g -O0
REM seed -963410867 -965434828 -698632723 -1031107807 -36028318 447048123 1475360657 -695952180 515004919 -638060282 892878803 340053210 -634088491 369434206 -436110124 -965753223 -1246050555 1278355875 841584043 674116739 -34387542 -1875317146 -1127934259 -1873289698 1946225911 464815860 1974408823 -1902053323 -237597405 -1398536227 -505671032 -198503627 -854329561
REM
CELL 1.54180   50.00000   50.00000   50.00000   90.00000   90.00000   90.00000
LATT -1
SFAC C  
C      1  0.5242860000000  0.4581930000000  0.4145450000000 1.0
C      1  0.4563440000000  0.5233150000000  0.5546280000000 1.0
C      1  0.4729320000000  0.4264010000000  0.4850270000000 1.0
C      1  0.5336650000000  0.5568620000000  0.5203330000000 1.0
C      1  0.4513410000000  0.4758720000000  0.5413050000000 1.0
C      1  0.4605250000000  0.4533100000000  0.4845630000000 1.0
C      1  0.4715530000000  0.4702240000000  0.4593420000000 1.0
C      1  0.5544870000000  0.5369640000000  0.5156220000000 1.0
C      1  0.4379800000000  0.5296420000000  0.4691130000000 1.0
C      1  0.5339890000000  0.4940430000000  0.5677410000000 1.0
C      1  0.5284090000000  0.5092940000000  0.4794910000000 1.0
C      1  0.5046940000000  0.4727810000000  0.4900270000000 1.0
C      1  0.5459000000000  0.4744100000000  0.5502710000000 1.0
C      1  0.4491180000000  0.5505560000000  0.4851130000000 1.0
C      1  0.5260520000000  0.5393560000000  0.5639180000000 1.0
C      1  0.4861680000000  0.4398040000000  0.5256250000000 1.0
C      1  0.4373540000000  0.4605560000000  0.4993790000000 1.0
C      1  0.5211870000000  0.4347210000000  0.4924800000000 1.0
C      1  0.4654180000000  0.4503310000000  0.5459270000000 1.0
C      1  0.5373480000000  0.5528720000000  0.4748670000000 1.0
C      1  0.4895600000000  0.5592600000000  0.5436890000000 1.0
C      1  0.5583960000000  0.5110510000000  0.4694230000000 1.0
C      1  0.5244870000000  0.4910780000000  0.5014050000000 1.0
C      1  0.5501530000000  0.5208500000000  0.4430860000000 1.0
C      1  0.4827950000000  0.4843910000000  0.5738690000000 1.0
C      1  0.5522710000000  0.4745100000000  0.5040530000000 1.0
C      1  0.4719810000000  0.4850010000000  0.5205750000000 1.0
C      1  0.4424120000000  0.5295830000000  0.5301810000000 1.0
C      1  0.5432200000000  0.4652690000000  0.4585680000000 1.0
C      1  0.4229720000000  0.5180970000000  0.4884560000000 1.0
C      1  0.5101280000000  0.5022380000000  0.4586780000000 1.0
C      1  0.4917750000000  0.5668650000000  0.4949650000000 1.0
C      1  0.5396700000000  0.4738290000000  0.4305750000000 1.0
C      1  0.5051150000000  0.5370670000000  0.4388340000000 1.0
C      1  0.4866110000000  0.5092300000000  0.5172630000000 1.0
C      1  0.4873300000000  0.4916400000000  0.4217090000000 1.0
C      1  0.4766690000000  0.5643390000000  0.5194580000000 1.0
C      1  0.5317290000000  0.5434000000000  0.4488360000000 1.0
C      1  0.5205930000000  0.5638520000000  0.4957060000000 1.0
C      1  0.5019230000000  0.5278200000000  0.5747270000000 1.0
C      1  0.5084770000000  0.5110350000000  0.4269090000000 1.0
C      1  0.5125290000000  0.5051790000000  0.5231680000000 1.0
C      1  0.4881390000000  0.4917140000000  0.4735600000000 1.0
C      1  0.4823840000000  0.4629990000000  0.5062450000000 1.0
C      1  0.5373610000000  0.5026820000000  0.4265460000000 1.0
C      1  0.5449670000000  0.5192480000000  0.5591960000000 1.0
C      1  0.4868140000000  0.4579700000000  0.5634460000000 1.0
C      1  0.4791070000000  0.5415220000000  0.4503300000000 1.0
C      1  0.5392530000000  0.4475530000000  0.5112010000000 1.0
C      1  0.5175710000000  0.4533850000000  0.4701410000000 1.0
C      1  0.4331030000000  0.4804560000000  0.5184330000000 1.0
C      1  0.4949800000000  0.4233680000000  0.5015720000000 1.0
C      1  0.5063610000000  0.4455910000000  0.5464870000000 1.0
C      1  0.5589250000000  0.4809490000000  0.4758100000000 1.0
C      1  0.4583710000000  0.4956240000000  0.5624350000000 1.0
C      1  0.4944300000000  0.4543980000000  0.4499570000000 1.0
C      1  0.4515460000000  0.5514280000000  0.5138680000000 1.0
C      1  0.4780410000000  0.5117650000000  0.4912190000000 1.0
C      1  0.5605820000000  0.4876400000000  0.5295700000000 1.0
C      1  0.5590670000000  0.5164160000000  0.5347730000000 1.0
C      1  0.4581390000000  0.5207500000000  0.4487420000000 1.0
C      1  0.5328750000000  0.4510770000000  0.5390250000000 1.0
C      1  0.5011150000000  0.4656470000000  0.4251880000000 1.0
C      1  0.4654080000000  0.4934820000000  0.4397350000000 1.0
C      1  0.4276180000000  0.5095070000000  0.5141840000000 1.0
C      1  0.4787960000000  0.5395690000000  0.5619640000000 1.0
C      1  0.5562010000000  0.5343000000000  0.4873660000000 1.0
C      1  0.5187320000000  0.5579400000000  0.5441590000000 1.0
C      1  0.5064910000000  0.4999280000000  0.5777520000000 1.0
C      1  0.4740760000000  0.5579990000000  0.4736440000000 1.0
END
