TITL C-167826-8054-8 -0.0657444704251164 125000 -476.256741387481 0 0 70 (C1) n - 1
REM
REM in /rds/project/t2_vol4/rds-t2-cs072/BORA/CARBON/from-Arr/AIRSS/Generating-Clusters/GAP-ML-2020/Only-C1/SD-CG/HFTN-CG
REM
REM
REM
REM
REM
REM ./C.cell (11c1c37f851c82e70ff6c80c92926a4b)
REM AIRSS Version 0.9.1 bugfix July 2018 build 013d7b7c2542+ Fri, 06 Jul 2018 19:26:36 +0100
REM compiler GCC version 9.3.0
REM options -cpp -mtune=generic -march=x86-64 -g -O0
REM seed 1493715693 -2133806345 -797027852 94169280 723340605 1708902137 -1740908581 20810357 731783616 -1684898946 1206232971 1297671381 -2096367888 -1264709550 -1062336015 -1136728358 973010486 -2128596903 -1453295048 836461203 1576955192 1134456853 1958199763 1134621921 -2099194702 -344046378 1551267024 1647565895 1834382460 -1016714768 -622959126 1877043234 1293793298
REM
CELL 1.54180   50.00000   50.00000   50.00000   90.00000   90.00000   90.00000
LATT -1
SFAC C  
C      1  0.4424310000000  0.4797380000000  0.4754210000000 1.0
C      1  0.4754800000000  0.5010180000000  0.4274540000000 1.0
C      1  0.5299960000000  0.5617890000000  0.5066330000000 1.0
C      1  0.5278230000000  0.4746570000000  0.4401860000000 1.0
C      1  0.4814780000000  0.4836260000000  0.5141760000000 1.0
C      1  0.4534770000000  0.4808160000000  0.5556190000000 1.0
C      1  0.4562800000000  0.5093990000000  0.5537150000000 1.0
C      1  0.5731610000000  0.4938170000000  0.5179540000000 1.0
C      1  0.4741440000000  0.4645250000000  0.5628970000000 1.0
C      1  0.5147040000000  0.4389480000000  0.4697040000000 1.0
C      1  0.5072060000000  0.5665300000000  0.4451900000000 1.0
C      1  0.5512880000000  0.5346030000000  0.4637010000000 1.0
C      1  0.5005150000000  0.5625380000000  0.5015250000000 1.0
C      1  0.4242760000000  0.4978430000000  0.4917530000000 1.0
C      1  0.4674590000000  0.4406360000000  0.4955390000000 1.0
C      1  0.4458070000000  0.5203090000000  0.4609840000000 1.0
C      1  0.4433750000000  0.4938960000000  0.4497870000000 1.0
C      1  0.5137550000000  0.4838470000000  0.4844370000000 1.0
C      1  0.4604210000000  0.4798700000000  0.4327350000000 1.0
C      1  0.5375310000000  0.5273810000000  0.4389850000000 1.0
C      1  0.4895020000000  0.4837070000000  0.4660700000000 1.0
C      1  0.5723700000000  0.5193560000000  0.5036490000000 1.0
C      1  0.4761480000000  0.4605910000000  0.4500300000000 1.0
C      1  0.5365090000000  0.5534380000000  0.4801330000000 1.0
C      1  0.4991290000000  0.4408690000000  0.5425760000000 1.0
C      1  0.5151030000000  0.5107640000000  0.4907350000000 1.0
C      1  0.5403540000000  0.5508660000000  0.5306370000000 1.0
C      1  0.4796920000000  0.5715420000000  0.5418780000000 1.0
C      1  0.4697630000000  0.4921490000000  0.4870860000000 1.0
C      1  0.5093590000000  0.5150820000000  0.5179120000000 1.0
C      1  0.4635960000000  0.5330780000000  0.5092120000000 1.0
C      1  0.4951340000000  0.4979370000000  0.5369000000000 1.0
C      1  0.4981840000000  0.4388770000000  0.4950920000000 1.0
C      1  0.4401630000000  0.4703480000000  0.5318390000000 1.0
C      1  0.5539230000000  0.4486990000000  0.4996040000000 1.0
C      1  0.5223880000000  0.5441060000000  0.5526720000000 1.0
C      1  0.5040710000000  0.4678000000000  0.5049940000000 1.0
C      1  0.5312530000000  0.4729340000000  0.5604430000000 1.0
C      1  0.4571290000000  0.4528320000000  0.4724470000000 1.0
C      1  0.4751430000000  0.5769890000000  0.5139040000000 1.0
C      1  0.5449090000000  0.4528970000000  0.5472350000000 1.0
C      1  0.4715730000000  0.4407650000000  0.5452540000000 1.0
C      1  0.5026280000000  0.4717460000000  0.5546120000000 1.0
C      1  0.5664990000000  0.4855420000000  0.4726010000000 1.0
C      1  0.5628490000000  0.5073170000000  0.5419280000000 1.0
C      1  0.4308930000000  0.4943920000000  0.5185210000000 1.0
C      1  0.4958380000000  0.5072420000000  0.4468170000000 1.0
C      1  0.4819380000000  0.5188380000000  0.5556210000000 1.0
C      1  0.4263980000000  0.5250040000000  0.4814760000000 1.0
C      1  0.5229340000000  0.5509450000000  0.4315560000000 1.0
C      1  0.4462310000000  0.5163410000000  0.5282550000000 1.0
C      1  0.4914240000000  0.5385300000000  0.5181470000000 1.0
C      1  0.4526500000000  0.5611620000000  0.5038680000000 1.0
C      1  0.5434690000000  0.5000440000000  0.5617650000000 1.0
C      1  0.5298860000000  0.5230000000000  0.5681500000000 1.0
C      1  0.5689660000000  0.4733180000000  0.4984290000000 1.0
C      1  0.4956170000000  0.5267440000000  0.4712170000000 1.0
C      1  0.5404960000000  0.4399560000000  0.5232900000000 1.0
C      1  0.5500590000000  0.4674450000000  0.4566720000000 1.0
C      1  0.5054670000000  0.5548200000000  0.4723980000000 1.0
C      1  0.5229320000000  0.5028500000000  0.4368710000000 1.0
C      1  0.5619010000000  0.5326620000000  0.5272060000000 1.0
C      1  0.5420440000000  0.4454180000000  0.4739900000000 1.0
C      1  0.5678130000000  0.5146820000000  0.4759540000000 1.0
C      1  0.4551750000000  0.4459320000000  0.5222230000000 1.0
C      1  0.4304420000000  0.5510660000000  0.4923540000000 1.0
C      1  0.4925740000000  0.5461640000000  0.5474530000000 1.0
C      1  0.5130240000000  0.4317330000000  0.5203140000000 1.0
C      1  0.5053430000000  0.4551650000000  0.4476760000000 1.0
C      1  0.4685070000000  0.5205300000000  0.4819410000000 1.0
END
