TITL C-166682-7343-3 82.180831009733 125000 -983.091083968988 0 0 141 (C1) n - 1
REM
REM in /rds/project/t2_vol4/rds-t2-cs072/BORA/CARBON/from-Arr/AIRSS/Generating-Clusters/GAP-ML-2020/Only-C1/SD-CG/HFTN-CG
REM
REM
REM
REM
REM
REM ./C.cell (11c1c37f851c82e70ff6c80c92926a4b)
REM AIRSS Version 0.9.1 bugfix July 2018 build 013d7b7c2542+ Fri, 06 Jul 2018 19:26:36 +0100
REM compiler GCC version 9.3.0
REM options -cpp -mtune=generic -march=x86-64 -g -O0
REM seed -1466587427 -1865161061 -778575667 -1889343751 2112394994 -867202704 -2078759698 -1376449951 -1354421745 603589852 656952274 -1753191347 -964178228 -1318358484 -1581104729 -2022724154 -2025045679 -1754314897 -1567635887 -377985404 1532801148 1104342660 -496515668 1139882987 -1628020539 1084892131 325425094 1399721163 445032265 -549394131 -715355140 -620189249 -1291342086
REM
CELL 1.54180   50.00000   50.00000   50.00000   90.00000   90.00000   90.00000
LATT -1
SFAC C  
C      1  0.4167980000000  0.5415070000000  0.4803620000000 1.0
C      1  0.5998960000000  0.4945010000000  0.5066550000000 1.0
C      1  0.5495280000000  0.5514530000000  0.5358360000000 1.0
C      1  0.4066210000000  0.4650750000000  0.4738460000000 1.0
C      1  0.5946870000000  0.5139720000000  0.5284990000000 1.0
C      1  0.5059690000000  0.5954950000000  0.5068450000000 1.0
C      1  0.4902550000000  0.4882960000000  0.4879100000000 1.0
C      1  0.5191980000000  0.5079420000000  0.4010690000000 1.0
C      1  0.5211320000000  0.5632780000000  0.5709060000000 1.0
C      1  0.5699490000000  0.5061290000000  0.5436480000000 1.0
C      1  0.5175250000000  0.5229860000000  0.5099290000000 1.0
C      1  0.5213530000000  0.5219480000000  0.5987860000000 1.0
C      1  0.4297380000000  0.4373860000000  0.4411510000000 1.0
C      1  0.5598560000000  0.5061640000000  0.4901720000000 1.0
C      1  0.5169920000000  0.5298950000000  0.4458020000000 1.0
C      1  0.5621360000000  0.4152010000000  0.4969260000000 1.0
C      1  0.4717880000000  0.4056670000000  0.4622440000000 1.0
C      1  0.4803410000000  0.4692150000000  0.5130220000000 1.0
C      1  0.5462960000000  0.4392660000000  0.4572200000000 1.0
C      1  0.4491600000000  0.5432790000000  0.4481840000000 1.0
C      1  0.4909000000000  0.5156700000000  0.5931760000000 1.0
C      1  0.4978460000000  0.4476940000000  0.5014030000000 1.0
C      1  0.4559570000000  0.4398740000000  0.4305260000000 1.0
C      1  0.4645960000000  0.5303790000000  0.5924820000000 1.0
C      1  0.5053180000000  0.4276390000000  0.4317330000000 1.0
C      1  0.4109480000000  0.4378550000000  0.4840330000000 1.0
C      1  0.4723400000000  0.4265270000000  0.5500340000000 1.0
C      1  0.5867900000000  0.4996930000000  0.4550790000000 1.0
C      1  0.4731290000000  0.4604370000000  0.4606210000000 1.0
C      1  0.5191190000000  0.4643050000000  0.5513170000000 1.0
C      1  0.5383440000000  0.5525380000000  0.4164670000000 1.0
C      1  0.4771840000000  0.4205380000000  0.4372040000000 1.0
C      1  0.4126800000000  0.5516740000000  0.5065360000000 1.0
C      1  0.4968670000000  0.5473070000000  0.3928840000000 1.0
C      1  0.4061780000000  0.5327630000000  0.5250290000000 1.0
C      1  0.4867940000000  0.4730490000000  0.5426910000000 1.0
C      1  0.5579860000000  0.4905280000000  0.5174460000000 1.0
C      1  0.5212010000000  0.5368930000000  0.3985280000000 1.0
C      1  0.5505480000000  0.5297170000000  0.5566440000000 1.0
C      1  0.5223810000000  0.4337850000000  0.5541080000000 1.0
C      1  0.4691590000000  0.5547020000000  0.4309560000000 1.0
C      1  0.5372020000000  0.4942310000000  0.4723400000000 1.0
C      1  0.4920720000000  0.5716530000000  0.4386150000000 1.0
C      1  0.4097300000000  0.4899400000000  0.4889560000000 1.0
C      1  0.4188060000000  0.5134010000000  0.4732800000000 1.0
C      1  0.4667270000000  0.5572190000000  0.5833090000000 1.0
C      1  0.4304860000000  0.5704930000000  0.5207640000000 1.0
C      1  0.5535650000000  0.5968310000000  0.5087410000000 1.0
C      1  0.4991310000000  0.5247770000000  0.4667370000000 1.0
C      1  0.5555910000000  0.5354270000000  0.4897390000000 1.0
C      1  0.4934240000000  0.4023730000000  0.4795640000000 1.0
C      1  0.5957650000000  0.5408880000000  0.5261140000000 1.0
C      1  0.5690840000000  0.5768350000000  0.5002540000000 1.0
C      1  0.4670750000000  0.4680470000000  0.5871790000000 1.0
C      1  0.4450690000000  0.4133660000000  0.5061000000000 1.0
C      1  0.4529250000000  0.5829930000000  0.5092860000000 1.0
C      1  0.5774630000000  0.5602490000000  0.5235950000000 1.0
C      1  0.4164850000000  0.4610300000000  0.4480580000000 1.0
C      1  0.4989200000000  0.5190050000000  0.5645170000000 1.0
C      1  0.4617200000000  0.5238590000000  0.4989350000000 1.0
C      1  0.5393290000000  0.5405540000000  0.5105350000000 1.0
C      1  0.5679160000000  0.4327050000000  0.4762580000000 1.0
C      1  0.4516730000000  0.5724670000000  0.5633480000000 1.0
C      1  0.4746920000000  0.5870680000000  0.5535850000000 1.0
C      1  0.5370780000000  0.4944150000000  0.4182150000000 1.0
C      1  0.4871770000000  0.4858640000000  0.6005800000000 1.0
C      1  0.5663350000000  0.4831830000000  0.5628320000000 1.0
C      1  0.4242130000000  0.4810040000000  0.5160110000000 1.0
C      1  0.4303430000000  0.5626450000000  0.5481270000000 1.0
C      1  0.5638950000000  0.5455650000000  0.4260360000000 1.0
C      1  0.5799640000000  0.4484440000000  0.5299950000000 1.0
C      1  0.4679940000000  0.4146280000000  0.5234020000000 1.0
C      1  0.4875050000000  0.5027920000000  0.5418390000000 1.0
C      1  0.5204090000000  0.4021620000000  0.4707480000000 1.0
C      1  0.4482770000000  0.5822020000000  0.4806180000000 1.0
C      1  0.5310660000000  0.5736780000000  0.4649920000000 1.0
C      1  0.5832510000000  0.4692470000000  0.5079590000000 1.0
C      1  0.4492370000000  0.4863190000000  0.5935790000000 1.0
C      1  0.4645540000000  0.5981780000000  0.4662570000000 1.0
C      1  0.5642990000000  0.4247440000000  0.5239600000000 1.0
C      1  0.4262930000000  0.5120340000000  0.5620380000000 1.0
C      1  0.5791340000000  0.4610090000000  0.5543460000000 1.0
C      1  0.4936770000000  0.4956590000000  0.4032770000000 1.0
C      1  0.4522750000000  0.4756890000000  0.5004980000000 1.0
C      1  0.4720510000000  0.5230630000000  0.5257700000000 1.0
C      1  0.4447380000000  0.5124080000000  0.4544900000000 1.0
C      1  0.5373960000000  0.4013550000000  0.4933870000000 1.0
C      1  0.5399350000000  0.5093690000000  0.4446320000000 1.0
C      1  0.4978480000000  0.4629890000000  0.4740000000000 1.0
C      1  0.4802040000000  0.5866750000000  0.5240140000000 1.0
C      1  0.5282750000000  0.5714860000000  0.5426400000000 1.0
C      1  0.4435270000000  0.5118100000000  0.5855230000000 1.0
C      1  0.5287950000000  0.4646130000000  0.4741840000000 1.0
C      1  0.4753800000000  0.5388250000000  0.4083850000000 1.0
C      1  0.4354930000000  0.5585100000000  0.4673800000000 1.0
C      1  0.5584860000000  0.4577850000000  0.4385280000000 1.0
C      1  0.5810110000000  0.4574670000000  0.4800060000000 1.0
C      1  0.5894810000000  0.5045830000000  0.4825630000000 1.0
C      1  0.5382970000000  0.4663110000000  0.4202730000000 1.0
C      1  0.4549820000000  0.4969000000000  0.4302770000000 1.0
C      1  0.4222810000000  0.4314550000000  0.5094530000000 1.0
C      1  0.4363760000000  0.4622530000000  0.5510410000000 1.0
C      1  0.5218310000000  0.4055120000000  0.5163880000000 1.0
C      1  0.4910090000000  0.5713050000000  0.5758620000000 1.0
C      1  0.5311110000000  0.4768940000000  0.5236790000000 1.0
C      1  0.4653660000000  0.4559230000000  0.5593410000000 1.0
C      1  0.4979270000000  0.4225330000000  0.5567330000000 1.0
C      1  0.4983920000000  0.5616650000000  0.5315520000000 1.0
C      1  0.4619020000000  0.4999680000000  0.4838260000000 1.0
C      1  0.5107250000000  0.4784830000000  0.6133040000000 1.0
C      1  0.5687150000000  0.5206440000000  0.4440740000000 1.0
C      1  0.5126580000000  0.5066980000000  0.4850140000000 1.0
C      1  0.4706520000000  0.5107730000000  0.4106530000000 1.0
C      1  0.5275180000000  0.5101620000000  0.5563850000000 1.0
C      1  0.4911180000000  0.4701030000000  0.4145990000000 1.0
C      1  0.5174330000000  0.5027780000000  0.5298650000000 1.0
C      1  0.4177560000000  0.5361680000000  0.5494880000000 1.0
C      1  0.4469570000000  0.4085840000000  0.4769260000000 1.0
C      1  0.4265190000000  0.4889190000000  0.5456760000000 1.0
C      1  0.5263090000000  0.4192660000000  0.4491770000000 1.0
C      1  0.5200630000000  0.5608880000000  0.4403650000000 1.0
C      1  0.4935890000000  0.4146460000000  0.5069720000000 1.0
C      1  0.5785100000000  0.4718320000000  0.4544010000000 1.0
C      1  0.5384610000000  0.4182530000000  0.5356810000000 1.0
C      1  0.4825210000000  0.5407660000000  0.4852970000000 1.0
C      1  0.5364780000000  0.5408130000000  0.5818410000000 1.0
C      1  0.5261510000000  0.4574760000000  0.5030280000000 1.0
C      1  0.5724240000000  0.5492810000000  0.4514700000000 1.0
C      1  0.5290630000000  0.4931460000000  0.5990150000000 1.0
C      1  0.4526660000000  0.4569090000000  0.4795000000000 1.0
C      1  0.4250290000000  0.4220580000000  0.4646000000000 1.0
C      1  0.5579710000000  0.5615380000000  0.4748920000000 1.0
C      1  0.4894790000000  0.5904590000000  0.4595240000000 1.0
C      1  0.5369330000000  0.4850340000000  0.5705040000000 1.0
C      1  0.5302250000000  0.5943950000000  0.5228380000000 1.0
C      1  0.4943710000000  0.5401730000000  0.5127470000000 1.0
C      1  0.4964020000000  0.5481800000000  0.5590400000000 1.0
C      1  0.4226940000000  0.4523540000000  0.5276400000000 1.0
C      1  0.5114120000000  0.5896590000000  0.4783340000000 1.0
C      1  0.4671600000000  0.4686540000000  0.4318330000000 1.0
C      1  0.5126370000000  0.4521590000000  0.4183730000000 1.0
END
