TITL C-160262-8377-2 -44.5241225298387 125000 -253.148115604835 0 0 38 (C1) n - 1
REM
REM in /rds/project/t2_vol4/rds-t2-cs072/BORA/CARBON/from-Arr/AIRSS/Generating-Clusters/GAP-ML-2020/Only-C1/SD-CG/HFTN-CG
REM
REM
REM
REM
REM
REM ./C.cell (11c1c37f851c82e70ff6c80c92926a4b)
REM AIRSS Version 0.9.1 bugfix July 2018 build 013d7b7c2542+ Fri, 06 Jul 2018 19:26:36 +0100
REM compiler GCC version 9.3.0
REM options -cpp -mtune=generic -march=x86-64 -g -O0
REM seed -543059431 341020162 -547996438 -870608025 742114314 1723684857 1754082256 -1604907586 -1548131320 -338747379 1959295599 909728368 480006570 945381506 1235239946 154095335 -67336272 -609467829 -875282782 -442737793 737533563 -1542244288 -730847591 1063417223 -1072631315 -1469717774 -1192048027 181055099 -1370444497 -1997333116 -1187536142 638459161 1922201268
REM
CELL 1.54180   50.00000   50.00000   50.00000   90.00000   90.00000   90.00000
LATT -1
SFAC C  
C      1  0.5325200000000  0.5499740000000  0.5073560000000 1.0
C      1  0.4853070000000  0.4868270000000  0.4917830000000 1.0
C      1  0.4601870000000  0.4874570000000  0.4650220000000 1.0
C      1  0.5015590000000  0.5296160000000  0.5439930000000 1.0
C      1  0.4921200000000  0.5555780000000  0.5362850000000 1.0
C      1  0.4898390000000  0.4644710000000  0.5528390000000 1.0
C      1  0.4643350000000  0.5515740000000  0.5018760000000 1.0
C      1  0.5052620000000  0.4412740000000  0.4941420000000 1.0
C      1  0.4825070000000  0.4270550000000  0.4850200000000 1.0
C      1  0.5116030000000  0.4897860000000  0.5216520000000 1.0
C      1  0.4784350000000  0.4682400000000  0.4529380000000 1.0
C      1  0.5332370000000  0.4927330000000  0.5422130000000 1.0
C      1  0.5080020000000  0.5637950000000  0.5128290000000 1.0
C      1  0.4635350000000  0.5156100000000  0.4663030000000 1.0
C      1  0.5571980000000  0.4822480000000  0.5271890000000 1.0
C      1  0.5322380000000  0.5106670000000  0.4686320000000 1.0
C      1  0.5283870000000  0.5366730000000  0.4807160000000 1.0
C      1  0.4899270000000  0.5610200000000  0.4908820000000 1.0
C      1  0.5094020000000  0.5053130000000  0.4518120000000 1.0
C      1  0.4531370000000  0.4684220000000  0.4867350000000 1.0
C      1  0.4760010000000  0.4621690000000  0.5289330000000 1.0
C      1  0.5022160000000  0.5447810000000  0.4715830000000 1.0
C      1  0.5435350000000  0.4853160000000  0.4774660000000 1.0
C      1  0.4891110000000  0.5241950000000  0.4568330000000 1.0
C      1  0.4701220000000  0.4478080000000  0.4735990000000 1.0
C      1  0.4555660000000  0.4775330000000  0.5147440000000 1.0
C      1  0.5247090000000  0.4411560000000  0.4752130000000 1.0
C      1  0.5266580000000  0.4659580000000  0.4645370000000 1.0
C      1  0.4579140000000  0.5247900000000  0.4935730000000 1.0
C      1  0.4692400000000  0.5041990000000  0.5111390000000 1.0
C      1  0.4654550000000  0.5594720000000  0.5285190000000 1.0
C      1  0.5048600000000  0.4775520000000  0.4498100000000 1.0
C      1  0.5575390000000  0.4789210000000  0.5019010000000 1.0
C      1  0.4981160000000  0.4665600000000  0.5093350000000 1.0
C      1  0.5457410000000  0.5414210000000  0.5310450000000 1.0
C      1  0.4916340000000  0.5084090000000  0.5286560000000 1.0
C      1  0.5303950000000  0.5239370000000  0.5453490000000 1.0
C      1  0.5124520000000  0.4774900000000  0.5575480000000 1.0
END
