TITL C-162417-9427-10 0.030694279761981 125000 -173.709235538368 0 0 27 (C1) n - 1
REM
REM in /rds/project/t2_vol4/rds-t2-cs072/BORA/CARBON/from-Arr/AIRSS/Generating-Clusters/GAP-ML-2020/Only-C1/SD-CG/HFTN-CG
REM
REM
REM
REM
REM
REM ./C.cell (11c1c37f851c82e70ff6c80c92926a4b)
REM AIRSS Version 0.9.1 bugfix July 2018 build 013d7b7c2542+ Fri, 06 Jul 2018 19:26:36 +0100
REM compiler GCC version 9.3.0
REM options -cpp -mtune=generic -march=x86-64 -g -O0
REM seed 652521351 81545677 -945796631 518077013 178277654 -208995098 721829627 1787782484 -122498682 -1753378234 -1702518595 -462680544 509556082 -1552766348 -349202549 665732024 -1508580027 301099035 -255594658 -885889457 -1364507555 355245088 -483560507 1667140543 -638975739 621830618 -558265327 -218598527 -1508080912 -39780104 -280299441 -1343610607 373428972
REM
CELL 1.54180   50.00000   50.00000   50.00000   90.00000   90.00000   90.00000
LATT -1
SFAC C  
C      1  0.4604520000000  0.4992060000000  0.4971540000000 1.0
C      1  0.5288340000000  0.5520100000000  0.5031510000000 1.0
C      1  0.5594090000000  0.4788920000000  0.5117830000000 1.0
C      1  0.5392910000000  0.5442240000000  0.5252350000000 1.0
C      1  0.4503810000000  0.4600550000000  0.5308310000000 1.0
C      1  0.5442420000000  0.5251390000000  0.5423710000000 1.0
C      1  0.4943430000000  0.5618600000000  0.4683990000000 1.0
C      1  0.5077800000000  0.4840360000000  0.4980770000000 1.0
C      1  0.4970960000000  0.4439230000000  0.5246960000000 1.0
C      1  0.4565850000000  0.4868470000000  0.5236110000000 1.0
C      1  0.5025000000000  0.5000930000000  0.5481120000000 1.0
C      1  0.5163830000000  0.5474430000000  0.4786930000000 1.0
C      1  0.4707530000000  0.4583780000000  0.4498760000000 1.0
C      1  0.4716400000000  0.5520590000000  0.4606140000000 1.0
C      1  0.4572490000000  0.4787870000000  0.4549820000000 1.0
C      1  0.5149230000000  0.4628670000000  0.5179700000000 1.0
C      1  0.4543510000000  0.5020200000000  0.4700300000000 1.0
C      1  0.5545940000000  0.4863760000000  0.4877410000000 1.0
C      1  0.4949600000000  0.5119650000000  0.4523950000000 1.0
C      1  0.5397920000000  0.4757600000000  0.5313510000000 1.0
C      1  0.5282440000000  0.4962840000000  0.4827240000000 1.0
C      1  0.4698410000000  0.5243520000000  0.4580180000000 1.0
C      1  0.4714620000000  0.4440580000000  0.5295360000000 1.0
C      1  0.4875580000000  0.5031380000000  0.5052980000000 1.0
C      1  0.4801180000000  0.5008340000000  0.5345870000000 1.0
C      1  0.5303520000000  0.5006260000000  0.5448710000000 1.0
C      1  0.5168670000000  0.5187690000000  0.4678930000000 1.0
END
