TITL C-161224-4548-7 0.0123522601940334 125000 -150.459448614116 0 0 24 (C1) n - 1
REM
REM in /rds/project/t2_vol4/rds-t2-cs072/BORA/CARBON/from-Arr/AIRSS/Generating-Clusters/GAP-ML-2020/Only-C1/SD-CG/HFTN-CG
REM
REM
REM
REM
REM
REM ./C.cell (11c1c37f851c82e70ff6c80c92926a4b)
REM AIRSS Version 0.9.1 bugfix July 2018 build 013d7b7c2542+ Fri, 06 Jul 2018 19:26:36 +0100
REM compiler GCC version 9.3.0
REM options -cpp -mtune=generic -march=x86-64 -g -O0
REM seed -750668370 -327505877 -966220370 1973825609 1668601468 -1913012819 2055645505 2966289 1674987524 -2018759254 631071453 -613671739 859968246 1109455394 2064182462 -1692248975 1980956780 64958441 -1456726936 218690928 -197156140 1750587784 -323778588 -1054961873 30688585 970744773 1601171878 1406599965 -65506552 -1006292374 431887778 1855722410 1945060646
REM
CELL 1.54180   50.00000   50.00000   50.00000   90.00000   90.00000   90.00000
LATT -1
SFAC C  
C      1  0.4592690000000  0.4787380000000  0.4550260000000 1.0
C      1  0.5161030000000  0.4529540000000  0.5230370000000 1.0
C      1  0.5471460000000  0.5511730000000  0.5125700000000 1.0
C      1  0.4665810000000  0.4980000000000  0.4959980000000 1.0
C      1  0.4995320000000  0.5526370000000  0.4999880000000 1.0
C      1  0.4786300000000  0.4952760000000  0.4518440000000 1.0
C      1  0.4856790000000  0.4459200000000  0.4985330000000 1.0
C      1  0.5364610000000  0.5262520000000  0.5192220000000 1.0
C      1  0.4584270000000  0.4551170000000  0.5004020000000 1.0
C      1  0.4892920000000  0.4482890000000  0.5293620000000 1.0
C      1  0.5372130000000  0.5058350000000  0.4992400000000 1.0
C      1  0.5128290000000  0.5275490000000  0.5364460000000 1.0
C      1  0.5536770000000  0.5060660000000  0.4774760000000 1.0
C      1  0.4879760000000  0.5148400000000  0.5326380000000 1.0
C      1  0.5261040000000  0.5609590000000  0.5011540000000 1.0
C      1  0.5571620000000  0.5038080000000  0.4527170000000 1.0
C      1  0.5098530000000  0.4643470000000  0.4971920000000 1.0
C      1  0.4705290000000  0.4940030000000  0.5235430000000 1.0
C      1  0.4902980000000  0.5429990000000  0.5279590000000 1.0
C      1  0.4940150000000  0.5347480000000  0.4818080000000 1.0
C      1  0.4906170000000  0.5065590000000  0.4801630000000 1.0
C      1  0.5132200000000  0.4911420000000  0.4923250000000 1.0
C      1  0.4534210000000  0.4766460000000  0.4831030000000 1.0
C      1  0.4659660000000  0.4661430000000  0.5282540000000 1.0
END
