TITL C-161234-5531-12 -0.199548398601775 125000 -830.325691590792 0 0 118 (C1) n - 1
REM
REM in /rds/project/t2_vol4/rds-t2-cs072/BORA/CARBON/from-Arr/AIRSS/Generating-Clusters/GAP-ML-2020/Only-C1/SD-CG/HFTN-CG
REM
REM
REM
REM
REM
REM ./C.cell (11c1c37f851c82e70ff6c80c92926a4b)
REM AIRSS Version 0.9.1 bugfix July 2018 build 013d7b7c2542+ Fri, 06 Jul 2018 19:26:36 +0100
REM compiler GCC version 9.3.0
REM options -cpp -mtune=generic -march=x86-64 -g -O0
REM seed 465034812 -600876228 -283555110 1011319858 -1526823033 1726545028 -278459575 46849913 899802936 189682177 529572432 1751589689 1047112601 663844028 1828659139 921258832 1352366563 773344694 -1465369271 1815730213 -395064162 -1432959207 -632775460 -812610995 -1873330898 -613880637 1747337541 1567068900 1960157926 -589573535 1695535477 -1435060257 -801374345
REM
CELL 1.54180   50.00000   50.00000   50.00000   90.00000   90.00000   90.00000
LATT -1
SFAC C  
C      1  0.4911150000000  0.4122770000000  0.4848970000000 1.0
C      1  0.4514160000000  0.5630230000000  0.5412560000000 1.0
C      1  0.4147120000000  0.4833660000000  0.5192360000000 1.0
C      1  0.5582180000000  0.4869610000000  0.4726160000000 1.0
C      1  0.4848540000000  0.5165980000000  0.5168320000000 1.0
C      1  0.5621010000000  0.5209170000000  0.5661440000000 1.0
C      1  0.4383780000000  0.5649870000000  0.4877950000000 1.0
C      1  0.5348990000000  0.5389160000000  0.4334510000000 1.0
C      1  0.5077210000000  0.5060990000000  0.4965090000000 1.0
C      1  0.5111860000000  0.4970960000000  0.5464610000000 1.0
C      1  0.5649780000000  0.5719170000000  0.5200860000000 1.0
C      1  0.4555060000000  0.4709870000000  0.4420880000000 1.0
C      1  0.5096930000000  0.4595960000000  0.5142270000000 1.0
C      1  0.5488220000000  0.4850090000000  0.5194720000000 1.0
C      1  0.4107270000000  0.5267120000000  0.4947830000000 1.0
C      1  0.5107910000000  0.5709340000000  0.4609980000000 1.0
C      1  0.4198490000000  0.4547020000000  0.4824150000000 1.0
C      1  0.5125260000000  0.4953700000000  0.5790170000000 1.0
C      1  0.4747920000000  0.5780350000000  0.5483810000000 1.0
C      1  0.4722330000000  0.4116670000000  0.5068260000000 1.0
C      1  0.5131220000000  0.4940300000000  0.4260910000000 1.0
C      1  0.4937850000000  0.5619650000000  0.5119530000000 1.0
C      1  0.5260490000000  0.4730060000000  0.5339190000000 1.0
C      1  0.5099700000000  0.4464140000000  0.4252420000000 1.0
C      1  0.5251950000000  0.4134220000000  0.5372080000000 1.0
C      1  0.4648790000000  0.5274650000000  0.5754960000000 1.0
C      1  0.4937340000000  0.5671390000000  0.5671850000000 1.0
C      1  0.4738870000000  0.5212530000000  0.4130200000000 1.0
C      1  0.4716270000000  0.4718750000000  0.4162760000000 1.0
C      1  0.4185930000000  0.4561080000000  0.5111200000000 1.0
C      1  0.4336980000000  0.5381570000000  0.4488060000000 1.0
C      1  0.5362370000000  0.5091410000000  0.5046220000000 1.0
C      1  0.5687090000000  0.4760240000000  0.4985730000000 1.0
C      1  0.5175870000000  0.4624720000000  0.4864930000000 1.0
C      1  0.4838990000000  0.4256470000000  0.4601730000000 1.0
C      1  0.5617600000000  0.5543220000000  0.4769270000000 1.0
C      1  0.5307620000000  0.4549880000000  0.5591240000000 1.0
C      1  0.5383930000000  0.4785540000000  0.5762100000000 1.0
C      1  0.4981980000000  0.4978970000000  0.4539470000000 1.0
C      1  0.5100020000000  0.5537380000000  0.4371040000000 1.0
C      1  0.5437600000000  0.5125920000000  0.4745650000000 1.0
C      1  0.5342440000000  0.5336250000000  0.5184470000000 1.0
C      1  0.5792510000000  0.4860980000000  0.4521940000000 1.0
C      1  0.4090380000000  0.4980470000000  0.4943620000000 1.0
C      1  0.5705310000000  0.4880710000000  0.5401530000000 1.0
C      1  0.5609040000000  0.4929610000000  0.5663850000000 1.0
C      1  0.5563400000000  0.4422900000000  0.4651750000000 1.0
C      1  0.4720560000000  0.4764920000000  0.4925070000000 1.0
C      1  0.5768360000000  0.5363110000000  0.5466510000000 1.0
C      1  0.4523990000000  0.4334970000000  0.5446180000000 1.0
C      1  0.4820320000000  0.5442390000000  0.4301140000000 1.0
C      1  0.5604000000000  0.5012900000000  0.4196370000000 1.0
C      1  0.5562970000000  0.4306820000000  0.5153580000000 1.0
C      1  0.5200400000000  0.5775730000000  0.5583580000000 1.0
C      1  0.4229210000000  0.5447040000000  0.4748070000000 1.0
C      1  0.5090830000000  0.4279400000000  0.4465210000000 1.0
C      1  0.4822810000000  0.4700200000000  0.5180890000000 1.0
C      1  0.4689800000000  0.4974770000000  0.4546570000000 1.0
C      1  0.4748220000000  0.4170580000000  0.5358070000000 1.0
C      1  0.4595250000000  0.4424170000000  0.4556780000000 1.0
C      1  0.5348810000000  0.5140450000000  0.4200850000000 1.0
C      1  0.4270050000000  0.5231480000000  0.5432750000000 1.0
C      1  0.5206710000000  0.4103780000000  0.4860230000000 1.0
C      1  0.5738580000000  0.4594630000000  0.4426710000000 1.0
C      1  0.4924480000000  0.5868660000000  0.5272890000000 1.0
C      1  0.4399710000000  0.4357690000000  0.4750290000000 1.0
C      1  0.5656990000000  0.5627350000000  0.5466170000000 1.0
C      1  0.4901320000000  0.5407820000000  0.5804010000000 1.0
C      1  0.4602560000000  0.5008460000000  0.4820820000000 1.0
C      1  0.4848350000000  0.4938990000000  0.5337390000000 1.0
C      1  0.4440100000000  0.4817650000000  0.5638810000000 1.0
C      1  0.4296120000000  0.5130270000000  0.4340690000000 1.0
C      1  0.5366990000000  0.5354040000000  0.5703530000000 1.0
C      1  0.4629860000000  0.4988390000000  0.5782520000000 1.0
C      1  0.5203350000000  0.5904010000000  0.5329590000000 1.0
C      1  0.4146580000000  0.4798710000000  0.4707590000000 1.0
C      1  0.4821210000000  0.4567130000000  0.5757890000000 1.0
C      1  0.5570830000000  0.4719560000000  0.4228930000000 1.0
C      1  0.5667110000000  0.4465390000000  0.4945360000000 1.0
C      1  0.4279360000000  0.4855670000000  0.4460780000000 1.0
C      1  0.5047280000000  0.5444500000000  0.4758960000000 1.0
C      1  0.5753530000000  0.5515140000000  0.5023870000000 1.0
C      1  0.5432530000000  0.5631530000000  0.5641470000000 1.0
C      1  0.5352240000000  0.4101930000000  0.5102820000000 1.0
C      1  0.4467880000000  0.5169850000000  0.4133300000000 1.0
C      1  0.4361910000000  0.5602740000000  0.5167100000000 1.0
C      1  0.4780690000000  0.5499060000000  0.4882730000000 1.0
C      1  0.5369050000000  0.5715070000000  0.4831930000000 1.0
C      1  0.4662430000000  0.5239330000000  0.4969420000000 1.0
C      1  0.4631130000000  0.5687600000000  0.4699690000000 1.0
C      1  0.5136520000000  0.5249520000000  0.5851100000000 1.0
C      1  0.4873970000000  0.4959460000000  0.4107220000000 1.0
C      1  0.4461960000000  0.5391360000000  0.5569480000000 1.0
C      1  0.4867400000000  0.4502000000000  0.4102740000000 1.0
C      1  0.4189480000000  0.5376330000000  0.5200150000000 1.0
C      1  0.5042800000000  0.4419200000000  0.5662090000000 1.0
C      1  0.5453920000000  0.4332620000000  0.5431950000000 1.0
C      1  0.5133570000000  0.5175340000000  0.4699850000000 1.0
C      1  0.4346200000000  0.4349230000000  0.5217120000000 1.0
C      1  0.4981450000000  0.4804630000000  0.4790970000000 1.0
C      1  0.4950860000000  0.5385770000000  0.5316230000000 1.0
C      1  0.4865560000000  0.5848140000000  0.4657460000000 1.0
C      1  0.5570850000000  0.5338380000000  0.4553450000000 1.0
C      1  0.5202410000000  0.5541290000000  0.5005990000000 1.0
C      1  0.4589320000000  0.5524290000000  0.4455460000000 1.0
C      1  0.4555580000000  0.4548130000000  0.5639710000000 1.0
C      1  0.4865770000000  0.4832430000000  0.5847110000000 1.0
C      1  0.5324970000000  0.4220570000000  0.4626590000000 1.0
C      1  0.4258640000000  0.4946020000000  0.5442600000000 1.0
C      1  0.5837000000000  0.5275820000000  0.5199790000000 1.0
C      1  0.5852820000000  0.4985890000000  0.5179930000000 1.0
C      1  0.4467600000000  0.4219050000000  0.4992700000000 1.0
C      1  0.5000310000000  0.4192170000000  0.5491870000000 1.0
C      1  0.5287150000000  0.4686700000000  0.4321310000000 1.0
C      1  0.5380000000000  0.4658120000000  0.4647500000000 1.0
C      1  0.5200620000000  0.5267690000000  0.5421090000000 1.0
C      1  0.5406910000000  0.5836870000000  0.5114190000000 1.0
C      1  0.5755210000000  0.5124420000000  0.4404620000000 1.0
END
