TITL C-161224-4548-10 23.7490802510397 125000 -355.286811582527 0 0 52 (C1) n - 1
REM
REM in /rds/project/t2_vol4/rds-t2-cs072/BORA/CARBON/from-Arr/AIRSS/Generating-Clusters/GAP-ML-2020/Only-C1/SD-CG/HFTN-CG
REM
REM
REM
REM
REM
REM ./C.cell (11c1c37f851c82e70ff6c80c92926a4b)
REM AIRSS Version 0.9.1 bugfix July 2018 build 013d7b7c2542+ Fri, 06 Jul 2018 19:26:36 +0100
REM compiler GCC version 9.3.0
REM options -cpp -mtune=generic -march=x86-64 -g -O0
REM seed -1109933704 1505757991 1057205281 -528695357 -719164121 -271904210 -1590309148 -480293905 2002643716 1747954572 -506705457 2074334223 -1739876659 833946389 -648643246 48666295 1821495939 -171039051 1452070452 -918832094 -1692527403 2027696011 -625083213 -186404494 -736042892 -1824816628 -179819539 -951719114 -892180897 -2079074563 -498462778 1167517218 1887429681
REM
CELL 1.54180   50.00000   50.00000   50.00000   90.00000   90.00000   90.00000
LATT -1
SFAC C  
C      1  0.5631610000000  0.5237000000000  0.4938990000000 1.0
C      1  0.5356650000000  0.5314860000000  0.5615730000000 1.0
C      1  0.4594170000000  0.5087410000000  0.5429280000000 1.0
C      1  0.4687830000000  0.4642720000000  0.5317330000000 1.0
C      1  0.5506180000000  0.4924620000000  0.5616450000000 1.0
C      1  0.4861980000000  0.4427720000000  0.5198020000000 1.0
C      1  0.4899010000000  0.5009340000000  0.4897050000000 1.0
C      1  0.4978970000000  0.5363150000000  0.5273320000000 1.0
C      1  0.5530380000000  0.4725480000000  0.5415300000000 1.0
C      1  0.5197460000000  0.5475200000000  0.5453940000000 1.0
C      1  0.5035530000000  0.5100100000000  0.5110840000000 1.0
C      1  0.5674950000000  0.4785100000000  0.4909060000000 1.0
C      1  0.5419850000000  0.5305490000000  0.4754390000000 1.0
C      1  0.5443000000000  0.4684870000000  0.4776250000000 1.0
C      1  0.4699810000000  0.5345210000000  0.5335590000000 1.0
C      1  0.4680790000000  0.5454960000000  0.4841410000000 1.0
C      1  0.5095720000000  0.4706250000000  0.4471510000000 1.0
C      1  0.5588990000000  0.5176420000000  0.5500100000000 1.0
C      1  0.4552410000000  0.5416290000000  0.5096510000000 1.0
C      1  0.4952270000000  0.5554140000000  0.4835670000000 1.0
C      1  0.5159250000000  0.4930740000000  0.5306390000000 1.0
C      1  0.5228590000000  0.4506830000000  0.4864020000000 1.0
C      1  0.4895990000000  0.4848880000000  0.4345390000000 1.0
C      1  0.4540350000000  0.4646030000000  0.4626140000000 1.0
C      1  0.5121190000000  0.5265940000000  0.4459640000000 1.0
C      1  0.5359830000000  0.5113300000000  0.4532980000000 1.0
C      1  0.5273640000000  0.4660460000000  0.5306530000000 1.0
C      1  0.4727590000000  0.4327280000000  0.4978580000000 1.0
C      1  0.4496400000000  0.4765370000000  0.5106370000000 1.0
C      1  0.4897440000000  0.5138630000000  0.4361070000000 1.0
C      1  0.4618420000000  0.5138770000000  0.4442380000000 1.0
C      1  0.5165540000000  0.5443980000000  0.4685520000000 1.0
C      1  0.5663350000000  0.5128650000000  0.5222640000000 1.0
C      1  0.4757340000000  0.4503250000000  0.4761580000000 1.0
C      1  0.5771730000000  0.5023750000000  0.4786600000000 1.0
C      1  0.5146780000000  0.4476450000000  0.5140190000000 1.0
C      1  0.5198390000000  0.5711520000000  0.5293550000000 1.0
C      1  0.5032170000000  0.5615960000000  0.5099300000000 1.0
C      1  0.4295170000000  0.5185510000000  0.4793400000000 1.0
C      1  0.5029850000000  0.4500210000000  0.4657640000000 1.0
C      1  0.4335570000000  0.5236400000000  0.5070600000000 1.0
C      1  0.5339260000000  0.4834580000000  0.4552020000000 1.0
C      1  0.5248790000000  0.5033470000000  0.5709550000000 1.0
C      1  0.5693370000000  0.4842370000000  0.5199710000000 1.0
C      1  0.4753690000000  0.4785960000000  0.4936920000000 1.0
C      1  0.4522780000000  0.5299520000000  0.4649790000000 1.0
C      1  0.4400680000000  0.5010600000000  0.5237770000000 1.0
C      1  0.4345300000000  0.4727180000000  0.4830650000000 1.0
C      1  0.4197670000000  0.4935930000000  0.4748550000000 1.0
C      1  0.5025590000000  0.4930640000000  0.5569040000000 1.0
C      1  0.4615740000000  0.4837530000000  0.4432370000000 1.0
C      1  0.4754960000000  0.4858020000000  0.5506420000000 1.0
END
