TITL C-167822-8060-4 -0.112238269445352 125000 -265.320481270167 0 0 39 (C1) n - 1
REM
REM in /rds/project/t2_vol4/rds-t2-cs072/BORA/CARBON/from-Arr/AIRSS/Generating-Clusters/GAP-ML-2020/Only-C1/SD-CG/HFTN-CG
REM
REM
REM
REM
REM
REM ./C.cell (11c1c37f851c82e70ff6c80c92926a4b)
REM AIRSS Version 0.9.1 bugfix July 2018 build 013d7b7c2542+ Fri, 06 Jul 2018 19:26:36 +0100
REM compiler GCC version 9.3.0
REM options -cpp -mtune=generic -march=x86-64 -g -O0
REM seed -1400980875 -1400553681 2054634260 -822705287 809234056 641409520 -158199026 -1013492300 -353790113 1169353429 -1192679742 1089943695 124624814 -670677492 258425995 1231944904 24992510 52062455 937630819 -2140588967 52579921 -336966562 -4987059 -1454193260 1087911974 687962788 -693547069 -1712795706 -1053028416 -741339318 -2068736724 -687502248 -2081147454
REM
CELL 1.54180   50.00000   50.00000   50.00000   90.00000   90.00000   90.00000
LATT -1
SFAC C  
C      1  0.5568980000000  0.5054790000000  0.4921860000000 1.0
C      1  0.4666030000000  0.5459690000000  0.5073480000000 1.0
C      1  0.4973950000000  0.5136770000000  0.4497200000000 1.0
C      1  0.5012930000000  0.5695850000000  0.5280490000000 1.0
C      1  0.4586500000000  0.5135360000000  0.5432610000000 1.0
C      1  0.4525880000000  0.4920520000000  0.4556980000000 1.0
C      1  0.4871450000000  0.5332920000000  0.4676500000000 1.0
C      1  0.5020320000000  0.4963480000000  0.5493090000000 1.0
C      1  0.4767720000000  0.4486560000000  0.4620960000000 1.0
C      1  0.5315850000000  0.5444880000000  0.4811950000000 1.0
C      1  0.4641960000000  0.4577770000000  0.4988890000000 1.0
C      1  0.5534160000000  0.5034420000000  0.5369640000000 1.0
C      1  0.4506550000000  0.5028130000000  0.4821580000000 1.0
C      1  0.4589540000000  0.5409870000000  0.5349350000000 1.0
C      1  0.4839540000000  0.5176220000000  0.5585860000000 1.0
C      1  0.4677320000000  0.4705650000000  0.4463720000000 1.0
C      1  0.5038380000000  0.4446870000000  0.4693850000000 1.0
C      1  0.4825190000000  0.5459120000000  0.5540580000000 1.0
C      1  0.5402260000000  0.4646330000000  0.5453570000000 1.0
C      1  0.4640860000000  0.5286050000000  0.4844530000000 1.0
C      1  0.4863880000000  0.4783250000000  0.5330780000000 1.0
C      1  0.5371130000000  0.4597060000000  0.4890530000000 1.0
C      1  0.4576780000000  0.4391730000000  0.4806060000000 1.0
C      1  0.5302150000000  0.4929960000000  0.5513080000000 1.0
C      1  0.4907870000000  0.5613620000000  0.5046680000000 1.0
C      1  0.4605240000000  0.4903420000000  0.5286310000000 1.0
C      1  0.5053870000000  0.5507540000000  0.4815800000000 1.0
C      1  0.4513300000000  0.4834310000000  0.5028360000000 1.0
C      1  0.4766590000000  0.4960680000000  0.4415140000000 1.0
C      1  0.4996660000000  0.5673150000000  0.5539520000000 1.0
C      1  0.5583610000000  0.4750880000000  0.5276220000000 1.0
C      1  0.5618330000000  0.5197180000000  0.5171060000000 1.0
C      1  0.5557260000000  0.4769570000000  0.4992440000000 1.0
C      1  0.5252870000000  0.5055700000000  0.4520850000000 1.0
C      1  0.4899060000000  0.4574990000000  0.5138860000000 1.0
C      1  0.5412650000000  0.5191480000000  0.4722770000000 1.0
C      1  0.5114800000000  0.4482940000000  0.4977090000000 1.0
C      1  0.5319430000000  0.4790670000000  0.4439680000000 1.0
C      1  0.5279150000000  0.4590610000000  0.4612070000000 1.0
END
