TITL C-162426-1611-8 -29.8050039015628 125000 -157.805719760427 0 0 24 (C1) n - 1
REM
REM in /rds/project/t2_vol4/rds-t2-cs072/BORA/CARBON/from-Arr/AIRSS/Generating-Clusters/GAP-ML-2020/Only-C1/SD-CG/HFTN-CG
REM
REM
REM
REM
REM
REM ./C.cell (11c1c37f851c82e70ff6c80c92926a4b)
REM AIRSS Version 0.9.1 bugfix July 2018 build 013d7b7c2542+ Fri, 06 Jul 2018 19:26:36 +0100
REM compiler GCC version 9.3.0
REM options -cpp -mtune=generic -march=x86-64 -g -O0
REM seed -613633502 -726925193 -1572832868 -1842172194 -515925638 1688227495 -1216317458 -1281542392 -534872114 284952495 424584125 -1010397666 -182856344 745699928 -876536759 1853245074 431005444 -509557953 1749726738 -1675618918 1527179433 1403000592 -1031845402 848001762 -2079717642 -2077500859 -2096474467 1498683185 -1438515188 1384776518 1611087409 112737072 -1189875037
REM
CELL 1.54180   50.00000   50.00000   50.00000   90.00000   90.00000   90.00000
LATT -1
SFAC C  
C      1  0.5343590000000  0.4871710000000  0.4690120000000 1.0
C      1  0.4894130000000  0.4782580000000  0.5413150000000 1.0
C      1  0.4922460000000  0.4860430000000  0.4425550000000 1.0
C      1  0.5045170000000  0.5244160000000  0.5503450000000 1.0
C      1  0.4694500000000  0.4974940000000  0.4564520000000 1.0
C      1  0.4701320000000  0.4613490000000  0.5294160000000 1.0
C      1  0.4702310000000  0.5238960000000  0.5292870000000 1.0
C      1  0.4940550000000  0.5392440000000  0.5266000000000 1.0
C      1  0.5082920000000  0.5408880000000  0.5025920000000 1.0
C      1  0.4515320000000  0.4781930000000  0.4675680000000 1.0
C      1  0.5384310000000  0.4794870000000  0.5163190000000 1.0
C      1  0.5182740000000  0.5321970000000  0.4573670000000 1.0
C      1  0.5259950000000  0.5075110000000  0.5451390000000 1.0
C      1  0.5418770000000  0.4701980000000  0.4912450000000 1.0
C      1  0.4958940000000  0.5364830000000  0.4754160000000 1.0
C      1  0.5187260000000  0.4794270000000  0.5393630000000 1.0
C      1  0.4812950000000  0.5057300000000  0.5484230000000 1.0
C      1  0.4736370000000  0.5221300000000  0.4698300000000 1.0
C      1  0.5322500000000  0.5254310000000  0.5007720000000 1.0
C      1  0.5417240000000  0.5089890000000  0.5215670000000 1.0
C      1  0.5158040000000  0.4797490000000  0.4485050000000 1.0
C      1  0.4533720000000  0.4573140000000  0.5111700000000 1.0
C      1  0.5343900000000  0.5154220000000  0.4734000000000 1.0
C      1  0.4441060000000  0.4629810000000  0.4863410000000 1.0
END
