TITL C-167820-8303-1 627.97798371241 125000 -583.613476613768 0 0 84 (C1) n - 1
REM
REM in /rds/project/t2_vol4/rds-t2-cs072/BORA/CARBON/from-Arr/AIRSS/Generating-Clusters/GAP-ML-2020/Only-C1/SD-CG/HFTN-CG
REM
REM
REM
REM
REM
REM ./C.cell (11c1c37f851c82e70ff6c80c92926a4b)
REM AIRSS Version 0.9.1 bugfix July 2018 build 013d7b7c2542+ Fri, 06 Jul 2018 19:26:36 +0100
REM compiler GCC version 9.3.0
REM options -cpp -mtune=generic -march=x86-64 -g -O0
REM seed -2080176149 -687844089 -1723761193 -1200227445 129073112 408094892 2138034955 -140405019 -1302406624 -2122907598 -1082930942 887835414 213966406 -1792058591 -1577640426 930508524 -637321313 1104352290 -1185892053 -703782005 -536327848 1423199746 -1597667725 83221718 1572618831 -930680669 322423974 -1491871008 -1503681668 -970897004 879136235 -668163182 1963435172
REM
CELL 1.54180   50.00000   50.00000   50.00000   90.00000   90.00000   90.00000
LATT -1
SFAC C  
C      1  0.5219830000000  0.5428410000000  0.5699460000000 1.0
C      1  0.4242110000000  0.4978420000000  0.5150220000000 1.0
C      1  0.4762510000000  0.5278000000000  0.5622490000000 1.0
C      1  0.5200300000000  0.5023190000000  0.5776900000000 1.0
C      1  0.5799780000000  0.5086880000000  0.4792300000000 1.0
C      1  0.5811860000000  0.4913210000000  0.5009370000000 1.0
C      1  0.4645340000000  0.5264340000000  0.4273020000000 1.0
C      1  0.5127460000000  0.5538570000000  0.4386810000000 1.0
C      1  0.5223550000000  0.4817680000000  0.4733240000000 1.0
C      1  0.4755620000000  0.5659610000000  0.4499510000000 1.0
C      1  0.5022870000000  0.5709080000000  0.4599370000000 1.0
C      1  0.5382570000000  0.5415110000000  0.4393990000000 1.0
C      1  0.4777610000000  0.5527890000000  0.5474980000000 1.0
C      1  0.4762310000000  0.4520290000000  0.4966990000000 1.0
C      1  0.5400780000000  0.5152640000000  0.4280010000000 1.0
C      1  0.4457950000000  0.4300240000000  0.4930640000000 1.0
C      1  0.5207190000000  0.4768830000000  0.5636830000000 1.0
C      1  0.4630690000000  0.4309680000000  0.5148430000000 1.0
C      1  0.5410590000000  0.5216120000000  0.5727240000000 1.0
C      1  0.4835690000000  0.4910470000000  0.5279610000000 1.0
C      1  0.5004520000000  0.4693960000000  0.5399120000000 1.0
C      1  0.4322210000000  0.5096280000000  0.4574300000000 1.0
C      1  0.5038700000000  0.5095480000000  0.5179050000000 1.0
C      1  0.5048760000000  0.4499540000000  0.5726880000000 1.0
C      1  0.4940880000000  0.4891250000000  0.4335450000000 1.0
C      1  0.4649430000000  0.4776900000000  0.5075000000000 1.0
C      1  0.4427000000000  0.4609450000000  0.4556930000000 1.0
C      1  0.5333570000000  0.4340990000000  0.5394930000000 1.0
C      1  0.4570930000000  0.5579130000000  0.5298370000000 1.0
C      1  0.4365860000000  0.5394280000000  0.5255240000000 1.0
C      1  0.5313770000000  0.4713040000000  0.5021750000000 1.0
C      1  0.4305990000000  0.5115030000000  0.4882070000000 1.0
C      1  0.4199780000000  0.4598550000000  0.4723560000000 1.0
C      1  0.4397380000000  0.4601580000000  0.5437450000000 1.0
C      1  0.4956190000000  0.4860000000000  0.4624260000000 1.0
C      1  0.5740380000000  0.4559930000000  0.5229090000000 1.0
C      1  0.5593980000000  0.5223800000000  0.5516430000000 1.0
C      1  0.5579230000000  0.5502140000000  0.5051420000000 1.0
C      1  0.4371290000000  0.5132630000000  0.5349210000000 1.0
C      1  0.5279570000000  0.5095760000000  0.4830300000000 1.0
C      1  0.5041400000000  0.4437970000000  0.4951700000000 1.0
C      1  0.4672070000000  0.4978870000000  0.4272310000000 1.0
C      1  0.4459650000000  0.4869200000000  0.4437540000000 1.0
C      1  0.5402760000000  0.5642580000000  0.4859210000000 1.0
C      1  0.5168470000000  0.4521820000000  0.5202620000000 1.0
C      1  0.4593150000000  0.4989640000000  0.4892590000000 1.0
C      1  0.4819460000000  0.5078270000000  0.4764440000000 1.0
C      1  0.5266390000000  0.5562000000000  0.5455360000000 1.0
C      1  0.5584100000000  0.4943420000000  0.4347110000000 1.0
C      1  0.4851830000000  0.5469420000000  0.4303270000000 1.0
C      1  0.5520580000000  0.5457240000000  0.5335840000000 1.0
C      1  0.4310540000000  0.5393050000000  0.4977820000000 1.0
C      1  0.4571970000000  0.4759040000000  0.5599230000000 1.0
C      1  0.4880270000000  0.4310170000000  0.4579740000000 1.0
C      1  0.5568870000000  0.4489900000000  0.5442370000000 1.0
C      1  0.5016800000000  0.5210630000000  0.4910810000000 1.0
C      1  0.4662010000000  0.5693970000000  0.5054520000000 1.0
C      1  0.4797210000000  0.4549620000000  0.5573970000000 1.0
C      1  0.5701310000000  0.5357970000000  0.4820000000000 1.0
C      1  0.4615300000000  0.5039040000000  0.5496370000000 1.0
C      1  0.5382730000000  0.4732820000000  0.4297910000000 1.0
C      1  0.4503820000000  0.5570940000000  0.4588050000000 1.0
C      1  0.5634710000000  0.4629110000000  0.4682020000000 1.0
C      1  0.4463610000000  0.5598730000000  0.4861700000000 1.0
C      1  0.5199440000000  0.4302390000000  0.5626730000000 1.0
C      1  0.4947310000000  0.5741220000000  0.5081860000000 1.0
C      1  0.4263590000000  0.4505760000000  0.4969410000000 1.0
C      1  0.4330470000000  0.4704560000000  0.5174920000000 1.0
C      1  0.5837660000000  0.4840140000000  0.5278300000000 1.0
C      1  0.4631270000000  0.4410120000000  0.4694640000000 1.0
C      1  0.5617540000000  0.4643690000000  0.4970930000000 1.0
C      1  0.5724150000000  0.4891980000000  0.4581760000000 1.0
C      1  0.5193960000000  0.4937350000000  0.4217160000000 1.0
C      1  0.5295070000000  0.4991870000000  0.5112000000000 1.0
C      1  0.5126330000000  0.4400250000000  0.4662380000000 1.0
C      1  0.5494380000000  0.4735680000000  0.5574880000000 1.0
C      1  0.5136890000000  0.5753300000000  0.4858170000000 1.0
C      1  0.4427680000000  0.5331250000000  0.4451160000000 1.0
C      1  0.5352100000000  0.4591140000000  0.4553580000000 1.0
C      1  0.5015490000000  0.5652030000000  0.5348740000000 1.0
C      1  0.5673330000000  0.4949730000000  0.5487040000000 1.0
C      1  0.5003740000000  0.5244860000000  0.5757470000000 1.0
C      1  0.4601610000000  0.4391980000000  0.5414710000000 1.0
C      1  0.5522940000000  0.5496950000000  0.4635420000000 1.0
END
