TITL C-160280-8337-9 -30.9144882490239 125000 -213.435068394167 0 0 33 (C1) n - 1
REM
REM in /rds/project/t2_vol4/rds-t2-cs072/BORA/CARBON/from-Arr/AIRSS/Generating-Clusters/GAP-ML-2020/Only-C1/SD-CG/HFTN-CG
REM
REM
REM
REM
REM
REM ./C.cell (11c1c37f851c82e70ff6c80c92926a4b)
REM AIRSS Version 0.9.1 bugfix July 2018 build 013d7b7c2542+ Fri, 06 Jul 2018 19:26:36 +0100
REM compiler GCC version 9.3.0
REM options -cpp -mtune=generic -march=x86-64 -g -O0
REM seed -1989697408 953005784 2145329339 -1697044954 658034387 -945711029 2037302425 1283627633 -546155153 160826878 454474551 1713029820 1778388145 495119822 2086048591 485745036 -385135360 -1801591829 -2144837450 340744864 1075122362 1244040438 1534871310 -1613214743 879817939 58400532 166932200 -1836931003 -541871673 243194722 -546302432 -1180362875 -713608212
REM
CELL 1.54180   50.00000   50.00000   50.00000   90.00000   90.00000   90.00000
LATT -1
SFAC C  
C      1  0.4522420000000  0.4640670000000  0.5307760000000 1.0
C      1  0.5297120000000  0.5143010000000  0.4528310000000 1.0
C      1  0.5391550000000  0.5534530000000  0.4782740000000 1.0
C      1  0.4645960000000  0.4808910000000  0.5128710000000 1.0
C      1  0.5249200000000  0.5240080000000  0.5166200000000 1.0
C      1  0.4726540000000  0.5382760000000  0.5233640000000 1.0
C      1  0.5047590000000  0.5182350000000  0.5607460000000 1.0
C      1  0.5247810000000  0.5277350000000  0.5456300000000 1.0
C      1  0.4830750000000  0.4791700000000  0.5603600000000 1.0
C      1  0.4890340000000  0.5386470000000  0.4820970000000 1.0
C      1  0.5189110000000  0.4723030000000  0.4747240000000 1.0
C      1  0.5253300000000  0.4529550000000  0.5156780000000 1.0
C      1  0.5464330000000  0.5027070000000  0.5030910000000 1.0
C      1  0.4690270000000  0.5495090000000  0.5009290000000 1.0
C      1  0.4986650000000  0.4949270000000  0.5756310000000 1.0
C      1  0.5095510000000  0.4969890000000  0.4616630000000 1.0
C      1  0.4760290000000  0.5209720000000  0.5432000000000 1.0
C      1  0.5111040000000  0.4368160000000  0.5014410000000 1.0
C      1  0.4788230000000  0.4464300000000  0.4617130000000 1.0
C      1  0.5025730000000  0.4486640000000  0.4758470000000 1.0
C      1  0.4612150000000  0.4635690000000  0.5558930000000 1.0
C      1  0.4735190000000  0.5164770000000  0.4442770000000 1.0
C      1  0.4699870000000  0.4881540000000  0.4864850000000 1.0
C      1  0.4844340000000  0.4916440000000  0.4446260000000 1.0
C      1  0.5480090000000  0.5286090000000  0.4676100000000 1.0
C      1  0.4919600000000  0.5072300000000  0.4864500000000 1.0
C      1  0.4700110000000  0.4723120000000  0.4615460000000 1.0
C      1  0.5054750000000  0.5020810000000  0.5117200000000 1.0
C      1  0.5187300000000  0.5440610000000  0.4932110000000 1.0
C      1  0.5639800000000  0.5108100000000  0.4845440000000 1.0
C      1  0.5258700000000  0.4802040000000  0.5029400000000 1.0
C      1  0.4838630000000  0.4953570000000  0.5293550000000 1.0
C      1  0.4815730000000  0.5384390000000  0.4538560000000 1.0
END
