TITL C-161210-5085-8 0.260100823280669 125000 -597.144342743699 0 0 87 (C1) n - 1
REM
REM in /rds/project/t2_vol4/rds-t2-cs072/BORA/CARBON/from-Arr/AIRSS/Generating-Clusters/GAP-ML-2020/Only-C1/SD-CG/HFTN-CG
REM
REM
REM
REM
REM
REM ./C.cell (11c1c37f851c82e70ff6c80c92926a4b)
REM AIRSS Version 0.9.1 bugfix July 2018 build 013d7b7c2542+ Fri, 06 Jul 2018 19:26:36 +0100
REM compiler GCC version 9.3.0
REM options -cpp -mtune=generic -march=x86-64 -g -O0
REM seed -766333037 -1876670568 -369937804 513514843 36938899 -279017151 789378443 420034881 614310882 2039612983 1707172644 -1826129180 -150641415 -937108359 721011816 -663392596 -2134114658 12745164 -25744894 674211921 317154634 1478867625 357250737 1864442138 1563361375 1574996985 1298073861 -669060255 1855833131 143493144 1841436328 -1960587933 -397036864
REM
CELL 1.54180   50.00000   50.00000   50.00000   90.00000   90.00000   90.00000
LATT -1
SFAC C  
C      1  0.4642640000000  0.4285620000000  0.5244640000000 1.0
C      1  0.5419040000000  0.4820450000000  0.4434310000000 1.0
C      1  0.5533230000000  0.5654810000000  0.4971520000000 1.0
C      1  0.5144910000000  0.5537070000000  0.5555820000000 1.0
C      1  0.4975900000000  0.4710930000000  0.4331510000000 1.0
C      1  0.5082190000000  0.5657400000000  0.4717920000000 1.0
C      1  0.5009750000000  0.4387490000000  0.5504810000000 1.0
C      1  0.4912460000000  0.4669160000000  0.4953210000000 1.0
C      1  0.4294370000000  0.4970540000000  0.4393930000000 1.0
C      1  0.4520460000000  0.4858410000000  0.4825530000000 1.0
C      1  0.5485090000000  0.5652360000000  0.4682810000000 1.0
C      1  0.4992020000000  0.5039510000000  0.5300550000000 1.0
C      1  0.4569930000000  0.5192290000000  0.5711500000000 1.0
C      1  0.5293050000000  0.5824440000000  0.4612210000000 1.0
C      1  0.4540540000000  0.4242670000000  0.4987460000000 1.0
C      1  0.4517550000000  0.5266480000000  0.5332820000000 1.0
C      1  0.4219370000000  0.4570240000000  0.5097650000000 1.0
C      1  0.4884170000000  0.5533740000000  0.5415160000000 1.0
C      1  0.4787360000000  0.4222980000000  0.4846910000000 1.0
C      1  0.5466700000000  0.5197650000000  0.5510040000000 1.0
C      1  0.5349830000000  0.5633960000000  0.5391120000000 1.0
C      1  0.5864790000000  0.4645650000000  0.4811970000000 1.0
C      1  0.5853520000000  0.4870880000000  0.4670230000000 1.0
C      1  0.5459670000000  0.4922340000000  0.5358750000000 1.0
C      1  0.4495890000000  0.4599700000000  0.4671390000000 1.0
C      1  0.4787970000000  0.5046960000000  0.5843980000000 1.0
C      1  0.4994700000000  0.5552770000000  0.4432460000000 1.0
C      1  0.5049050000000  0.5766960000000  0.5008980000000 1.0
C      1  0.4724590000000  0.4995400000000  0.4645380000000 1.0
C      1  0.5011300000000  0.4492060000000  0.4514890000000 1.0
C      1  0.4915960000000  0.4223680000000  0.5287320000000 1.0
C      1  0.5270300000000  0.4302670000000  0.4917680000000 1.0
C      1  0.5235970000000  0.5001230000000  0.5125530000000 1.0
C      1  0.5053090000000  0.5069460000000  0.5758570000000 1.0
C      1  0.5499660000000  0.4376390000000  0.5096670000000 1.0
C      1  0.5665660000000  0.4944570000000  0.4449720000000 1.0
C      1  0.5192560000000  0.5328450000000  0.4763100000000 1.0
C      1  0.5197190000000  0.4884490000000  0.4272760000000 1.0
C      1  0.4791870000000  0.4474930000000  0.4701990000000 1.0
C      1  0.4717140000000  0.5042900000000  0.5188120000000 1.0
C      1  0.5706630000000  0.4593890000000  0.5045880000000 1.0
C      1  0.4992180000000  0.5332640000000  0.5186520000000 1.0
C      1  0.5839130000000  0.5241230000000  0.5020690000000 1.0
C      1  0.4824280000000  0.4627660000000  0.5558330000000 1.0
C      1  0.4354300000000  0.4439210000000  0.4884010000000 1.0
C      1  0.5024460000000  0.4193320000000  0.5019140000000 1.0
C      1  0.4321090000000  0.5290170000000  0.4967290000000 1.0
C      1  0.5122620000000  0.4860660000000  0.4881160000000 1.0
C      1  0.4575230000000  0.5631290000000  0.5050320000000 1.0
C      1  0.4421510000000  0.4926150000000  0.5658360000000 1.0
C      1  0.4284460000000  0.5012740000000  0.4953200000000 1.0
C      1  0.5480260000000  0.4304870000000  0.5367510000000 1.0
C      1  0.4799740000000  0.5234880000000  0.4969450000000 1.0
C      1  0.4822480000000  0.5153550000000  0.4259890000000 1.0
C      1  0.4736470000000  0.4874750000000  0.4363110000000 1.0
C      1  0.4971130000000  0.5097340000000  0.4772360000000 1.0
C      1  0.4658980000000  0.4785120000000  0.5758390000000 1.0
C      1  0.4620070000000  0.4565080000000  0.5330390000000 1.0
C      1  0.4755410000000  0.5413770000000  0.4377820000000 1.0
C      1  0.4458540000000  0.4747320000000  0.4409250000000 1.0
C      1  0.5309310000000  0.5746540000000  0.5131810000000 1.0
C      1  0.5883580000000  0.5030270000000  0.5191200000000 1.0
C      1  0.4246810000000  0.4819820000000  0.5454640000000 1.0
C      1  0.5690530000000  0.5465410000000  0.5123480000000 1.0
C      1  0.5250520000000  0.4433510000000  0.4668150000000 1.0
C      1  0.4559720000000  0.5412390000000  0.4836100000000 1.0
C      1  0.5289170000000  0.4456350000000  0.5497110000000 1.0
C      1  0.4819060000000  0.5714230000000  0.5171370000000 1.0
C      1  0.4390170000000  0.5467470000000  0.5183950000000 1.0
C      1  0.5314960000000  0.4706330000000  0.4678580000000 1.0
C      1  0.4173510000000  0.4850100000000  0.5158860000000 1.0
C      1  0.4648970000000  0.5401420000000  0.5538500000000 1.0
C      1  0.5231000000000  0.5276530000000  0.5663720000000 1.0
C      1  0.5042850000000  0.4854250000000  0.5549540000000 1.0
C      1  0.4326620000000  0.4558210000000  0.5365340000000 1.0
C      1  0.4337460000000  0.5217570000000  0.4443730000000 1.0
C      1  0.5433510000000  0.5389720000000  0.4542010000000 1.0
C      1  0.4676400000000  0.4776050000000  0.5080130000000 1.0
C      1  0.5851240000000  0.5158130000000  0.4745550000000 1.0
C      1  0.5562610000000  0.5441170000000  0.5380660000000 1.0
C      1  0.5306210000000  0.4737030000000  0.5513210000000 1.0
C      1  0.5252510000000  0.5291040000000  0.5045130000000 1.0
C      1  0.5100440000000  0.5150430000000  0.4231210000000 1.0
C      1  0.4521350000000  0.5410560000000  0.4540650000000 1.0
C      1  0.5214380000000  0.5391180000000  0.4335630000000 1.0
C      1  0.5707560000000  0.4826190000000  0.5227040000000 1.0
C      1  0.5669140000000  0.5222740000000  0.4528700000000 1.0
END
