TITL C-160273-8304-11 0.209975743040782 125000 -334.685534456281 0 0 50 (C1) n - 1
REM
REM in /rds/project/t2_vol4/rds-t2-cs072/BORA/CARBON/from-Arr/AIRSS/Generating-Clusters/GAP-ML-2020/Only-C1/SD-CG/HFTN-CG
REM
REM
REM
REM
REM
REM ./C.cell (11c1c37f851c82e70ff6c80c92926a4b)
REM AIRSS Version 0.9.1 bugfix July 2018 build 013d7b7c2542+ Fri, 06 Jul 2018 19:26:36 +0100
REM compiler GCC version 9.3.0
REM options -cpp -mtune=generic -march=x86-64 -g -O0
REM seed -712567572 -1973460232 -537258627 894950068 1244923650 633296274 -1863471309 53121185 -962494064 944639130 1258840800 1544473117 1295396015 -1850376501 -1185218975 830938397 -2026469813 329738844 -64730418 -487181623 -1134414016 -1603904090 414889312 -991435874 -926496397 1697236548 586531668 -646892402 356704638 1777774133 -581701367 -791337558 -2103245894
REM
CELL 1.54180   50.00000   50.00000   50.00000   90.00000   90.00000   90.00000
LATT -1
SFAC C  
C      1  0.4764840000000  0.4883800000000  0.4573690000000 1.0
C      1  0.5432870000000  0.4633120000000  0.5195260000000 1.0
C      1  0.5120280000000  0.5349500000000  0.4415140000000 1.0
C      1  0.4965480000000  0.5124700000000  0.5236060000000 1.0
C      1  0.5043020000000  0.4846100000000  0.5209080000000 1.0
C      1  0.5381070000000  0.5236970000000  0.4461340000000 1.0
C      1  0.5011650000000  0.5162460000000  0.4936310000000 1.0
C      1  0.5272550000000  0.4969890000000  0.4382460000000 1.0
C      1  0.5305770000000  0.4916530000000  0.5604930000000 1.0
C      1  0.5361940000000  0.4795870000000  0.4582340000000 1.0
C      1  0.4503670000000  0.4596350000000  0.4999710000000 1.0
C      1  0.5115150000000  0.5532310000000  0.5307960000000 1.0
C      1  0.4595850000000  0.5245890000000  0.4367550000000 1.0
C      1  0.4214470000000  0.4882010000000  0.5230750000000 1.0
C      1  0.4931540000000  0.4418170000000  0.5064820000000 1.0
C      1  0.5373200000000  0.5589570000000  0.5238400000000 1.0
C      1  0.5122130000000  0.5264230000000  0.5449020000000 1.0
C      1  0.4957720000000  0.4625080000000  0.5503570000000 1.0
C      1  0.4878510000000  0.4644290000000  0.4662350000000 1.0
C      1  0.5475710000000  0.4892980000000  0.5041670000000 1.0
C      1  0.5025570000000  0.5092050000000  0.4284510000000 1.0
C      1  0.4752450000000  0.5020040000000  0.4323410000000 1.0
C      1  0.4419540000000  0.4792460000000  0.5402330000000 1.0
C      1  0.4605160000000  0.4986100000000  0.5492970000000 1.0
C      1  0.5021500000000  0.5460700000000  0.4865830000000 1.0
C      1  0.5239390000000  0.4706030000000  0.5420920000000 1.0
C      1  0.4650020000000  0.5401800000000  0.5123430000000 1.0
C      1  0.4558100000000  0.5278140000000  0.4859110000000 1.0
C      1  0.5642160000000  0.5404180000000  0.4852700000000 1.0
C      1  0.4745810000000  0.4516550000000  0.4871160000000 1.0
C      1  0.5056730000000  0.5050240000000  0.5661320000000 1.0
C      1  0.5443450000000  0.4380760000000  0.5079520000000 1.0
C      1  0.4540630000000  0.4552580000000  0.5279620000000 1.0
C      1  0.4808140000000  0.4464670000000  0.5322530000000 1.0
C      1  0.4894070000000  0.5557270000000  0.5104050000000 1.0
C      1  0.4686840000000  0.5195960000000  0.5312010000000 1.0
C      1  0.5162430000000  0.4655920000000  0.4741960000000 1.0
C      1  0.5537620000000  0.5120750000000  0.5217910000000 1.0
C      1  0.5560600000000  0.5204090000000  0.4683590000000 1.0
C      1  0.4678490000000  0.5372880000000  0.4598540000000 1.0
C      1  0.4369970000000  0.5062200000000  0.4823070000000 1.0
C      1  0.4942120000000  0.5482880000000  0.4594910000000 1.0
C      1  0.4328020000000  0.4846210000000  0.4977360000000 1.0
C      1  0.5200710000000  0.4462390000000  0.4966290000000 1.0
C      1  0.5410970000000  0.5132640000000  0.5459510000000 1.0
C      1  0.5550350000000  0.4928400000000  0.4759160000000 1.0
C      1  0.5174500000000  0.4907970000000  0.4950810000000 1.0
C      1  0.4844830000000  0.4874990000000  0.5616890000000 1.0
C      1  0.4779030000000  0.5082820000000  0.4783280000000 1.0
C      1  0.5543380000000  0.5396500000000  0.5108880000000 1.0
END
