TITL C-161223-4125-8 -0.171319814833846 125000 -316.615065014507 0 0 47 (C1) n - 1
REM
REM in /rds/project/t2_vol4/rds-t2-cs072/BORA/CARBON/from-Arr/AIRSS/Generating-Clusters/GAP-ML-2020/Only-C1/SD-CG/HFTN-CG
REM
REM
REM
REM
REM
REM ./C.cell (11c1c37f851c82e70ff6c80c92926a4b)
REM AIRSS Version 0.9.1 bugfix July 2018 build 013d7b7c2542+ Fri, 06 Jul 2018 19:26:36 +0100
REM compiler GCC version 9.3.0
REM options -cpp -mtune=generic -march=x86-64 -g -O0
REM seed -1320918696 -2138934941 1315015102 -778605699 1416716416 581318672 -114218478 -608156198 -848684632 -411697789 -1147237353 2066620639 1643329877 1894017753 -2019630043 1569938057 1599469920 94758503 1633389637 1546565150 885845985 -1956919903 1044965096 60073212 -2947654 -578429856 -1890759188 465834685 -2140166115 1365176793 1953637678 1731628757 850345217
REM
CELL 1.54180   50.00000   50.00000   50.00000   90.00000   90.00000   90.00000
LATT -1
SFAC C  
C      1  0.4778960000000  0.5233890000000  0.4995340000000 1.0
C      1  0.5028510000000  0.4467170000000  0.4960110000000 1.0
C      1  0.5169260000000  0.5301940000000  0.4594170000000 1.0
C      1  0.5319820000000  0.5071130000000  0.4512530000000 1.0
C      1  0.5159990000000  0.5334050000000  0.5338040000000 1.0
C      1  0.5644240000000  0.4931220000000  0.5272690000000 1.0
C      1  0.4867170000000  0.4728330000000  0.5390520000000 1.0
C      1  0.4900530000000  0.4821920000000  0.4350570000000 1.0
C      1  0.4357060000000  0.5193890000000  0.5263380000000 1.0
C      1  0.4774120000000  0.5154390000000  0.5565610000000 1.0
C      1  0.4546700000000  0.5369020000000  0.5186840000000 1.0
C      1  0.5159660000000  0.4863070000000  0.5763710000000 1.0
C      1  0.5480170000000  0.4793710000000  0.5488420000000 1.0
C      1  0.4726840000000  0.5561480000000  0.5284900000000 1.0
C      1  0.4741490000000  0.5467180000000  0.4802600000000 1.0
C      1  0.5194110000000  0.4859360000000  0.4373340000000 1.0
C      1  0.5392230000000  0.4531280000000  0.4691540000000 1.0
C      1  0.5578470000000  0.5194850000000  0.5187380000000 1.0
C      1  0.4901780000000  0.5395790000000  0.5465980000000 1.0
C      1  0.4767980000000  0.5657690000000  0.5021540000000 1.0
C      1  0.4318590000000  0.5026010000000  0.5020450000000 1.0
C      1  0.4498220000000  0.5305160000000  0.4664320000000 1.0
C      1  0.4536200000000  0.5057890000000  0.5435650000000 1.0
C      1  0.4651640000000  0.4738380000000  0.4842890000000 1.0
C      1  0.4681310000000  0.5233100000000  0.4448290000000 1.0
C      1  0.5413280000000  0.4800670000000  0.5754420000000 1.0
C      1  0.5357180000000  0.4647750000000  0.5269750000000 1.0
C      1  0.5081060000000  0.5216470000000  0.5076030000000 1.0
C      1  0.5553530000000  0.4743440000000  0.4807170000000 1.0
C      1  0.5227630000000  0.4589620000000  0.4473090000000 1.0
C      1  0.4703960000000  0.4997860000000  0.4315150000000 1.0
C      1  0.5254600000000  0.4351470000000  0.4862040000000 1.0
C      1  0.4936110000000  0.4903100000000  0.5614870000000 1.0
C      1  0.4473760000000  0.4787440000000  0.5055690000000 1.0
C      1  0.5564360000000  0.4729440000000  0.5083710000000 1.0
C      1  0.5520650000000  0.5010770000000  0.4713260000000 1.0
C      1  0.5426920000000  0.5349020000000  0.5362230000000 1.0
C      1  0.5513660000000  0.5222070000000  0.4910380000000 1.0
C      1  0.4932510000000  0.4560680000000  0.4493960000000 1.0
C      1  0.5069900000000  0.4922200000000  0.4988780000000 1.0
C      1  0.4598970000000  0.4807760000000  0.5314700000000 1.0
C      1  0.5072010000000  0.4674990000000  0.5179230000000 1.0
C      1  0.4830250000000  0.4534380000000  0.4756630000000 1.0
C      1  0.5260050000000  0.5345500000000  0.4865770000000 1.0
C      1  0.4906730000000  0.5380760000000  0.4560460000000 1.0
C      1  0.4816200000000  0.4976270000000  0.4842970000000 1.0
C      1  0.4311660000000  0.5156440000000  0.4778880000000 1.0
END
