TITL C-162438-3477-2 15.4943163525004 125000 -435.382196762976 0 0 64 (C1) n - 1
REM
REM in /rds/project/t2_vol4/rds-t2-cs072/BORA/CARBON/from-Arr/AIRSS/Generating-Clusters/GAP-ML-2020/Only-C1/SD-CG/HFTN-CG
REM
REM
REM
REM
REM
REM ./C.cell (11c1c37f851c82e70ff6c80c92926a4b)
REM AIRSS Version 0.9.1 bugfix July 2018 build 013d7b7c2542+ Fri, 06 Jul 2018 19:26:36 +0100
REM compiler GCC version 9.3.0
REM options -cpp -mtune=generic -march=x86-64 -g -O0
REM seed -961806419 632769690 -1883284251 646796262 -1637587500 554128100 -1320944606 -607112950 -884530493 629216930 -1603719672 -1145707892 1307827960 -689406903 1614387548 1038899397 -1663490364 740010882 -175064171 246177502 -56360792 429605302 -980453290 -1085058705 202654026 533333112 -1864104306 -1348090347 1091441223 1334278371 -785824454 223633976 1281956647
REM
CELL 1.54180   50.00000   50.00000   50.00000   90.00000   90.00000   90.00000
LATT -1
SFAC C  
C      1  0.4640160000000  0.5320550000000  0.4873190000000 1.0
C      1  0.4585510000000  0.4559010000000  0.5363310000000 1.0
C      1  0.4798080000000  0.4529560000000  0.5552590000000 1.0
C      1  0.5553510000000  0.4391100000000  0.4967390000000 1.0
C      1  0.5704770000000  0.4773690000000  0.4851330000000 1.0
C      1  0.5087050000000  0.5221120000000  0.5114490000000 1.0
C      1  0.4773020000000  0.5387230000000  0.4602620000000 1.0
C      1  0.5748980000000  0.5053090000000  0.4824200000000 1.0
C      1  0.4432880000000  0.4896820000000  0.4511930000000 1.0
C      1  0.5153960000000  0.4796250000000  0.4342540000000 1.0
C      1  0.4580560000000  0.4554560000000  0.4897470000000 1.0
C      1  0.5236420000000  0.4628550000000  0.5475270000000 1.0
C      1  0.4776890000000  0.4634350000000  0.4693690000000 1.0
C      1  0.4967580000000  0.4863960000000  0.4852150000000 1.0
C      1  0.4508910000000  0.4831310000000  0.5265920000000 1.0
C      1  0.4899160000000  0.5645180000000  0.5451410000000 1.0
C      1  0.4879120000000  0.5726680000000  0.4911580000000 1.0
C      1  0.4401280000000  0.5093020000000  0.5368350000000 1.0
C      1  0.5462090000000  0.5412950000000  0.4876490000000 1.0
C      1  0.4753620000000  0.5186740000000  0.5685900000000 1.0
C      1  0.4691190000000  0.5559120000000  0.5047560000000 1.0
C      1  0.5206030000000  0.5083960000000  0.5572600000000 1.0
C      1  0.4355810000000  0.5224610000000  0.4858960000000 1.0
C      1  0.4681560000000  0.5523040000000  0.5327900000000 1.0
C      1  0.5081420000000  0.4301010000000  0.4874810000000 1.0
C      1  0.5541260000000  0.4657140000000  0.5069870000000 1.0
C      1  0.5147160000000  0.4821170000000  0.5656520000000 1.0
C      1  0.5327860000000  0.5671760000000  0.4795140000000 1.0
C      1  0.4414850000000  0.4765040000000  0.4981230000000 1.0
C      1  0.5303030000000  0.5098780000000  0.5285990000000 1.0
C      1  0.4824920000000  0.4893650000000  0.5255860000000 1.0
C      1  0.4935910000000  0.5225660000000  0.4419760000000 1.0
C      1  0.5354280000000  0.4260870000000  0.4822880000000 1.0
C      1  0.4590590000000  0.5281330000000  0.5471820000000 1.0
C      1  0.5049620000000  0.5556280000000  0.5638330000000 1.0
C      1  0.5028500000000  0.4438450000000  0.5425240000000 1.0
C      1  0.4843580000000  0.5085710000000  0.5025850000000 1.0
C      1  0.5314210000000  0.4771480000000  0.5222830000000 1.0
C      1  0.5033900000000  0.5282890000000  0.5675720000000 1.0
C      1  0.4870140000000  0.4748720000000  0.5728940000000 1.0
C      1  0.5666850000000  0.4532730000000  0.4699150000000 1.0
C      1  0.5431730000000  0.4422810000000  0.4572530000000 1.0
C      1  0.5143160000000  0.5809690000000  0.4953290000000 1.0
C      1  0.4668400000000  0.4417910000000  0.5124590000000 1.0
C      1  0.5543780000000  0.5272510000000  0.5153290000000 1.0
C      1  0.4899210000000  0.5635010000000  0.4630110000000 1.0
C      1  0.4905940000000  0.4945460000000  0.4354150000000 1.0
C      1  0.5191690000000  0.4539420000000  0.4472930000000 1.0
C      1  0.5786850000000  0.5168050000000  0.5098330000000 1.0
C      1  0.5442460000000  0.5215540000000  0.4435360000000 1.0
C      1  0.4982120000000  0.4439870000000  0.4642340000000 1.0
C      1  0.4706210000000  0.4944460000000  0.5809090000000 1.0
C      1  0.5206480000000  0.4993410000000  0.4751860000000 1.0
C      1  0.4963270000000  0.4406800000000  0.5126800000000 1.0
C      1  0.5028500000000  0.4716110000000  0.5107930000000 1.0
C      1  0.5199920000000  0.5359700000000  0.4415850000000 1.0
C      1  0.4221580000000  0.5227490000000  0.5208110000000 1.0
C      1  0.5334280000000  0.4961760000000  0.4479290000000 1.0
C      1  0.4346600000000  0.4948660000000  0.4771310000000 1.0
C      1  0.5170250000000  0.5612840000000  0.4549680000000 1.0
C      1  0.4133110000000  0.5356620000000  0.5000940000000 1.0
C      1  0.4682250000000  0.4804730000000  0.4470380000000 1.0
C      1  0.5604780000000  0.5255260000000  0.4670600000000 1.0
C      1  0.5201190000000  0.5256770000000  0.4862480000000 1.0
END
