TITL C-162427-1736-8 -74.7980725883651 125000 -225.836650623012 0 0 34 (C1) n - 1
REM
REM in /rds/project/t2_vol4/rds-t2-cs072/BORA/CARBON/from-Arr/AIRSS/Generating-Clusters/GAP-ML-2020/Only-C1/SD-CG/HFTN-CG
REM
REM
REM
REM
REM
REM ./C.cell (11c1c37f851c82e70ff6c80c92926a4b)
REM AIRSS Version 0.9.1 bugfix July 2018 build 013d7b7c2542+ Fri, 06 Jul 2018 19:26:36 +0100
REM compiler GCC version 9.3.0
REM options -cpp -mtune=generic -march=x86-64 -g -O0
REM seed -1428300548 1505231611 684221978 1213325338 -1958231620 -1921298190 697811580 -1175668838 917968146 1106643601 -1774935572 -387637510 1063611340 -895598697 1480432519 -962583766 210451449 435695162 1682094866 600548947 2074871093 1177381714 2022884757 -142123696 -2087344552 -571621343 -850621925 -1996252008 -177206954 796497311 1054747941 2108112761 1365518363
REM
CELL 1.54180   50.00000   50.00000   50.00000   90.00000   90.00000   90.00000
LATT -1
SFAC C  
C      1  0.5305020000000  0.4704300000000  0.5060690000000 1.0
C      1  0.4777110000000  0.4523640000000  0.5324300000000 1.0
C      1  0.5409060000000  0.4782650000000  0.4796820000000 1.0
C      1  0.5224990000000  0.5145290000000  0.4561670000000 1.0
C      1  0.4575700000000  0.5213080000000  0.4961350000000 1.0
C      1  0.5548700000000  0.5025940000000  0.4876350000000 1.0
C      1  0.5206960000000  0.5283060000000  0.5236260000000 1.0
C      1  0.4718000000000  0.5641060000000  0.5045970000000 1.0
C      1  0.4616590000000  0.4742880000000  0.5243340000000 1.0
C      1  0.4969670000000  0.4767220000000  0.4560110000000 1.0
C      1  0.5062230000000  0.4877940000000  0.5056500000000 1.0
C      1  0.5234080000000  0.4861770000000  0.4583820000000 1.0
C      1  0.5456940000000  0.4895190000000  0.5254620000000 1.0
C      1  0.5261800000000  0.5054550000000  0.5389820000000 1.0
C      1  0.5135900000000  0.5150340000000  0.4994930000000 1.0
C      1  0.4879560000000  0.5473800000000  0.4697150000000 1.0
C      1  0.4903910000000  0.4410730000000  0.5101700000000 1.0
C      1  0.5065110000000  0.5515450000000  0.5223710000000 1.0
C      1  0.4988790000000  0.5617370000000  0.4941060000000 1.0
C      1  0.5169380000000  0.4474710000000  0.5196140000000 1.0
C      1  0.5021850000000  0.4892830000000  0.5382440000000 1.0
C      1  0.4771670000000  0.4513900000000  0.4873930000000 1.0
C      1  0.5028000000000  0.4602300000000  0.5430440000000 1.0
C      1  0.5352870000000  0.5214180000000  0.4807280000000 1.0
C      1  0.4790680000000  0.4996110000000  0.4590190000000 1.0
C      1  0.5664690000000  0.4995710000000  0.5119580000000 1.0
C      1  0.4951280000000  0.5236080000000  0.4557150000000 1.0
C      1  0.4775050000000  0.5490280000000  0.5282920000000 1.0
C      1  0.4900490000000  0.4519840000000  0.4639830000000 1.0
C      1  0.4608840000000  0.4976310000000  0.4810780000000 1.0
C      1  0.4631210000000  0.5462280000000  0.4840960000000 1.0
C      1  0.4594190000000  0.4732720000000  0.4958070000000 1.0
C      1  0.4662880000000  0.5222910000000  0.5241860000000 1.0
C      1  0.4736800000000  0.4983560000000  0.5358250000000 1.0
END
