TITL C-160267-8495-8 -0.00401047344630341 125000 -363.353538001898 0 0 54 (C1) n - 1
REM
REM in /rds/project/t2_vol4/rds-t2-cs072/BORA/CARBON/from-Arr/AIRSS/Generating-Clusters/GAP-ML-2020/Only-C1/SD-CG/HFTN-CG
REM
REM
REM
REM
REM
REM ./C.cell (11c1c37f851c82e70ff6c80c92926a4b)
REM AIRSS Version 0.9.1 bugfix July 2018 build 013d7b7c2542+ Fri, 06 Jul 2018 19:26:36 +0100
REM compiler GCC version 9.3.0
REM options -cpp -mtune=generic -march=x86-64 -g -O0
REM seed 178646788 350407522 1507236135 329962594 -29483054 -361098494 -107052008 -824082191 -175326593 610759440 -1038142071 1177892900 1182236074 -1693471238 453153596 -423176210 -23472419 1299382230 1683735716 -1018033717 228454760 -1715037379 306274942 1176267058 -1479768950 -1302291347 -2131463 703841546 -45170168 213618125 -1354649557 -1940584175 1313324976
REM
CELL 1.54180   50.00000   50.00000   50.00000   90.00000   90.00000   90.00000
LATT -1
SFAC C  
C      1  0.4766750000000  0.4469150000000  0.4662080000000 1.0
C      1  0.5062540000000  0.5520130000000  0.5452830000000 1.0
C      1  0.5552610000000  0.4750310000000  0.4828520000000 1.0
C      1  0.5595700000000  0.4886810000000  0.5069470000000 1.0
C      1  0.4432310000000  0.4730010000000  0.4848960000000 1.0
C      1  0.4727360000000  0.4380280000000  0.4951660000000 1.0
C      1  0.5322610000000  0.4527540000000  0.5299500000000 1.0
C      1  0.5199230000000  0.5142350000000  0.5046890000000 1.0
C      1  0.5121480000000  0.5092620000000  0.5684680000000 1.0
C      1  0.5485140000000  0.5261380000000  0.5396390000000 1.0
C      1  0.4385280000000  0.5007900000000  0.4914350000000 1.0
C      1  0.4723120000000  0.5357260000000  0.4845480000000 1.0
C      1  0.5010170000000  0.5059270000000  0.5227830000000 1.0
C      1  0.4613510000000  0.4788180000000  0.5262230000000 1.0
C      1  0.4594560000000  0.5012660000000  0.5695520000000 1.0
C      1  0.5437860000000  0.4808940000000  0.4566740000000 1.0
C      1  0.5055070000000  0.4725540000000  0.4900870000000 1.0
C      1  0.5075620000000  0.5117570000000  0.4348620000000 1.0
C      1  0.5203670000000  0.5515280000000  0.4725370000000 1.0
C      1  0.4957160000000  0.5316910000000  0.5612390000000 1.0
C      1  0.4462150000000  0.5035300000000  0.5179700000000 1.0
C      1  0.5015440000000  0.4587970000000  0.4629970000000 1.0
C      1  0.4969630000000  0.4288700000000  0.5028510000000 1.0
C      1  0.5393450000000  0.5090750000000  0.5587410000000 1.0
C      1  0.4914690000000  0.5596580000000  0.5230460000000 1.0
C      1  0.4488570000000  0.5140120000000  0.4468620000000 1.0
C      1  0.4820540000000  0.4993280000000  0.4280990000000 1.0
C      1  0.5465660000000  0.4826270000000  0.5547060000000 1.0
C      1  0.5223360000000  0.4662700000000  0.5538480000000 1.0
C      1  0.5530470000000  0.5370640000000  0.4907910000000 1.0
C      1  0.5291020000000  0.4555210000000  0.4575220000000 1.0
C      1  0.5203920000000  0.4460450000000  0.5043200000000 1.0
C      1  0.4682500000000  0.5259600000000  0.4304260000000 1.0
C      1  0.5008390000000  0.4830810000000  0.5624090000000 1.0
C      1  0.4564470000000  0.4665910000000  0.4605850000000 1.0
C      1  0.4547160000000  0.4577190000000  0.5069270000000 1.0
C      1  0.5506340000000  0.5166670000000  0.5114740000000 1.0
C      1  0.4839200000000  0.4875810000000  0.5073600000000 1.0
C      1  0.5286770000000  0.5057900000000  0.4546630000000 1.0
C      1  0.4722070000000  0.4826880000000  0.5546580000000 1.0
C      1  0.5194660000000  0.5619940000000  0.5210430000000 1.0
C      1  0.4478680000000  0.5210820000000  0.4737450000000 1.0
C      1  0.5336670000000  0.5582800000000  0.4974360000000 1.0
C      1  0.5548100000000  0.4717590000000  0.5295400000000 1.0
C      1  0.4831380000000  0.5054600000000  0.4821740000000 1.0
C      1  0.4934330000000  0.5473520000000  0.4661740000000 1.0
C      1  0.4687130000000  0.5225590000000  0.5553330000000 1.0
C      1  0.4569520000000  0.5272210000000  0.5293680000000 1.0
C      1  0.5407640000000  0.5318360000000  0.4653000000000 1.0
C      1  0.4589090000000  0.4869130000000  0.4413320000000 1.0
C      1  0.5123230000000  0.5008550000000  0.4798890000000 1.0
C      1  0.4922550000000  0.5365890000000  0.4401250000000 1.0
C      1  0.5416430000000  0.4494440000000  0.4826310000000 1.0
C      1  0.4703020000000  0.5447690000000  0.5116180000000 1.0
END
