TITL C-160264-1682-3 -44.9897519280165 125000 -446.700165682289 0 0 67 (C1) n - 1
REM
REM in /rds/project/t2_vol4/rds-t2-cs072/BORA/CARBON/from-Arr/AIRSS/Generating-Clusters/GAP-ML-2020/Only-C1/SD-CG/HFTN-CG
REM
REM
REM
REM
REM
REM ./C.cell (11c1c37f851c82e70ff6c80c92926a4b)
REM AIRSS Version 0.9.1 bugfix July 2018 build 013d7b7c2542+ Fri, 06 Jul 2018 19:26:36 +0100
REM compiler GCC version 9.3.0
REM options -cpp -mtune=generic -march=x86-64 -g -O0
REM seed -951823604 -630514393 1161283551 -1051407290 -933102004 -1159881046 1252226389 940299356 -1392182978 1939715608 1217923315 -554405662 204752193 -538450669 -1517047920 1447654328 -1522498014 878880158 1452339554 313799482 879287285 1767022094 730156237 -391609081 1284255568 1967775228 -745130479 2137085395 -1422191025 -1530707490 722495543 1567901412 -1528738339
REM
CELL 1.54180   50.00000   50.00000   50.00000   90.00000   90.00000   90.00000
LATT -1
SFAC C  
C      1  0.4898620000000  0.4975230000000  0.4987530000000 1.0
C      1  0.5203470000000  0.4410130000000  0.4568550000000 1.0
C      1  0.4787970000000  0.4507940000000  0.4856030000000 1.0
C      1  0.5067920000000  0.5420390000000  0.4553380000000 1.0
C      1  0.4543890000000  0.4285590000000  0.5325400000000 1.0
C      1  0.5176150000000  0.5751770000000  0.5058440000000 1.0
C      1  0.4337000000000  0.5133510000000  0.5004010000000 1.0
C      1  0.4911470000000  0.5556330000000  0.5417610000000 1.0
C      1  0.5401700000000  0.4501200000000  0.5400700000000 1.0
C      1  0.4859520000000  0.4541700000000  0.4380210000000 1.0
C      1  0.5504120000000  0.4757730000000  0.5452770000000 1.0
C      1  0.4902850000000  0.4780550000000  0.4749270000000 1.0
C      1  0.4850780000000  0.5523640000000  0.4763100000000 1.0
C      1  0.4420980000000  0.5019790000000  0.5272910000000 1.0
C      1  0.5314340000000  0.4803490000000  0.5666680000000 1.0
C      1  0.4904330000000  0.4381520000000  0.4615410000000 1.0
C      1  0.5521790000000  0.5361600000000  0.4496050000000 1.0
C      1  0.4460330000000  0.4701330000000  0.4504180000000 1.0
C      1  0.5646880000000  0.5406020000000  0.4748240000000 1.0
C      1  0.4915160000000  0.5715350000000  0.4978470000000 1.0
C      1  0.5133760000000  0.4544400000000  0.4303570000000 1.0
C      1  0.5342560000000  0.5010940000000  0.4761780000000 1.0
C      1  0.5409390000000  0.4560630000000  0.4681650000000 1.0
C      1  0.5582890000000  0.4646270000000  0.4920380000000 1.0
C      1  0.5196610000000  0.4746450000000  0.4769290000000 1.0
C      1  0.4889780000000  0.4570840000000  0.5546050000000 1.0
C      1  0.5304240000000  0.5447300000000  0.5389590000000 1.0
C      1  0.4757720000000  0.5669970000000  0.5222060000000 1.0
C      1  0.5555360000000  0.4955420000000  0.4972240000000 1.0
C      1  0.5701480000000  0.5220980000000  0.4943610000000 1.0
C      1  0.4731220000000  0.4794770000000  0.4470580000000 1.0
C      1  0.5082960000000  0.5504120000000  0.5623950000000 1.0
C      1  0.5119370000000  0.4883000000000  0.5188600000000 1.0
C      1  0.4340200000000  0.5027860000000  0.4732990000000 1.0
C      1  0.4943220000000  0.4438860000000  0.5086000000000 1.0
C      1  0.5308480000000  0.5523920000000  0.4418770000000 1.0
C      1  0.4561400000000  0.5464050000000  0.5230720000000 1.0
C      1  0.4977120000000  0.5206080000000  0.4372500000000 1.0
C      1  0.5216760000000  0.4780660000000  0.4214660000000 1.0
C      1  0.4724610000000  0.5086070000000  0.4412970000000 1.0
C      1  0.5043240000000  0.5319800000000  0.5260330000000 1.0
C      1  0.5434130000000  0.4973820000000  0.5248350000000 1.0
C      1  0.5415730000000  0.5193980000000  0.5445240000000 1.0
C      1  0.4552430000000  0.5231870000000  0.5413500000000 1.0
C      1  0.5390370000000  0.5622320000000  0.5172220000000 1.0
C      1  0.5194000000000  0.5262610000000  0.4799490000000 1.0
C      1  0.5178150000000  0.4611540000000  0.5068920000000 1.0
C      1  0.4577740000000  0.5438780000000  0.4735960000000 1.0
C      1  0.4804530000000  0.4390250000000  0.5331200000000 1.0
C      1  0.4620700000000  0.4893340000000  0.5076940000000 1.0
C      1  0.5009450000000  0.5065430000000  0.5401550000000 1.0
C      1  0.4519620000000  0.4629120000000  0.4965420000000 1.0
C      1  0.4970930000000  0.5263230000000  0.4975750000000 1.0
C      1  0.5596400000000  0.5473280000000  0.5017340000000 1.0
C      1  0.4765030000000  0.5088900000000  0.5582380000000 1.0
C      1  0.4518860000000  0.5203600000000  0.4576200000000 1.0
C      1  0.4696910000000  0.4795690000000  0.5584920000000 1.0
C      1  0.4442160000000  0.5395710000000  0.4986670000000 1.0
C      1  0.5224460000000  0.5068170000000  0.5631300000000 1.0
C      1  0.5446300000000  0.4509380000000  0.5125660000000 1.0
C      1  0.5429780000000  0.5087270000000  0.4492020000000 1.0
C      1  0.4451220000000  0.4523030000000  0.5244470000000 1.0
C      1  0.4351900000000  0.4732220000000  0.4743160000000 1.0
C      1  0.5166490000000  0.4568140000000  0.5590740000000 1.0
C      1  0.5012900000000  0.5243970000000  0.5733300000000 1.0
C      1  0.5208880000000  0.5029910000000  0.4317460000000 1.0
C      1  0.4469290000000  0.4767240000000  0.5418610000000 1.0
END
