TITL C-167819-8095-1 -14.9605877649463 125000 -364.406767845168 0 0 54 (C1) n - 1
REM
REM in /rds/project/t2_vol4/rds-t2-cs072/BORA/CARBON/from-Arr/AIRSS/Generating-Clusters/GAP-ML-2020/Only-C1/SD-CG/HFTN-CG
REM
REM
REM
REM
REM
REM ./C.cell (11c1c37f851c82e70ff6c80c92926a4b)
REM AIRSS Version 0.9.1 bugfix July 2018 build 013d7b7c2542+ Fri, 06 Jul 2018 19:26:36 +0100
REM compiler GCC version 9.3.0
REM options -cpp -mtune=generic -march=x86-64 -g -O0
REM seed 1780758248 -1301468980 1757834035 704167500 1352727287 2146680762 -970278534 1195071950 2086710587 -1383338977 283349026 984184144 278847115 1079918483 1858827373 -730312197 49930420 834848321 1114047710 -1550081599 860544479 1935745552 -1511529820 -58603180 -742511418 -74083903 -1727272906 297080715 123199127 2113355458 -49759317 -1200369743 -949787020
REM
CELL 1.54180   50.00000   50.00000   50.00000   90.00000   90.00000   90.00000
LATT -1
SFAC C  
C      1  0.5445680000000  0.4403570000000  0.5089240000000 1.0
C      1  0.5147280000000  0.5098270000000  0.4951590000000 1.0
C      1  0.5618600000000  0.4622830000000  0.5008670000000 1.0
C      1  0.5197640000000  0.4363320000000  0.4940450000000 1.0
C      1  0.4964170000000  0.4261400000000  0.5092570000000 1.0
C      1  0.4687230000000  0.4317610000000  0.5054820000000 1.0
C      1  0.5528390000000  0.5346600000000  0.4827120000000 1.0
C      1  0.5126350000000  0.4639110000000  0.4871660000000 1.0
C      1  0.5768500000000  0.4907110000000  0.4707540000000 1.0
C      1  0.4594570000000  0.5474320000000  0.4859050000000 1.0
C      1  0.5449700000000  0.5458360000000  0.4590090000000 1.0
C      1  0.5293470000000  0.4748660000000  0.5345880000000 1.0
C      1  0.4498450000000  0.5236570000000  0.4717570000000 1.0
C      1  0.5763910000000  0.4655570000000  0.4778590000000 1.0
C      1  0.4671160000000  0.5524890000000  0.5133830000000 1.0
C      1  0.5287580000000  0.5380510000000  0.5018730000000 1.0
C      1  0.5278680000000  0.4846110000000  0.5043980000000 1.0
C      1  0.5476520000000  0.4959870000000  0.5401230000000 1.0
C      1  0.4730140000000  0.5634440000000  0.4649850000000 1.0
C      1  0.4585030000000  0.4455870000000  0.5295730000000 1.0
C      1  0.5123310000000  0.5037390000000  0.4653460000000 1.0
C      1  0.4594850000000  0.5578520000000  0.4415180000000 1.0
C      1  0.4566190000000  0.5303200000000  0.4432030000000 1.0
C      1  0.5051850000000  0.5223830000000  0.4455840000000 1.0
C      1  0.5317030000000  0.5178330000000  0.5488470000000 1.0
C      1  0.5293500000000  0.5413440000000  0.5320400000000 1.0
C      1  0.5054320000000  0.5167030000000  0.5636700000000 1.0
C      1  0.4799250000000  0.5161240000000  0.4314850000000 1.0
C      1  0.5057780000000  0.5558580000000  0.5398630000000 1.0
C      1  0.4831740000000  0.4680350000000  0.5692190000000 1.0
C      1  0.4791310000000  0.5003680000000  0.5344390000000 1.0
C      1  0.5659860000000  0.5096570000000  0.4877560000000 1.0
C      1  0.5108780000000  0.5616400000000  0.4943540000000 1.0
C      1  0.4625160000000  0.4727790000000  0.4746880000000 1.0
C      1  0.4411190000000  0.4920440000000  0.5110710000000 1.0
C      1  0.4911090000000  0.4991240000000  0.5077320000000 1.0
C      1  0.5576810000000  0.4910520000000  0.5114690000000 1.0
C      1  0.5064630000000  0.4766340000000  0.4619710000000 1.0
C      1  0.4799850000000  0.4738310000000  0.4500090000000 1.0
C      1  0.4882650000000  0.5393180000000  0.5542540000000 1.0
C      1  0.4645960000000  0.5341140000000  0.5360920000000 1.0
C      1  0.4754220000000  0.4890510000000  0.4278950000000 1.0
C      1  0.4521630000000  0.4494720000000  0.4890240000000 1.0
C      1  0.4518700000000  0.5083020000000  0.5322710000000 1.0
C      1  0.4462670000000  0.4977330000000  0.4830080000000 1.0
C      1  0.5315550000000  0.4471480000000  0.5333320000000 1.0
C      1  0.5018580000000  0.5644100000000  0.4678280000000 1.0
C      1  0.5183530000000  0.5473000000000  0.4508320000000 1.0
C      1  0.5037830000000  0.4375300000000  0.5347230000000 1.0
C      1  0.4813130000000  0.4491730000000  0.5484920000000 1.0
C      1  0.4884610000000  0.4937290000000  0.5631380000000 1.0
C      1  0.4927250000000  0.5652630000000  0.5161830000000 1.0
C      1  0.4862140000000  0.4730660000000  0.4968350000000 1.0
C      1  0.4420010000000  0.4635750000000  0.5140060000000 1.0
END
