TITL C-162441-2130-6 -145.172870912746 125000 -683.671461723671 0 0 100 (C1) n - 1
REM
REM in /rds/project/t2_vol4/rds-t2-cs072/BORA/CARBON/from-Arr/AIRSS/Generating-Clusters/GAP-ML-2020/Only-C1/SD-CG/HFTN-CG
REM
REM
REM
REM
REM
REM ./C.cell (11c1c37f851c82e70ff6c80c92926a4b)
REM AIRSS Version 0.9.1 bugfix July 2018 build 013d7b7c2542+ Fri, 06 Jul 2018 19:26:36 +0100
REM compiler GCC version 9.3.0
REM options -cpp -mtune=generic -march=x86-64 -g -O0
REM seed -756657879 522625544 1145847037 1066929496 -1162940663 -798949207 1802019085 -1635738243 -1042534948 1251272914 -1416550915 -1312554306 -1021412218 865113071 1630951114 -1852153938 265964101 61427286 -1360202137 1746417424 1339003735 -1988501807 -228385909 584308174 1442132859 109309492 -1608434500 720043896 -1818365012 1987250217 -507132960 491539565 417119197
REM
CELL 1.54180   50.00000   50.00000   50.00000   90.00000   90.00000   90.00000
LATT -1
SFAC C  
C      1  0.5642890000000  0.4728350000000  0.5478020000000 1.0
C      1  0.4832890000000  0.5140170000000  0.5725810000000 1.0
C      1  0.4622050000000  0.4618400000000  0.5200980000000 1.0
C      1  0.5184030000000  0.5626730000000  0.4584960000000 1.0
C      1  0.4583220000000  0.5042200000000  0.5633120000000 1.0
C      1  0.5764190000000  0.4699110000000  0.5222990000000 1.0
C      1  0.4754870000000  0.5487940000000  0.4651090000000 1.0
C      1  0.5530790000000  0.5446380000000  0.5328490000000 1.0
C      1  0.5002860000000  0.5479930000000  0.5114200000000 1.0
C      1  0.5089920000000  0.5794610000000  0.4810490000000 1.0
C      1  0.4397060000000  0.5174500000000  0.4698510000000 1.0
C      1  0.4426490000000  0.5361470000000  0.5412970000000 1.0
C      1  0.5330880000000  0.5399890000000  0.5534910000000 1.0
C      1  0.5558770000000  0.4998000000000  0.5513010000000 1.0
C      1  0.4172440000000  0.4847050000000  0.5463190000000 1.0
C      1  0.5844210000000  0.4872290000000  0.4872730000000 1.0
C      1  0.5622410000000  0.5155830000000  0.5272810000000 1.0
C      1  0.4167130000000  0.5071310000000  0.4811600000000 1.0
C      1  0.5165520000000  0.5920020000000  0.5251840000000 1.0
C      1  0.5213170000000  0.5928480000000  0.4272710000000 1.0
C      1  0.4856750000000  0.5646450000000  0.4894760000000 1.0
C      1  0.4784440000000  0.4851040000000  0.4189390000000 1.0
C      1  0.4846780000000  0.5416230000000  0.5665860000000 1.0
C      1  0.5045530000000  0.4427310000000  0.5740540000000 1.0
C      1  0.5084670000000  0.4504140000000  0.5043360000000 1.0
C      1  0.5638520000000  0.4468000000000  0.5097570000000 1.0
C      1  0.4561990000000  0.4681430000000  0.4574140000000 1.0
C      1  0.5519810000000  0.4970400000000  0.4289840000000 1.0
C      1  0.4344640000000  0.4588540000000  0.4778870000000 1.0
C      1  0.5509180000000  0.4481370000000  0.5534990000000 1.0
C      1  0.5510640000000  0.4864690000000  0.4548380000000 1.0
C      1  0.4811910000000  0.4531570000000  0.4668840000000 1.0
C      1  0.5007170000000  0.4819980000000  0.5386220000000 1.0
C      1  0.5542770000000  0.4493350000000  0.4832220000000 1.0
C      1  0.4627940000000  0.5720220000000  0.5071600000000 1.0
C      1  0.5817090000000  0.4960160000000  0.5123150000000 1.0
C      1  0.4712070000000  0.5726540000000  0.5343710000000 1.0
C      1  0.5244390000000  0.4443560000000  0.4772850000000 1.0
C      1  0.4635950000000  0.4169900000000  0.4904530000000 1.0
C      1  0.5040630000000  0.4253230000000  0.5224080000000 1.0
C      1  0.5227870000000  0.4896890000000  0.4690900000000 1.0
C      1  0.5309250000000  0.4132200000000  0.5190200000000 1.0
C      1  0.4432720000000  0.4327170000000  0.5473860000000 1.0
C      1  0.4568330000000  0.4709280000000  0.4289700000000 1.0
C      1  0.4838630000000  0.4240280000000  0.4716930000000 1.0
C      1  0.4389030000000  0.4815990000000  0.5640460000000 1.0
C      1  0.5504320000000  0.4315200000000  0.5295710000000 1.0
C      1  0.4182900000000  0.4787130000000  0.4897490000000 1.0
C      1  0.5219330000000  0.4707180000000  0.5198090000000 1.0
C      1  0.4519960000000  0.4904750000000  0.5181370000000 1.0
C      1  0.4401810000000  0.4340380000000  0.4935090000000 1.0
C      1  0.5080850000000  0.4643760000000  0.4579350000000 1.0
C      1  0.5086190000000  0.5538910000000  0.5578320000000 1.0
C      1  0.4847620000000  0.5199580000000  0.4619150000000 1.0
C      1  0.5480710000000  0.5620730000000  0.5048650000000 1.0
C      1  0.4784070000000  0.4612110000000  0.5439450000000 1.0
C      1  0.5397230000000  0.5149960000000  0.5073550000000 1.0
C      1  0.5236420000000  0.4932870000000  0.5001440000000 1.0
C      1  0.4915220000000  0.5576110000000  0.4391620000000 1.0
C      1  0.4772290000000  0.4123020000000  0.5158230000000 1.0
C      1  0.5288280000000  0.5848750000000  0.5021360000000 1.0
C      1  0.4396010000000  0.4422240000000  0.5210950000000 1.0
C      1  0.5008140000000  0.5715670000000  0.5354200000000 1.0
C      1  0.5639500000000  0.5708100000000  0.4524130000000 1.0
C      1  0.5331730000000  0.5126930000000  0.5627390000000 1.0
C      1  0.5273090000000  0.5399830000000  0.4999880000000 1.0
C      1  0.4647920000000  0.4999770000000  0.4696790000000 1.0
C      1  0.5115360000000  0.4177210000000  0.4740520000000 1.0
C      1  0.5273930000000  0.4055840000000  0.4927300000000 1.0
C      1  0.5684890000000  0.4716180000000  0.4708980000000 1.0
C      1  0.5658790000000  0.5434780000000  0.4405640000000 1.0
C      1  0.5284150000000  0.5376350000000  0.4706320000000 1.0
C      1  0.4784830000000  0.5130650000000  0.4094300000000 1.0
C      1  0.4963460000000  0.5011430000000  0.5134620000000 1.0
C      1  0.5252090000000  0.4920650000000  0.4195420000000 1.0
C      1  0.4133250000000  0.5178200000000  0.5072740000000 1.0
C      1  0.4743220000000  0.4904270000000  0.4971130000000 1.0
C      1  0.5078000000000  0.4971510000000  0.5663720000000 1.0
C      1  0.5201630000000  0.5208190000000  0.4268710000000 1.0
C      1  0.4945990000000  0.5331310000000  0.4183280000000 1.0
C      1  0.5118710000000  0.4702650000000  0.5795290000000 1.0
C      1  0.4874920000000  0.5254720000000  0.5237820000000 1.0
C      1  0.4471200000000  0.5440760000000  0.4735600000000 1.0
C      1  0.5643830000000  0.5619450000000  0.4804980000000 1.0
C      1  0.4599170000000  0.5137050000000  0.5357620000000 1.0
C      1  0.4265250000000  0.5405770000000  0.5174610000000 1.0
C      1  0.5309040000000  0.4515360000000  0.5732950000000 1.0
C      1  0.5584190000000  0.5365720000000  0.4677640000000 1.0
C      1  0.4665350000000  0.4185400000000  0.5418190000000 1.0
C      1  0.4407410000000  0.5566490000000  0.4986240000000 1.0
C      1  0.4911310000000  0.4344710000000  0.5488550000000 1.0
C      1  0.5054900000000  0.4750270000000  0.4287110000000 1.0
C      1  0.4616140000000  0.5543110000000  0.5525790000000 1.0
C      1  0.5504430000000  0.5260980000000  0.4258120000000 1.0
C      1  0.4968570000000  0.5833980000000  0.4268950000000 1.0
C      1  0.4520930000000  0.4570960000000  0.5614550000000 1.0
C      1  0.5134880000000  0.5157920000000  0.4584780000000 1.0
C      1  0.4198300000000  0.4907770000000  0.5189850000000 1.0
C      1  0.4818870000000  0.4612910000000  0.4962490000000 1.0
C      1  0.5384910000000  0.5801880000000  0.4452610000000 1.0
END
