TITL C-161228-4995-6 -5.87356387655986 125000 -620.751486083572 0 0 89 (C1) n - 1
REM
REM in /rds/project/t2_vol4/rds-t2-cs072/BORA/CARBON/from-Arr/AIRSS/Generating-Clusters/GAP-ML-2020/Only-C1/SD-CG/HFTN-CG
REM
REM
REM
REM
REM
REM ./C.cell (11c1c37f851c82e70ff6c80c92926a4b)
REM AIRSS Version 0.9.1 bugfix July 2018 build 013d7b7c2542+ Fri, 06 Jul 2018 19:26:36 +0100
REM compiler GCC version 9.3.0
REM options -cpp -mtune=generic -march=x86-64 -g -O0
REM seed 1336905540 800480055 303153863 1077670348 1098367124 -1629792987 90338410 2016123775 1832399936 339255088 1795464788 -1356182734 -2058805827 1272492925 1156082002 489889879 59013512 1140062589 326232681 76884741 1354294420 -271691324 369602141 874452713 1289450970 -960348312 -2079527245 -1066809464 410868588 -1166978696 585436065 -1820362781 766563017
REM
CELL 1.54180   50.00000   50.00000   50.00000   90.00000   90.00000   90.00000
LATT -1
SFAC C  
C      1  0.5652590000000  0.4564220000000  0.4618020000000 1.0
C      1  0.4589080000000  0.5035330000000  0.4582500000000 1.0
C      1  0.5186680000000  0.5706840000000  0.5111930000000 1.0
C      1  0.4529260000000  0.5331410000000  0.4525350000000 1.0
C      1  0.5571130000000  0.4751660000000  0.4430860000000 1.0
C      1  0.4188580000000  0.4958600000000  0.5339560000000 1.0
C      1  0.5660750000000  0.5028610000000  0.4498160000000 1.0
C      1  0.4967250000000  0.5869250000000  0.5199010000000 1.0
C      1  0.4745580000000  0.5474850000000  0.5500860000000 1.0
C      1  0.5521920000000  0.5285420000000  0.4493120000000 1.0
C      1  0.4902260000000  0.4203610000000  0.5003220000000 1.0
C      1  0.4710560000000  0.4389340000000  0.4542980000000 1.0
C      1  0.5727060000000  0.4597600000000  0.4880200000000 1.0
C      1  0.4502770000000  0.4565700000000  0.5558650000000 1.0
C      1  0.4655510000000  0.5299150000000  0.4268090000000 1.0
C      1  0.5204390000000  0.5740240000000  0.4810410000000 1.0
C      1  0.5052230000000  0.5334520000000  0.4017890000000 1.0
C      1  0.4987670000000  0.5334450000000  0.5408490000000 1.0
C      1  0.4350050000000  0.5415290000000  0.5212020000000 1.0
C      1  0.4490450000000  0.5157270000000  0.5614530000000 1.0
C      1  0.5843340000000  0.4853580000000  0.4928050000000 1.0
C      1  0.4897930000000  0.4737500000000  0.4937170000000 1.0
C      1  0.5638150000000  0.5463710000000  0.4688800000000 1.0
C      1  0.5209770000000  0.5211130000000  0.5015150000000 1.0
C      1  0.5776180000000  0.5264520000000  0.5128310000000 1.0
C      1  0.4671130000000  0.5334420000000  0.5731450000000 1.0
C      1  0.5275890000000  0.4935700000000  0.5126690000000 1.0
C      1  0.4915310000000  0.5158010000000  0.5793530000000 1.0
C      1  0.4868990000000  0.4804680000000  0.4221490000000 1.0
C      1  0.4972130000000  0.5682030000000  0.4664270000000 1.0
C      1  0.4261830000000  0.4512840000000  0.5218370000000 1.0
C      1  0.4716710000000  0.5797910000000  0.5111860000000 1.0
C      1  0.4827060000000  0.4997210000000  0.4813130000000 1.0
C      1  0.5580100000000  0.4527120000000  0.5116400000000 1.0
C      1  0.5155420000000  0.4479370000000  0.4384120000000 1.0
C      1  0.4723750000000  0.5646480000000  0.4836730000000 1.0
C      1  0.5134350000000  0.4622600000000  0.4825930000000 1.0
C      1  0.4724930000000  0.4975240000000  0.5577460000000 1.0
C      1  0.4790060000000  0.5424140000000  0.5038820000000 1.0
C      1  0.5326460000000  0.4687910000000  0.4288480000000 1.0
C      1  0.4769990000000  0.4675650000000  0.5625440000000 1.0
C      1  0.4199090000000  0.5104180000000  0.4865130000000 1.0
C      1  0.5220350000000  0.5280110000000  0.4468010000000 1.0
C      1  0.5277230000000  0.4202300000000  0.5336400000000 1.0
C      1  0.5170180000000  0.4156390000000  0.5090410000000 1.0
C      1  0.5829380000000  0.5044960000000  0.4723290000000 1.0
C      1  0.4762850000000  0.4338360000000  0.5218870000000 1.0
C      1  0.5290360000000  0.4854350000000  0.4824580000000 1.0
C      1  0.4880830000000  0.5464730000000  0.4200030000000 1.0
C      1  0.4308040000000  0.5362590000000  0.4930590000000 1.0
C      1  0.4322950000000  0.4935280000000  0.4669310000000 1.0
C      1  0.4113830000000  0.4923460000000  0.5067440000000 1.0
C      1  0.4876120000000  0.4537560000000  0.4340210000000 1.0
C      1  0.5184670000000  0.5159000000000  0.4181770000000 1.0
C      1  0.5158570000000  0.4389990000000  0.4652070000000 1.0
C      1  0.5486400000000  0.5663080000000  0.4821860000000 1.0
C      1  0.4505490000000  0.4386700000000  0.5309650000000 1.0
C      1  0.5638490000000  0.5482270000000  0.5271640000000 1.0
C      1  0.4901980000000  0.4260270000000  0.4718640000000 1.0
C      1  0.4603440000000  0.5557370000000  0.5260450000000 1.0
C      1  0.5038550000000  0.5523380000000  0.4442260000000 1.0
C      1  0.5445650000000  0.4777300000000  0.5594670000000 1.0
C      1  0.5495960000000  0.5673730000000  0.5108670000000 1.0
C      1  0.5147090000000  0.4876900000000  0.4173550000000 1.0
C      1  0.5254190000000  0.4573660000000  0.5686150000000 1.0
C      1  0.5532190000000  0.4800440000000  0.5289170000000 1.0
C      1  0.4266740000000  0.4699640000000  0.5453560000000 1.0
C      1  0.5804400000000  0.5301040000000  0.4850380000000 1.0
C      1  0.4452690000000  0.4457790000000  0.4608840000000 1.0
C      1  0.5401490000000  0.5284220000000  0.5695290000000 1.0
C      1  0.5368350000000  0.4999510000000  0.5759930000000 1.0
C      1  0.5120160000000  0.5316230000000  0.5666980000000 1.0
C      1  0.5123700000000  0.5101320000000  0.4747100000000 1.0
C      1  0.4168110000000  0.4647030000000  0.4988850000000 1.0
C      1  0.4483620000000  0.5496470000000  0.4742450000000 1.0
C      1  0.5094540000000  0.4952720000000  0.5880770000000 1.0
C      1  0.5553690000000  0.5421790000000  0.5522680000000 1.0
C      1  0.5155450000000  0.4384520000000  0.5506640000000 1.0
C      1  0.5766150000000  0.4972530000000  0.5173990000000 1.0
C      1  0.4302020000000  0.5206530000000  0.5409190000000 1.0
C      1  0.4727410000000  0.5136240000000  0.5053360000000 1.0
C      1  0.5017510000000  0.4687980000000  0.5811810000000 1.0
C      1  0.4685180000000  0.5010400000000  0.4293660000000 1.0
C      1  0.5445440000000  0.4281420000000  0.5124580000000 1.0
C      1  0.4998930000000  0.4812470000000  0.5210590000000 1.0
C      1  0.5067910000000  0.5426330000000  0.5145660000000 1.0
C      1  0.4296190000000  0.4648540000000  0.4726020000000 1.0
C      1  0.4931490000000  0.4541600000000  0.5382810000000 1.0
C      1  0.4849740000000  0.5050260000000  0.5312540000000 1.0
END
