TITL C-166693-8468-5 138.447728048815 125000 -889.473187038373 0 0 128 (C1) n - 1
REM
REM in /rds/project/t2_vol4/rds-t2-cs072/BORA/CARBON/from-Arr/AIRSS/Generating-Clusters/GAP-ML-2020/Only-C1/SD-CG/HFTN-CG
REM
REM
REM
REM
REM
REM ./C.cell (11c1c37f851c82e70ff6c80c92926a4b)
REM AIRSS Version 0.9.1 bugfix July 2018 build 013d7b7c2542+ Fri, 06 Jul 2018 19:26:36 +0100
REM compiler GCC version 9.3.0
REM options -cpp -mtune=generic -march=x86-64 -g -O0
REM seed 1804053935 -1478800780 -1305235097 1955433399 -2064368730 -1238537564 -501266820 1311576244 264408933 773938362 -1192829769 -2082117100 206850360 2073838460 1240652906 677909292 -735188991 -1630728058 920877437 -333046119 1898013015 -1934116099 734952397 -1693462894 2120387446 578653510 -805602775 1884586430 -538867023 -1816522403 621040910 -840506955 -813922780
REM
CELL 1.54180   50.00000   50.00000   50.00000   90.00000   90.00000   90.00000
LATT -1
SFAC C  
C      1  0.5679510000000  0.5586810000000  0.4676350000000 1.0
C      1  0.4873460000000  0.4560220000000  0.5139210000000 1.0
C      1  0.5458650000000  0.5230820000000  0.5888470000000 1.0
C      1  0.5416650000000  0.4147570000000  0.5408280000000 1.0
C      1  0.5295660000000  0.4291710000000  0.4426250000000 1.0
C      1  0.4920620000000  0.5149940000000  0.4849910000000 1.0
C      1  0.5381200000000  0.4489310000000  0.5810880000000 1.0
C      1  0.4437740000000  0.4264360000000  0.5323040000000 1.0
C      1  0.4388720000000  0.5751970000000  0.5135430000000 1.0
C      1  0.5260700000000  0.5115190000000  0.5463480000000 1.0
C      1  0.4351330000000  0.4855560000000  0.5628780000000 1.0
C      1  0.4670120000000  0.5875130000000  0.4690800000000 1.0
C      1  0.4162050000000  0.5301150000000  0.5096910000000 1.0
C      1  0.5912680000000  0.5495130000000  0.4782710000000 1.0
C      1  0.5032180000000  0.5309110000000  0.5887860000000 1.0
C      1  0.4649300000000  0.5062900000000  0.4218710000000 1.0
C      1  0.4329150000000  0.5389140000000  0.5516010000000 1.0
C      1  0.5078250000000  0.5912960000000  0.5312020000000 1.0
C      1  0.5127190000000  0.5140100000000  0.4347080000000 1.0
C      1  0.4673690000000  0.4202130000000  0.4828340000000 1.0
C      1  0.4121050000000  0.4904140000000  0.4849530000000 1.0
C      1  0.5474480000000  0.5465490000000  0.5707370000000 1.0
C      1  0.5501880000000  0.5041120000000  0.5011810000000 1.0
C      1  0.5895200000000  0.5022670000000  0.4665530000000 1.0
C      1  0.4589710000000  0.5438260000000  0.4803930000000 1.0
C      1  0.4813720000000  0.5015610000000  0.5334860000000 1.0
C      1  0.4532910000000  0.5007350000000  0.5774950000000 1.0
C      1  0.4913040000000  0.5991970000000  0.4629120000000 1.0
C      1  0.4724960000000  0.4510220000000  0.4887620000000 1.0
C      1  0.5686440000000  0.5451940000000  0.5247920000000 1.0
C      1  0.5485980000000  0.4752640000000  0.5703800000000 1.0
C      1  0.5925210000000  0.4758470000000  0.5259640000000 1.0
C      1  0.4333200000000  0.5545620000000  0.4481710000000 1.0
C      1  0.5311070000000  0.5926050000000  0.4751400000000 1.0
C      1  0.5750460000000  0.5144140000000  0.4444210000000 1.0
C      1  0.5223030000000  0.5178650000000  0.6036600000000 1.0
C      1  0.4871770000000  0.4624670000000  0.4653550000000 1.0
C      1  0.5744060000000  0.4983220000000  0.4227290000000 1.0
C      1  0.5320360000000  0.5752200000000  0.5329920000000 1.0
C      1  0.5250570000000  0.4822190000000  0.5506540000000 1.0
C      1  0.5272820000000  0.5399280000000  0.4997000000000 1.0
C      1  0.4101250000000  0.4684030000000  0.5273950000000 1.0
C      1  0.4293980000000  0.4491070000000  0.5362370000000 1.0
C      1  0.5474670000000  0.5617350000000  0.5109910000000 1.0
C      1  0.4054480000000  0.5313960000000  0.4637970000000 1.0
C      1  0.5242510000000  0.4461920000000  0.4221440000000 1.0
C      1  0.4610840000000  0.5152760000000  0.4831790000000 1.0
C      1  0.5923880000000  0.5227810000000  0.4864970000000 1.0
C      1  0.4788990000000  0.5292200000000  0.5484080000000 1.0
C      1  0.5143070000000  0.5862640000000  0.4512990000000 1.0
C      1  0.5712840000000  0.4596570000000  0.4514020000000 1.0
C      1  0.4031000000000  0.5163220000000  0.4875120000000 1.0
C      1  0.4367880000000  0.4289140000000  0.4485340000000 1.0
C      1  0.4911990000000  0.6001280000000  0.5094280000000 1.0
C      1  0.5874660000000  0.5018610000000  0.5341890000000 1.0
C      1  0.5804650000000  0.4652810000000  0.5002140000000 1.0
C      1  0.5365720000000  0.4702060000000  0.4176730000000 1.0
C      1  0.5354650000000  0.4278910000000  0.4934710000000 1.0
C      1  0.5503820000000  0.4306970000000  0.5642570000000 1.0
C      1  0.4369590000000  0.4223040000000  0.4772290000000 1.0
C      1  0.5123940000000  0.4736530000000  0.4751940000000 1.0
C      1  0.4804490000000  0.4175460000000  0.4548240000000 1.0
C      1  0.5268770000000  0.5155810000000  0.5183230000000 1.0
C      1  0.4553870000000  0.4727180000000  0.4959930000000 1.0
C      1  0.4074900000000  0.4659720000000  0.4991310000000 1.0
C      1  0.4611560000000  0.5618070000000  0.4543200000000 1.0
C      1  0.4541260000000  0.5264230000000  0.5656850000000 1.0
C      1  0.5133130000000  0.4120030000000  0.4844400000000 1.0
C      1  0.4909850000000  0.4085930000000  0.5282740000000 1.0
C      1  0.4657800000000  0.5853540000000  0.4990990000000 1.0
C      1  0.4430700000000  0.4900380000000  0.4754150000000 1.0
C      1  0.5370480000000  0.4554220000000  0.4808230000000 1.0
C      1  0.5623040000000  0.5020990000000  0.5786000000000 1.0
C      1  0.4492600000000  0.4678600000000  0.5450010000000 1.0
C      1  0.4690410000000  0.4629790000000  0.4398100000000 1.0
C      1  0.4454260000000  0.5610230000000  0.5373980000000 1.0
C      1  0.5858300000000  0.4741520000000  0.4716400000000 1.0
C      1  0.5523220000000  0.5764610000000  0.4847610000000 1.0
C      1  0.4761900000000  0.4805400000000  0.4158290000000 1.0
C      1  0.5146200000000  0.5037530000000  0.4666480000000 1.0
C      1  0.5508690000000  0.4411490000000  0.4594720000000 1.0
C      1  0.4851630000000  0.5253860000000  0.4270140000000 1.0
C      1  0.4928500000000  0.4789780000000  0.5561880000000 1.0
C      1  0.4414630000000  0.4773420000000  0.4485100000000 1.0
C      1  0.4560180000000  0.4898520000000  0.5209920000000 1.0
C      1  0.5862760000000  0.4511170000000  0.5391670000000 1.0
C      1  0.4952740000000  0.5062630000000  0.5989140000000 1.0
C      1  0.5788050000000  0.5140340000000  0.5585040000000 1.0
C      1  0.4228890000000  0.4535200000000  0.4539320000000 1.0
C      1  0.5769400000000  0.4386220000000  0.5146230000000 1.0
C      1  0.4138680000000  0.5215410000000  0.5383550000000 1.0
C      1  0.5180470000000  0.4921120000000  0.4127970000000 1.0
C      1  0.5086220000000  0.4152480000000  0.4565850000000 1.0
C      1  0.5685330000000  0.4531120000000  0.5601770000000 1.0
C      1  0.4890820000000  0.4071410000000  0.4995160000000 1.0
C      1  0.5228380000000  0.5581670000000  0.5559310000000 1.0
C      1  0.5768940000000  0.5187900000000  0.5118840000000 1.0
C      1  0.5075050000000  0.6055660000000  0.4868060000000 1.0
C      1  0.4962980000000  0.5723130000000  0.5488410000000 1.0
C      1  0.4480410000000  0.5156830000000  0.5102940000000 1.0
C      1  0.4199270000000  0.5585450000000  0.5001360000000 1.0
C      1  0.4630260000000  0.4327970000000  0.4384410000000 1.0
C      1  0.4241680000000  0.5271270000000  0.4418290000000 1.0
C      1  0.5688580000000  0.5407710000000  0.5526840000000 1.0
C      1  0.4832600000000  0.5521940000000  0.4352730000000 1.0
C      1  0.5159590000000  0.4061330000000  0.5380560000000 1.0
C      1  0.5637130000000  0.4737120000000  0.4275640000000 1.0
C      1  0.4136870000000  0.4932320000000  0.5441840000000 1.0
C      1  0.4703960000000  0.4257290000000  0.5409520000000 1.0
C      1  0.4967440000000  0.4825310000000  0.3981680000000 1.0
C      1  0.5392420000000  0.5194090000000  0.4775030000000 1.0
C      1  0.4174120000000  0.4448670000000  0.4818510000000 1.0
C      1  0.5510600000000  0.4738870000000  0.5016700000000 1.0
C      1  0.4770750000000  0.5563670000000  0.5024460000000 1.0
C      1  0.5107160000000  0.5613480000000  0.4383170000000 1.0
C      1  0.5071710000000  0.5320410000000  0.5593820000000 1.0
C      1  0.4999760000000  0.5428070000000  0.4910580000000 1.0
C      1  0.4801140000000  0.4900810000000  0.5818750000000 1.0
C      1  0.5076360000000  0.4743660000000  0.5071090000000 1.0
C      1  0.4743570000000  0.5554400000000  0.5353190000000 1.0
C      1  0.4151810000000  0.5575450000000  0.4710660000000 1.0
C      1  0.4383050000000  0.5039320000000  0.4331750000000 1.0
C      1  0.5533390000000  0.4235150000000  0.5151510000000 1.0
C      1  0.4769800000000  0.4555330000000  0.5434680000000 1.0
C      1  0.5291530000000  0.5395450000000  0.4370310000000 1.0
C      1  0.5306070000000  0.4686470000000  0.5240470000000 1.0
C      1  0.5014440000000  0.5026470000000  0.5119140000000 1.0
C      1  0.5540250000000  0.5349930000000  0.4532820000000 1.0
END
