TITL C-160257-8312-6 -0.0483750774950962 125000 -279.711784984904 0 0 41 (C1) n - 1
REM
REM in /rds/project/t2_vol4/rds-t2-cs072/BORA/CARBON/from-Arr/AIRSS/Generating-Clusters/GAP-ML-2020/Only-C1/SD-CG/HFTN-CG
REM
REM
REM
REM
REM
REM ./C.cell (11c1c37f851c82e70ff6c80c92926a4b)
REM AIRSS Version 0.9.1 bugfix July 2018 build 013d7b7c2542+ Fri, 06 Jul 2018 19:26:36 +0100
REM compiler GCC version 9.3.0
REM options -cpp -mtune=generic -march=x86-64 -g -O0
REM seed -104150179 -1885563416 -2132386017 -632808053 125049294 151586808 1548680263 -1013738374 -1635598491 -722583290 1393749295 1273502307 1635587037 -1801965531 273712144 2081415069 -1605966764 -1134797009 -441809461 391625848 1583324617 -662905668 1404154371 1375090749 -1129500852 -799905567 -143278818 -710469171 -2027391130 1109906189 -251442577 -610081794 -708985183
REM
CELL 1.54180   50.00000   50.00000   50.00000   90.00000   90.00000   90.00000
LATT -1
SFAC C  
C      1  0.5137800000000  0.5307360000000  0.4578420000000 1.0
C      1  0.4877860000000  0.5156770000000  0.4989910000000 1.0
C      1  0.5288560000000  0.4852050000000  0.4583050000000 1.0
C      1  0.5339980000000  0.4548610000000  0.4973620000000 1.0
C      1  0.4673400000000  0.4543020000000  0.4779010000000 1.0
C      1  0.4574900000000  0.5263210000000  0.5330030000000 1.0
C      1  0.4479590000000  0.4932650000000  0.4993530000000 1.0
C      1  0.5448760000000  0.4735580000000  0.4794460000000 1.0
C      1  0.5536030000000  0.5194920000000  0.4808460000000 1.0
C      1  0.4622760000000  0.4562160000000  0.5272380000000 1.0
C      1  0.4584290000000  0.5523080000000  0.5446520000000 1.0
C      1  0.5012420000000  0.5397800000000  0.5165760000000 1.0
C      1  0.4948850000000  0.4854690000000  0.5031980000000 1.0
C      1  0.5137060000000  0.5566680000000  0.4711090000000 1.0
C      1  0.5163510000000  0.5209600000000  0.5356250000000 1.0
C      1  0.5354420000000  0.5136810000000  0.4589200000000 1.0
C      1  0.5068790000000  0.4741230000000  0.5325500000000 1.0
C      1  0.4789960000000  0.4943710000000  0.4588270000000 1.0
C      1  0.5577830000000  0.4957930000000  0.5213560000000 1.0
C      1  0.4703810000000  0.5022740000000  0.5408810000000 1.0
C      1  0.5430000000000  0.5202900000000  0.5264540000000 1.0
C      1  0.5104580000000  0.4420620000000  0.4897510000000 1.0
C      1  0.4557150000000  0.4824930000000  0.5249510000000 1.0
C      1  0.4992770000000  0.4995770000000  0.5445480000000 1.0
C      1  0.4508850000000  0.5421110000000  0.4844940000000 1.0
C      1  0.4893070000000  0.5672770000000  0.4629410000000 1.0
C      1  0.4880190000000  0.5202120000000  0.4681710000000 1.0
C      1  0.4810960000000  0.5548760000000  0.5325370000000 1.0
C      1  0.5448380000000  0.5368590000000  0.5018180000000 1.0
C      1  0.5576930000000  0.4732070000000  0.5368490000000 1.0
C      1  0.5017600000000  0.4762690000000  0.4552020000000 1.0
C      1  0.5342100000000  0.4649970000000  0.5255060000000 1.0
C      1  0.4663430000000  0.4420780000000  0.5027230000000 1.0
C      1  0.4903630000000  0.4501890000000  0.5346010000000 1.0
C      1  0.5598910000000  0.4944730000000  0.4924540000000 1.0
C      1  0.5215760000000  0.5521700000000  0.4981900000000 1.0
C      1  0.4948850000000  0.4516700000000  0.4677210000000 1.0
C      1  0.4718710000000  0.5468570000000  0.4683440000000 1.0
C      1  0.4550370000000  0.5212420000000  0.5030500000000 1.0
C      1  0.4929390000000  0.4349330000000  0.5105160000000 1.0
C      1  0.4587750000000  0.4810950000000  0.4751960000000 1.0
END
