TITL C-162433-4055-9 0.0312050074670289 125000 -620.760205809652 0 0 89 (C1) n - 1
REM
REM in /rds/project/t2_vol4/rds-t2-cs072/BORA/CARBON/from-Arr/AIRSS/Generating-Clusters/GAP-ML-2020/Only-C1/SD-CG/HFTN-CG
REM
REM
REM
REM
REM
REM ./C.cell (11c1c37f851c82e70ff6c80c92926a4b)
REM AIRSS Version 0.9.1 bugfix July 2018 build 013d7b7c2542+ Fri, 06 Jul 2018 19:26:36 +0100
REM compiler GCC version 9.3.0
REM options -cpp -mtune=generic -march=x86-64 -g -O0
REM seed -1777471710 1423363421 688002954 1089668515 -1100271870 1865941509 -1148705217 -46519535 729073969 1851134165 1465589588 940465412 -1831762477 -1294158167 -1482362996 1804294549 -550703552 763820357 -989830721 -905332538 841346592 1688426791 1051595047 -513154497 860673748 -935539870 -1390677647 -25875632 -190619029 1184164538 1183671212 -2145453786 -1812837593
REM
CELL 1.54180   50.00000   50.00000   50.00000   90.00000   90.00000   90.00000
LATT -1
SFAC C  
C      1  0.4533630000000  0.4203900000000  0.5290840000000 1.0
C      1  0.5434050000000  0.4239010000000  0.5075210000000 1.0
C      1  0.5553810000000  0.5476660000000  0.5053270000000 1.0
C      1  0.4793710000000  0.4582820000000  0.5403330000000 1.0
C      1  0.4852470000000  0.5604540000000  0.5674110000000 1.0
C      1  0.5291230000000  0.4308410000000  0.4820030000000 1.0
C      1  0.5071040000000  0.5756260000000  0.4691920000000 1.0
C      1  0.4833990000000  0.5646620000000  0.4542880000000 1.0
C      1  0.4331840000000  0.4884820000000  0.4666490000000 1.0
C      1  0.5433810000000  0.4281800000000  0.5372980000000 1.0
C      1  0.5100060000000  0.5769260000000  0.4976950000000 1.0
C      1  0.4576750000000  0.5647830000000  0.5096290000000 1.0
C      1  0.4697780000000  0.4617890000000  0.4898570000000 1.0
C      1  0.4576170000000  0.5521080000000  0.4606430000000 1.0
C      1  0.5379750000000  0.5031170000000  0.4251500000000 1.0
C      1  0.5688650000000  0.5494600000000  0.4807570000000 1.0
C      1  0.4607160000000  0.5509540000000  0.5587040000000 1.0
C      1  0.5558850000000  0.5630930000000  0.4586940000000 1.0
C      1  0.5545190000000  0.5236920000000  0.5239940000000 1.0
C      1  0.4442340000000  0.5530780000000  0.4861280000000 1.0
C      1  0.4315840000000  0.4639510000000  0.5144480000000 1.0
C      1  0.5074680000000  0.4825100000000  0.5758750000000 1.0
C      1  0.5255850000000  0.4602810000000  0.5695470000000 1.0
C      1  0.4858140000000  0.4992460000000  0.4209550000000 1.0
C      1  0.4228850000000  0.5032170000000  0.4888390000000 1.0
C      1  0.4335570000000  0.4450900000000  0.4922240000000 1.0
C      1  0.4458190000000  0.5535610000000  0.5335770000000 1.0
C      1  0.4782010000000  0.5270080000000  0.4258910000000 1.0
C      1  0.4935720000000  0.5506060000000  0.4309890000000 1.0
C      1  0.5241170000000  0.5147460000000  0.5260080000000 1.0
C      1  0.5654360000000  0.4474690000000  0.5346380000000 1.0
C      1  0.5147190000000  0.4651030000000  0.4391310000000 1.0
C      1  0.5009540000000  0.5283300000000  0.5376340000000 1.0
C      1  0.4788070000000  0.5089120000000  0.5463320000000 1.0
C      1  0.4843330000000  0.4837980000000  0.4780290000000 1.0
C      1  0.5734710000000  0.4857350000000  0.4904410000000 1.0
C      1  0.5731990000000  0.4987310000000  0.4639340000000 1.0
C      1  0.5100410000000  0.5486800000000  0.5590290000000 1.0
C      1  0.4862160000000  0.5017180000000  0.4998190000000 1.0
C      1  0.5764600000000  0.5266590000000  0.4623000000000 1.0
C      1  0.5126230000000  0.4891220000000  0.4222490000000 1.0
C      1  0.4273420000000  0.5336440000000  0.5244660000000 1.0
C      1  0.5259220000000  0.5006980000000  0.4790440000000 1.0
C      1  0.5294760000000  0.5699860000000  0.4520100000000 1.0
C      1  0.4450740000000  0.4611170000000  0.4703220000000 1.0
C      1  0.4440520000000  0.4530020000000  0.5684910000000 1.0
C      1  0.5418990000000  0.5319140000000  0.4258280000000 1.0
C      1  0.5678280000000  0.4965100000000  0.5175110000000 1.0
C      1  0.4617720000000  0.4700220000000  0.5180810000000 1.0
C      1  0.4372370000000  0.5036450000000  0.5596700000000 1.0
C      1  0.5437520000000  0.4615320000000  0.4446420000000 1.0
C      1  0.4577850000000  0.5231610000000  0.5611780000000 1.0
C      1  0.5289650000000  0.5022950000000  0.5739890000000 1.0
C      1  0.4934050000000  0.4464390000000  0.4473720000000 1.0
C      1  0.4557820000000  0.5283630000000  0.4430340000000 1.0
C      1  0.5340320000000  0.5662330000000  0.5136850000000 1.0
C      1  0.5683390000000  0.4390360000000  0.5074210000000 1.0
C      1  0.4459830000000  0.5010750000000  0.4448770000000 1.0
C      1  0.5258650000000  0.4686630000000  0.5197480000000 1.0
C      1  0.5489440000000  0.4472730000000  0.4680000000000 1.0
C      1  0.4275500000000  0.5318840000000  0.4959770000000 1.0
C      1  0.5085480000000  0.4828910000000  0.4649660000000 1.0
C      1  0.5324230000000  0.5300120000000  0.5709930000000 1.0
C      1  0.5638950000000  0.5409780000000  0.4409630000000 1.0
C      1  0.4589480000000  0.4369880000000  0.5501820000000 1.0
C      1  0.5011970000000  0.4308560000000  0.4725090000000 1.0
C      1  0.5562780000000  0.4869570000000  0.4412990000000 1.0
C      1  0.4541790000000  0.4247240000000  0.5024040000000 1.0
C      1  0.5228180000000  0.4366960000000  0.5538070000000 1.0
C      1  0.5559360000000  0.4755680000000  0.5358860000000 1.0
C      1  0.5683240000000  0.4575930000000  0.4868060000000 1.0
C      1  0.4933340000000  0.5282310000000  0.4907140000000 1.0
C      1  0.4507210000000  0.4794930000000  0.5668860000000 1.0
C      1  0.5070140000000  0.4510010000000  0.5345010000000 1.0
C      1  0.4812890000000  0.4824840000000  0.5607340000000 1.0
C      1  0.4858130000000  0.5704220000000  0.5110080000000 1.0
C      1  0.5170400000000  0.4936230000000  0.5083290000000 1.0
C      1  0.4644000000000  0.4831140000000  0.4314230000000 1.0
C      1  0.4192850000000  0.4895560000000  0.5135180000000 1.0
C      1  0.4673260000000  0.4986200000000  0.5202280000000 1.0
C      1  0.5456590000000  0.4803370000000  0.5632490000000 1.0
C      1  0.4663710000000  0.4582470000000  0.4448920000000 1.0
C      1  0.5216800000000  0.5525540000000  0.4302570000000 1.0
C      1  0.4906840000000  0.5425760000000  0.5145280000000 1.0
C      1  0.4223660000000  0.5078570000000  0.5357340000000 1.0
C      1  0.5170640000000  0.5267360000000  0.4752770000000 1.0
C      1  0.4781070000000  0.4331540000000  0.4890270000000 1.0
C      1  0.5327490000000  0.5609160000000  0.5419110000000 1.0
C      1  0.5504620000000  0.5393670000000  0.5503770000000 1.0
END
