TITL C-161228-4995-10 40.5910022969636 125000 -397.214501660016 0 0 59 (C1) n - 1
REM
REM in /rds/project/t2_vol4/rds-t2-cs072/BORA/CARBON/from-Arr/AIRSS/Generating-Clusters/GAP-ML-2020/Only-C1/SD-CG/HFTN-CG
REM
REM
REM
REM
REM
REM ./C.cell (11c1c37f851c82e70ff6c80c92926a4b)
REM AIRSS Version 0.9.1 bugfix July 2018 build 013d7b7c2542+ Fri, 06 Jul 2018 19:26:36 +0100
REM compiler GCC version 9.3.0
REM options -cpp -mtune=generic -march=x86-64 -g -O0
REM seed -1823189743 967627559 -637367935 -998397563 -1530729490 -236322889 1865354545 -215208713 113604052 838681591 1515696686 -2084379359 -1483651335 -451262038 2025424150 -1287809087 -1615194622 -2105193256 1963019906 980069614 -483105567 -232755002 977770652 540290217 1473836211 1109573514 609398958 1020253323 1331284836 1440905296 1271421466 -254779173 349336080
REM
CELL 1.54180   50.00000   50.00000   50.00000   90.00000   90.00000   90.00000
LATT -1
SFAC C  
C      1  0.5309210000000  0.4864600000000  0.4881930000000 1.0
C      1  0.5031900000000  0.5217920000000  0.5279260000000 1.0
C      1  0.4851320000000  0.5295430000000  0.4886370000000 1.0
C      1  0.4692290000000  0.5712650000000  0.4882690000000 1.0
C      1  0.5197970000000  0.4548610000000  0.5508880000000 1.0
C      1  0.4305970000000  0.4799920000000  0.4958080000000 1.0
C      1  0.4328500000000  0.4802930000000  0.5254390000000 1.0
C      1  0.5511550000000  0.4649880000000  0.4722210000000 1.0
C      1  0.5231770000000  0.4805980000000  0.5632200000000 1.0
C      1  0.5563150000000  0.5036150000000  0.5300410000000 1.0
C      1  0.5204690000000  0.4809610000000  0.4336440000000 1.0
C      1  0.4810020000000  0.4558810000000  0.4484910000000 1.0
C      1  0.5242890000000  0.5391990000000  0.5127690000000 1.0
C      1  0.4418360000000  0.5280610000000  0.4875200000000 1.0
C      1  0.5591070000000  0.4449570000000  0.4895300000000 1.0
C      1  0.5201220000000  0.5631070000000  0.5306990000000 1.0
C      1  0.4753030000000  0.5664730000000  0.5161110000000 1.0
C      1  0.4859860000000  0.4397980000000  0.5157990000000 1.0
C      1  0.4973250000000  0.5773000000000  0.4852630000000 1.0
C      1  0.4637080000000  0.5462040000000  0.4738870000000 1.0
C      1  0.5143150000000  0.5216090000000  0.5558620000000 1.0
C      1  0.5361950000000  0.4547230000000  0.5284180000000 1.0
C      1  0.5301310000000  0.4609180000000  0.4519110000000 1.0
C      1  0.5071910000000  0.5616390000000  0.4630020000000 1.0
C      1  0.5335210000000  0.5270840000000  0.4642000000000 1.0
C      1  0.5489850000000  0.5242570000000  0.5114620000000 1.0
C      1  0.4748420000000  0.4881900000000  0.5104780000000 1.0
C      1  0.5044520000000  0.4500710000000  0.4966770000000 1.0
C      1  0.4825000000000  0.5450180000000  0.4511430000000 1.0
C      1  0.4515150000000  0.5014700000000  0.5262020000000 1.0
C      1  0.5002070000000  0.4966660000000  0.5701890000000 1.0
C      1  0.5199350000000  0.4718760000000  0.5102850000000 1.0
C      1  0.5337890000000  0.5542440000000  0.4541540000000 1.0
C      1  0.4767470000000  0.4833680000000  0.5713930000000 1.0
C      1  0.4897900000000  0.5208730000000  0.4382690000000 1.0
C      1  0.4789040000000  0.4997070000000  0.4241090000000 1.0
C      1  0.5150230000000  0.5072810000000  0.4491800000000 1.0
C      1  0.5669510000000  0.4891110000000  0.4854000000000 1.0
C      1  0.5125300000000  0.5398330000000  0.4855160000000 1.0
C      1  0.5689720000000  0.4829140000000  0.5135350000000 1.0
C      1  0.4927530000000  0.4481110000000  0.5431550000000 1.0
C      1  0.4576100000000  0.4440580000000  0.5125240000000 1.0
C      1  0.4581550000000  0.4532930000000  0.4630730000000 1.0
C      1  0.4461730000000  0.4558340000000  0.4871230000000 1.0
C      1  0.5060710000000  0.4894610000000  0.4725320000000 1.0
C      1  0.5156570000000  0.5501930000000  0.5556780000000 1.0
C      1  0.4777050000000  0.5369400000000  0.5176650000000 1.0
C      1  0.4481090000000  0.4580800000000  0.5353140000000 1.0
C      1  0.4503630000000  0.5266870000000  0.5157490000000 1.0
C      1  0.4288150000000  0.5047420000000  0.4826870000000 1.0
C      1  0.4703130000000  0.4614140000000  0.5547480000000 1.0
C      1  0.5609680000000  0.4550090000000  0.5163560000000 1.0
C      1  0.4847890000000  0.5007580000000  0.4880000000000 1.0
C      1  0.4904900000000  0.4754680000000  0.4286210000000 1.0
C      1  0.5036010000000  0.4582140000000  0.4682910000000 1.0
C      1  0.5382290000000  0.5023210000000  0.5516770000000 1.0
C      1  0.5502010000000  0.5128080000000  0.4849100000000 1.0
C      1  0.5019180000000  0.5779610000000  0.5146010000000 1.0
C      1  0.5000800000000  0.4924500000000  0.5215560000000 1.0
END
