TITL C-162423-34-4 -45.049145399442 125000 -443.861477408165 0 0 65 (C1) n - 1
REM
REM in /rds/project/t2_vol4/rds-t2-cs072/BORA/CARBON/from-Arr/AIRSS/Generating-Clusters/GAP-ML-2020/Only-C1/SD-CG/HFTN-CG
REM
REM
REM
REM
REM
REM ./C.cell (11c1c37f851c82e70ff6c80c92926a4b)
REM AIRSS Version 0.9.1 bugfix July 2018 build 013d7b7c2542+ Fri, 06 Jul 2018 19:26:36 +0100
REM compiler GCC version 9.3.0
REM options -cpp -mtune=generic -march=x86-64 -g -O0
REM seed -1775530915 1725250561 1806835263 2008769053 -234678898 -612880710 625457866 368607327 624068751 695022353 1201790294 -389630506 1115444251 1121529406 -552028028 937836474 1137748798 -690858555 470071574 -1372947503 -746977347 -2094369763 -236469418 -1874644129 1973256847 -398018617 -207922640 -1591314173 -1908240427 -757904217 -777468134 258529356 373438028
REM
CELL 1.54180   50.00000   50.00000   50.00000   90.00000   90.00000   90.00000
LATT -1
SFAC C  
C      1  0.4982720000000  0.4467070000000  0.4626560000000 1.0
C      1  0.4328770000000  0.5406670000000  0.5098880000000 1.0
C      1  0.5062860000000  0.4965180000000  0.5185960000000 1.0
C      1  0.4793720000000  0.5308360000000  0.5070190000000 1.0
C      1  0.5094570000000  0.4744980000000  0.5727720000000 1.0
C      1  0.4781230000000  0.5013310000000  0.5514720000000 1.0
C      1  0.4971900000000  0.4303260000000  0.5052620000000 1.0
C      1  0.5527740000000  0.4759660000000  0.5577770000000 1.0
C      1  0.4842900000000  0.4735150000000  0.5599070000000 1.0
C      1  0.4949820000000  0.5365250000000  0.4234920000000 1.0
C      1  0.5450520000000  0.5026740000000  0.5617320000000 1.0
C      1  0.5154540000000  0.4376920000000  0.4842030000000 1.0
C      1  0.5627600000000  0.4713010000000  0.5311400000000 1.0
C      1  0.5533310000000  0.4691510000000  0.4775250000000 1.0
C      1  0.5616730000000  0.4946570000000  0.4893360000000 1.0
C      1  0.4822600000000  0.4791200000000  0.4846750000000 1.0
C      1  0.5186020000000  0.5679220000000  0.5086390000000 1.0
C      1  0.5048160000000  0.5421730000000  0.5187030000000 1.0
C      1  0.4746130000000  0.5698990000000  0.4883920000000 1.0
C      1  0.5501130000000  0.5177780000000  0.5355580000000 1.0
C      1  0.5481960000000  0.4485060000000  0.5202110000000 1.0
C      1  0.4766420000000  0.5056490000000  0.5216840000000 1.0
C      1  0.5039490000000  0.4621630000000  0.4393280000000 1.0
C      1  0.5020900000000  0.4355010000000  0.5327420000000 1.0
C      1  0.4979930000000  0.5189330000000  0.5627150000000 1.0
C      1  0.5226270000000  0.5199440000000  0.5226030000000 1.0
C      1  0.4586990000000  0.4498680000000  0.5232900000000 1.0
C      1  0.4705630000000  0.4378510000000  0.4997860000000 1.0
C      1  0.5653760000000  0.4964330000000  0.5174350000000 1.0
C      1  0.4533650000000  0.5132060000000  0.4375820000000 1.0
C      1  0.4414200000000  0.4719580000000  0.5169880000000 1.0
C      1  0.4851570000000  0.4874280000000  0.4386080000000 1.0
C      1  0.5226060000000  0.4979740000000  0.4685370000000 1.0
C      1  0.5283440000000  0.4417230000000  0.5403410000000 1.0
C      1  0.5055700000000  0.5416610000000  0.5481810000000 1.0
C      1  0.5004390000000  0.5536080000000  0.4451430000000 1.0
C      1  0.4209010000000  0.4897970000000  0.5211510000000 1.0
C      1  0.4815630000000  0.5520770000000  0.4662110000000 1.0
C      1  0.4407660000000  0.5038480000000  0.4827020000000 1.0
C      1  0.5381310000000  0.4764790000000  0.4543160000000 1.0
C      1  0.4529890000000  0.5226660000000  0.4645590000000 1.0
C      1  0.4942330000000  0.5839780000000  0.5007530000000 1.0
C      1  0.4240140000000  0.5140080000000  0.5054710000000 1.0
C      1  0.5256330000000  0.5579150000000  0.4576260000000 1.0
C      1  0.5465780000000  0.5144750000000  0.4743810000000 1.0
C      1  0.5462260000000  0.5425690000000  0.4703760000000 1.0
C      1  0.4546410000000  0.4833270000000  0.4402820000000 1.0
C      1  0.4789450000000  0.4503950000000  0.5436820000000 1.0
C      1  0.5304070000000  0.4634290000000  0.4317100000000 1.0
C      1  0.5527120000000  0.5471340000000  0.5401170000000 1.0
C      1  0.5384720000000  0.5695090000000  0.5311260000000 1.0
C      1  0.4918470000000  0.5003230000000  0.4652510000000 1.0
C      1  0.5326370000000  0.5636040000000  0.4830820000000 1.0
C      1  0.4605880000000  0.4900190000000  0.5023100000000 1.0
C      1  0.5310610000000  0.4585230000000  0.5631700000000 1.0
C      1  0.4343750000000  0.4820030000000  0.4631490000000 1.0
C      1  0.4795850000000  0.5256110000000  0.4761610000000 1.0
C      1  0.4570860000000  0.5512820000000  0.5063520000000 1.0
C      1  0.5299340000000  0.5562910000000  0.5536750000000 1.0
C      1  0.5101460000000  0.4824420000000  0.4953210000000 1.0
C      1  0.4713980000000  0.4514730000000  0.4738190000000 1.0
C      1  0.5185280000000  0.5021810000000  0.5737390000000 1.0
C      1  0.5421630000000  0.4474620000000  0.4924950000000 1.0
C      1  0.4801340000000  0.5150760000000  0.4257320000000 1.0
C      1  0.4489790000000  0.4604360000000  0.4573650000000 1.0
END
