TITL C-166694-7624-2 -549.739153344386 125000 -341.984556492608 0 0 51 (C1) n - 1
REM
REM in /rds/project/t2_vol4/rds-t2-cs072/BORA/CARBON/from-Arr/AIRSS/Generating-Clusters/GAP-ML-2020/Only-C1/SD-CG/HFTN-CG
REM
REM
REM
REM
REM
REM ./C.cell (11c1c37f851c82e70ff6c80c92926a4b)
REM AIRSS Version 0.9.1 bugfix July 2018 build 013d7b7c2542+ Fri, 06 Jul 2018 19:26:36 +0100
REM compiler GCC version 9.3.0
REM options -cpp -mtune=generic -march=x86-64 -g -O0
REM seed 1158722919 -885077345 -1634674403 -3358106 -295992444 -1502049503 -1969507530 1832640472 44891005 -513719635 -669799421 -1818223630 2142950946 -1129648051 -822662252 -1012010521 1299973489 -1123427919 38761721 659214658 679026133 -393124425 -677623719 -1609221051 -1766845409 82747795 284038063 1343565591 -902084814 878821126 -1750800666 -1252058453 -972903518
REM
CELL 1.54180   50.00000   50.00000   50.00000   90.00000   90.00000   90.00000
LATT -1
SFAC C  
C      1  0.4738940000000  0.4721690000000  0.4455890000000 1.0
C      1  0.4626290000000  0.5479670000000  0.4976280000000 1.0
C      1  0.4713200000000  0.4666610000000  0.5441080000000 1.0
C      1  0.5114380000000  0.5557030000000  0.5319910000000 1.0
C      1  0.4486740000000  0.5267260000000  0.4842520000000 1.0
C      1  0.5271670000000  0.4929520000000  0.4635450000000 1.0
C      1  0.5251280000000  0.4423380000000  0.5214890000000 1.0
C      1  0.5022440000000  0.5084960000000  0.5011480000000 1.0
C      1  0.4616330000000  0.5484380000000  0.5255620000000 1.0
C      1  0.4441530000000  0.4810670000000  0.4844340000000 1.0
C      1  0.4880030000000  0.5528210000000  0.4872070000000 1.0
C      1  0.5361660000000  0.4820160000000  0.5022080000000 1.0
C      1  0.4987190000000  0.4786050000000  0.5405370000000 1.0
C      1  0.5001620000000  0.4985830000000  0.4757030000000 1.0
C      1  0.4527130000000  0.5253140000000  0.5399960000000 1.0
C      1  0.4978070000000  0.5049930000000  0.5562280000000 1.0
C      1  0.5230680000000  0.5173540000000  0.5631780000000 1.0
C      1  0.4856290000000  0.5507950000000  0.5414950000000 1.0
C      1  0.5488820000000  0.4397840000000  0.5089320000000 1.0
C      1  0.5158940000000  0.5525730000000  0.5023570000000 1.0
C      1  0.5431260000000  0.5069870000000  0.4849760000000 1.0
C      1  0.5285460000000  0.5240170000000  0.5040610000000 1.0
C      1  0.5202950000000  0.5619460000000  0.4571580000000 1.0
C      1  0.4794320000000  0.5302180000000  0.4453660000000 1.0
C      1  0.5722400000000  0.5041720000000  0.4827360000000 1.0
C      1  0.5309500000000  0.5671970000000  0.4798670000000 1.0
C      1  0.4393450000000  0.5044500000000  0.4996980000000 1.0
C      1  0.5064630000000  0.4811640000000  0.5107110000000 1.0
C      1  0.4928010000000  0.5507470000000  0.4598190000000 1.0
C      1  0.5762490000000  0.4795720000000  0.4856560000000 1.0
C      1  0.4548820000000  0.4887740000000  0.4590690000000 1.0
C      1  0.5446080000000  0.4741010000000  0.5540240000000 1.0
C      1  0.5113520000000  0.4494770000000  0.4720660000000 1.0
C      1  0.5027160000000  0.4514400000000  0.5013110000000 1.0
C      1  0.5452440000000  0.5222880000000  0.5309540000000 1.0
C      1  0.4751400000000  0.4460580000000  0.4884390000000 1.0
C      1  0.5450770000000  0.5010220000000  0.5517960000000 1.0
C      1  0.5299210000000  0.5403310000000  0.5473550000000 1.0
C      1  0.4514770000000  0.4566710000000  0.4983040000000 1.0
C      1  0.4847890000000  0.4519160000000  0.4622850000000 1.0
C      1  0.5182870000000  0.4973080000000  0.4350280000000 1.0
C      1  0.4392290000000  0.5039570000000  0.5285770000000 1.0
C      1  0.4948750000000  0.5129620000000  0.4297450000000 1.0
C      1  0.5536930000000  0.4599090000000  0.4894850000000 1.0
C      1  0.4781840000000  0.5250170000000  0.5546500000000 1.0
C      1  0.5343920000000  0.4639240000000  0.4677000000000 1.0
C      1  0.4513510000000  0.4564890000000  0.5268330000000 1.0
C      1  0.4459880000000  0.4790130000000  0.5413930000000 1.0
C      1  0.4929290000000  0.4858730000000  0.4299920000000 1.0
C      1  0.5233420000000  0.4602210000000  0.5441490000000 1.0
C      1  0.4577530000000  0.5174220000000  0.4592080000000 1.0
END
