TITL C-160278-8325-9 0.101856157466636 125000 -594.512994145358 0 0 85 (C1) n - 1
REM
REM in /rds/project/t2_vol4/rds-t2-cs072/BORA/CARBON/from-Arr/AIRSS/Generating-Clusters/GAP-ML-2020/Only-C1/SD-CG/HFTN-CG
REM
REM
REM
REM
REM
REM ./C.cell (11c1c37f851c82e70ff6c80c92926a4b)
REM AIRSS Version 0.9.1 bugfix July 2018 build 013d7b7c2542+ Fri, 06 Jul 2018 19:26:36 +0100
REM compiler GCC version 9.3.0
REM options -cpp -mtune=generic -march=x86-64 -g -O0
REM seed -272308332 264622640 -1084708256 1896212549 -710799188 -458274226 1979599914 -462507122 -281391191 -660533780 2017599060 513007537 2038906636 1825541255 944786287 1925364126 -542475978 -49521619 833959105 1875508966 1210576225 1567396849 -591684509 1210190863 -1398908517 974784098 1433440908 812092841 898795491 14888787 -1315033460 -138839423 -461463397
REM
CELL 1.54180   50.00000   50.00000   50.00000   90.00000   90.00000   90.00000
LATT -1
SFAC C  
C      1  0.5043130000000  0.4713620000000  0.4676530000000 1.0
C      1  0.5116460000000  0.4786540000000  0.4210000000000 1.0
C      1  0.5040980000000  0.5640700000000  0.5582070000000 1.0
C      1  0.5767140000000  0.5300510000000  0.4885260000000 1.0
C      1  0.5524300000000  0.4514500000000  0.4961040000000 1.0
C      1  0.4982140000000  0.4452010000000  0.5676700000000 1.0
C      1  0.4437490000000  0.4360550000000  0.5168890000000 1.0
C      1  0.4652560000000  0.4823980000000  0.4988030000000 1.0
C      1  0.4690410000000  0.4457230000000  0.5612530000000 1.0
C      1  0.4293990000000  0.5247380000000  0.4543410000000 1.0
C      1  0.4694070000000  0.4556740000000  0.4352980000000 1.0
C      1  0.4544190000000  0.5592010000000  0.4814160000000 1.0
C      1  0.4340470000000  0.4777050000000  0.4916580000000 1.0
C      1  0.4377900000000  0.4794200000000  0.4618010000000 1.0
C      1  0.4478420000000  0.4531350000000  0.4538840000000 1.0
C      1  0.4337270000000  0.5386760000000  0.4774710000000 1.0
C      1  0.5039510000000  0.5706920000000  0.4758190000000 1.0
C      1  0.5198190000000  0.4248870000000  0.5281720000000 1.0
C      1  0.4922430000000  0.5182240000000  0.5802960000000 1.0
C      1  0.4561300000000  0.4512920000000  0.5365920000000 1.0
C      1  0.5500610000000  0.4841400000000  0.5472720000000 1.0
C      1  0.4522540000000  0.4922810000000  0.5688680000000 1.0
C      1  0.4569340000000  0.5547330000000  0.5360740000000 1.0
C      1  0.5552980000000  0.4826760000000  0.4416220000000 1.0
C      1  0.5413370000000  0.4576700000000  0.5459140000000 1.0
C      1  0.4387840000000  0.5208810000000  0.4987710000000 1.0
C      1  0.4684360000000  0.5120970000000  0.4965040000000 1.0
C      1  0.5725030000000  0.5210250000000  0.5152540000000 1.0
C      1  0.4809600000000  0.5699610000000  0.5433580000000 1.0
C      1  0.5433460000000  0.4401150000000  0.4732510000000 1.0
C      1  0.5705980000000  0.4864860000000  0.4669970000000 1.0
C      1  0.5752750000000  0.5143880000000  0.4655660000000 1.0
C      1  0.5229350000000  0.4942880000000  0.4750320000000 1.0
C      1  0.5587950000000  0.5284000000000  0.4462030000000 1.0
C      1  0.4883420000000  0.4786400000000  0.4429630000000 1.0
C      1  0.4979190000000  0.4631830000000  0.4006230000000 1.0
C      1  0.5140590000000  0.5218850000000  0.5068750000000 1.0
C      1  0.5353970000000  0.5004720000000  0.5666860000000 1.0
C      1  0.5551920000000  0.5650970000000  0.5081700000000 1.0
C      1  0.5590040000000  0.4941610000000  0.5180020000000 1.0
C      1  0.5332420000000  0.4495950000000  0.5181420000000 1.0
C      1  0.4916500000000  0.4896530000000  0.5332020000000 1.0
C      1  0.5092960000000  0.4737230000000  0.5151100000000 1.0
C      1  0.5644380000000  0.5456080000000  0.5280080000000 1.0
C      1  0.5292470000000  0.4951380000000  0.5052500000000 1.0
C      1  0.4289110000000  0.4496780000000  0.4963310000000 1.0
C      1  0.5249470000000  0.4497770000000  0.4564930000000 1.0
C      1  0.5669840000000  0.4756960000000  0.4943180000000 1.0
C      1  0.5312340000000  0.5781030000000  0.5176290000000 1.0
C      1  0.5193050000000  0.5071860000000  0.4204390000000 1.0
C      1  0.5094130000000  0.4942710000000  0.5791950000000 1.0
C      1  0.4805090000000  0.5535230000000  0.4670970000000 1.0
C      1  0.4807100000000  0.4075110000000  0.5003660000000 1.0
C      1  0.4822610000000  0.5222370000000  0.4713600000000 1.0
C      1  0.4267900000000  0.4992510000000  0.5121270000000 1.0
C      1  0.5215390000000  0.5625460000000  0.4543440000000 1.0
C      1  0.5221650000000  0.4370650000000  0.5553140000000 1.0
C      1  0.5479960000000  0.5490940000000  0.5508050000000 1.0
C      1  0.5493970000000  0.5534830000000  0.4571240000000 1.0
C      1  0.5090700000000  0.5397470000000  0.5732820000000 1.0
C      1  0.4832480000000  0.5802930000000  0.5165380000000 1.0
C      1  0.4590860000000  0.5668200000000  0.5082990000000 1.0
C      1  0.5465600000000  0.5086370000000  0.4305060000000 1.0
C      1  0.5353140000000  0.5295440000000  0.5670420000000 1.0
C      1  0.5007550000000  0.5487770000000  0.4405550000000 1.0
C      1  0.4895830000000  0.5161290000000  0.5192330000000 1.0
C      1  0.4630890000000  0.4800610000000  0.5286840000000 1.0
C      1  0.5624950000000  0.5549090000000  0.4827860000000 1.0
C      1  0.4423150000000  0.5009350000000  0.5380910000000 1.0
C      1  0.4952260000000  0.4704830000000  0.5817500000000 1.0
C      1  0.5072950000000  0.5821680000000  0.5016790000000 1.0
C      1  0.4563130000000  0.4185670000000  0.4955190000000 1.0
C      1  0.4423720000000  0.4347510000000  0.4748120000000 1.0
C      1  0.5286740000000  0.5697750000000  0.5447160000000 1.0
C      1  0.4458260000000  0.5037360000000  0.4476190000000 1.0
C      1  0.4664590000000  0.4705030000000  0.5772540000000 1.0
C      1  0.4973980000000  0.5238370000000  0.4284840000000 1.0
C      1  0.5013990000000  0.4093580000000  0.5155070000000 1.0
C      1  0.4766170000000  0.5071470000000  0.4441760000000 1.0
C      1  0.4646470000000  0.5176760000000  0.5718900000000 1.0
C      1  0.4767990000000  0.4497330000000  0.4088140000000 1.0
C      1  0.4516110000000  0.5294110000000  0.5481980000000 1.0
C      1  0.5108380000000  0.5199010000000  0.4778470000000 1.0
C      1  0.5349720000000  0.4647190000000  0.4346640000000 1.0
C      1  0.4903360000000  0.4680580000000  0.4925460000000 1.0
END
