TITL C-166679-7364-4 15.2060065425346 125000 -733.789423646392 0 0 103 (C1) n - 1
REM
REM in /rds/project/t2_vol4/rds-t2-cs072/BORA/CARBON/from-Arr/AIRSS/Generating-Clusters/GAP-ML-2020/Only-C1/SD-CG/HFTN-CG
REM
REM
REM
REM
REM
REM ./C.cell (11c1c37f851c82e70ff6c80c92926a4b)
REM AIRSS Version 0.9.1 bugfix July 2018 build 013d7b7c2542+ Fri, 06 Jul 2018 19:26:36 +0100
REM compiler GCC version 9.3.0
REM options -cpp -mtune=generic -march=x86-64 -g -O0
REM seed 439387797 -635609739 -8006119 -1362146874 1038451287 -220980283 -1394839967 1396350428 241848494 1947718941 1581483543 486778794 1825728433 -1921115432 -1640788827 -367692597 1174059033 -240171667 -1561493549 1208804766 -1707294351 1598596047 377224358 877210612 1614218321 245084599 648780530 165713614 -439496892 2055826406 957565263 -626794222 -1130573726
REM
CELL 1.54180   50.00000   50.00000   50.00000   90.00000   90.00000   90.00000
LATT -1
SFAC C  
C      1  0.4280140000000  0.4614090000000  0.5266550000000 1.0
C      1  0.4933280000000  0.5094360000000  0.4236430000000 1.0
C      1  0.4232040000000  0.5429260000000  0.4769220000000 1.0
C      1  0.4740430000000  0.5267640000000  0.4813070000000 1.0
C      1  0.4811960000000  0.5001550000000  0.4787120000000 1.0
C      1  0.5237660000000  0.4681930000000  0.4345020000000 1.0
C      1  0.5313590000000  0.4532660000000  0.5773340000000 1.0
C      1  0.5822170000000  0.5013490000000  0.4647410000000 1.0
C      1  0.4680200000000  0.5975360000000  0.4915990000000 1.0
C      1  0.4938260000000  0.4278610000000  0.4467410000000 1.0
C      1  0.5900580000000  0.4961970000000  0.5106140000000 1.0
C      1  0.4221270000000  0.4951860000000  0.4640750000000 1.0
C      1  0.4796540000000  0.5329420000000  0.4307250000000 1.0
C      1  0.4422200000000  0.4410740000000  0.5093350000000 1.0
C      1  0.4437150000000  0.4625540000000  0.5505190000000 1.0
C      1  0.5533190000000  0.4693760000000  0.4413960000000 1.0
C      1  0.5123420000000  0.5619880000000  0.5351590000000 1.0
C      1  0.4449990000000  0.4133990000000  0.5511980000000 1.0
C      1  0.5612960000000  0.4501480000000  0.4610030000000 1.0
C      1  0.4733480000000  0.4947560000000  0.5731720000000 1.0
C      1  0.4722110000000  0.4853000000000  0.5013490000000 1.0
C      1  0.4763530000000  0.4255150000000  0.4692300000000 1.0
C      1  0.4887170000000  0.4414320000000  0.5565550000000 1.0
C      1  0.5087030000000  0.5028580000000  0.4689410000000 1.0
C      1  0.4948270000000  0.5563270000000  0.4402850000000 1.0
C      1  0.4885170000000  0.5455810000000  0.4913900000000 1.0
C      1  0.4564890000000  0.4513080000000  0.4352120000000 1.0
C      1  0.5806090000000  0.5443560000000  0.5236520000000 1.0
C      1  0.5082900000000  0.4549110000000  0.4806360000000 1.0
C      1  0.5804600000000  0.4822710000000  0.5337840000000 1.0
C      1  0.4503830000000  0.5276860000000  0.4373470000000 1.0
C      1  0.4401150000000  0.4155660000000  0.5257650000000 1.0
C      1  0.4375820000000  0.5483000000000  0.4520720000000 1.0
C      1  0.5177250000000  0.5000130000000  0.4396990000000 1.0
C      1  0.4748260000000  0.5373810000000  0.5540280000000 1.0
C      1  0.5377900000000  0.5280920000000  0.5692160000000 1.0
C      1  0.5532210000000  0.5653240000000  0.4875490000000 1.0
C      1  0.5283280000000  0.5742560000000  0.4764010000000 1.0
C      1  0.5603130000000  0.5633850000000  0.5153840000000 1.0
C      1  0.4986210000000  0.4635430000000  0.4174230000000 1.0
C      1  0.4593530000000  0.5194510000000  0.5707640000000 1.0
C      1  0.4165720000000  0.4798030000000  0.5091900000000 1.0
C      1  0.4656180000000  0.5019680000000  0.5249900000000 1.0
C      1  0.5330780000000  0.4351100000000  0.5547280000000 1.0
C      1  0.4361330000000  0.5210950000000  0.5287190000000 1.0
C      1  0.5886740000000  0.5244880000000  0.5046280000000 1.0
C      1  0.5688870000000  0.4928160000000  0.5584320000000 1.0
C      1  0.5131370000000  0.4740100000000  0.5272550000000 1.0
C      1  0.4912890000000  0.4353740000000  0.4943730000000 1.0
C      1  0.5043500000000  0.5384500000000  0.5142200000000 1.0
C      1  0.5276460000000  0.4999880000000  0.4905120000000 1.0
C      1  0.4883360000000  0.5196710000000  0.5336720000000 1.0
C      1  0.5219440000000  0.5582860000000  0.4521200000000 1.0
C      1  0.5649910000000  0.4426650000000  0.5063990000000 1.0
C      1  0.5822060000000  0.5271970000000  0.4768690000000 1.0
C      1  0.4324240000000  0.5608530000000  0.4980590000000 1.0
C      1  0.5092630000000  0.5920600000000  0.4873790000000 1.0
C      1  0.5408950000000  0.5675080000000  0.5359140000000 1.0
C      1  0.5236790000000  0.5014430000000  0.5673140000000 1.0
C      1  0.4171090000000  0.5079350000000  0.5097990000000 1.0
C      1  0.4819600000000  0.4414600000000  0.4254430000000 1.0
C      1  0.5034680000000  0.4586070000000  0.5783620000000 1.0
C      1  0.4641980000000  0.5597410000000  0.5387400000000 1.0
C      1  0.4864230000000  0.4619460000000  0.5353230000000 1.0
C      1  0.4355010000000  0.5162440000000  0.5576130000000 1.0
C      1  0.5303320000000  0.5520660000000  0.5565200000000 1.0
C      1  0.5201370000000  0.4740460000000  0.4984400000000 1.0
C      1  0.4659550000000  0.4812920000000  0.5477800000000 1.0
C      1  0.4783410000000  0.5775130000000  0.4500010000000 1.0
C      1  0.5873590000000  0.4823420000000  0.4856310000000 1.0
C      1  0.4544140000000  0.4793310000000  0.4280110000000 1.0
C      1  0.5408840000000  0.4279630000000  0.4985260000000 1.0
C      1  0.4891660000000  0.5940820000000  0.5107530000000 1.0
C      1  0.4868330000000  0.5775190000000  0.5331920000000 1.0
C      1  0.4873920000000  0.5956130000000  0.4695930000000 1.0
C      1  0.4992000000000  0.4875310000000  0.5800980000000 1.0
C      1  0.5174770000000  0.4436720000000  0.4551580000000 1.0
C      1  0.5830760000000  0.5383520000000  0.5509120000000 1.0
C      1  0.4580740000000  0.4370610000000  0.5572840000000 1.0
C      1  0.5402970000000  0.4332270000000  0.4695990000000 1.0
C      1  0.5642600000000  0.4958520000000  0.4436980000000 1.0
C      1  0.4411970000000  0.5509450000000  0.5236200000000 1.0
C      1  0.5644640000000  0.5472350000000  0.4682350000000 1.0
C      1  0.4329640000000  0.4460110000000  0.4811250000000 1.0
C      1  0.5658980000000  0.5211010000000  0.5631400000000 1.0
C      1  0.5656580000000  0.4582120000000  0.5294460000000 1.0
C      1  0.4466120000000  0.5812230000000  0.4839360000000 1.0
C      1  0.4802630000000  0.4859780000000  0.4162130000000 1.0
C      1  0.5391310000000  0.4610500000000  0.5414320000000 1.0
C      1  0.5137900000000  0.5024500000000  0.5367830000000 1.0
C      1  0.5766020000000  0.4563690000000  0.4837680000000 1.0
C      1  0.4729180000000  0.4544890000000  0.5094770000000 1.0
C      1  0.5113020000000  0.4237940000000  0.5413920000000 1.0
C      1  0.5145210000000  0.4234070000000  0.5123340000000 1.0
C      1  0.5443190000000  0.5149200000000  0.4378180000000 1.0
C      1  0.4195360000000  0.4711940000000  0.4813620000000 1.0
C      1  0.5447280000000  0.5412060000000  0.4481930000000 1.0
C      1  0.5269360000000  0.5178840000000  0.5129570000000 1.0
C      1  0.4393870000000  0.5004930000000  0.4406790000000 1.0
C      1  0.4511180000000  0.5725640000000  0.4565410000000 1.0
C      1  0.4514190000000  0.4379190000000  0.4613280000000 1.0
C      1  0.4163860000000  0.5167150000000  0.4824460000000 1.0
C      1  0.5443870000000  0.4792910000000  0.5664910000000 1.0
END
