TITL C-160252-8270-10 -0.0116994362204114 125000 -290.955145119506 0 0 43 (C1) n - 1
REM
REM in /rds/project/t2_vol4/rds-t2-cs072/BORA/CARBON/from-Arr/AIRSS/Generating-Clusters/GAP-ML-2020/Only-C1/SD-CG/HFTN-CG
REM
REM
REM
REM
REM
REM ./C.cell (11c1c37f851c82e70ff6c80c92926a4b)
REM AIRSS Version 0.9.1 bugfix July 2018 build 013d7b7c2542+ Fri, 06 Jul 2018 19:26:36 +0100
REM compiler GCC version 9.3.0
REM options -cpp -mtune=generic -march=x86-64 -g -O0
REM seed 875851300 -1894008574 35982846 1440419545 -1865437411 -1906013310 1554103837 -966499017 -1356749720 -999742222 -440973360 1964058162 -1126618292 -2139163433 707298518 -1602338333 -1354693549 -737525787 1137784661 -1939391262 -664768959 893515864 -2002019193 -150928365 836005008 -244326067 1156324687 -534374056 -1897509053 2005920961 223349386 1748455548 -715607237
REM
CELL 1.54180   50.00000   50.00000   50.00000   90.00000   90.00000   90.00000
LATT -1
SFAC C  
C      1  0.4598400000000  0.4687930000000  0.4546670000000 1.0
C      1  0.5547490000000  0.5236060000000  0.5184980000000 1.0
C      1  0.5045980000000  0.4437210000000  0.5193840000000 1.0
C      1  0.5208560000000  0.4530150000000  0.5407460000000 1.0
C      1  0.5021300000000  0.4899540000000  0.5077630000000 1.0
C      1  0.4793670000000  0.4727240000000  0.5462300000000 1.0
C      1  0.4711420000000  0.5529790000000  0.4948560000000 1.0
C      1  0.4972270000000  0.5485980000000  0.4625210000000 1.0
C      1  0.4606300000000  0.4627980000000  0.5031390000000 1.0
C      1  0.5066960000000  0.4737670000000  0.5537640000000 1.0
C      1  0.5078380000000  0.5245190000000  0.4517490000000 1.0
C      1  0.4557070000000  0.5100240000000  0.5219800000000 1.0
C      1  0.5177540000000  0.4999380000000  0.5530610000000 1.0
C      1  0.4833840000000  0.4812320000000  0.4419900000000 1.0
C      1  0.4444050000000  0.4994100000000  0.4731080000000 1.0
C      1  0.4837470000000  0.5092870000000  0.4439280000000 1.0
C      1  0.5420820000000  0.5661220000000  0.5143460000000 1.0
C      1  0.4690830000000  0.4525840000000  0.4771130000000 1.0
C      1  0.5314740000000  0.4904280000000  0.5067900000000 1.0
C      1  0.4685300000000  0.5444160000000  0.4682630000000 1.0
C      1  0.4771670000000  0.4540670000000  0.5246550000000 1.0
C      1  0.5096030000000  0.5327150000000  0.5041610000000 1.0
C      1  0.4601650000000  0.5200220000000  0.4579530000000 1.0
C      1  0.4927060000000  0.5097400000000  0.4927560000000 1.0
C      1  0.5292240000000  0.4818540000000  0.4622050000000 1.0
C      1  0.5445480000000  0.4993710000000  0.5347790000000 1.0
C      1  0.4488720000000  0.4906210000000  0.5015610000000 1.0
C      1  0.4968410000000  0.4482740000000  0.4721420000000 1.0
C      1  0.4950070000000  0.5164100000000  0.5494870000000 1.0
C      1  0.5061340000000  0.4681740000000  0.4522000000000 1.0
C      1  0.5481400000000  0.4536490000000  0.5463250000000 1.0
C      1  0.5155580000000  0.4465270000000  0.4928590000000 1.0
C      1  0.4356070000000  0.4798350000000  0.4555050000000 1.0
C      1  0.4707800000000  0.4995100000000  0.5441670000000 1.0
C      1  0.5363270000000  0.5181220000000  0.4953840000000 1.0
C      1  0.5028040000000  0.5578010000000  0.4898610000000 1.0
C      1  0.5219150000000  0.5756060000000  0.5013530000000 1.0
C      1  0.5299750000000  0.5106510000000  0.4643640000000 1.0
C      1  0.5350890000000  0.4683200000000  0.4874600000000 1.0
C      1  0.4937660000000  0.5368730000000  0.5304120000000 1.0
C      1  0.5602490000000  0.4766340000000  0.5449380000000 1.0
C      1  0.5611090000000  0.5502930000000  0.5240620000000 1.0
C      1  0.4671740000000  0.5370130000000  0.5175130000000 1.0
END
