TITL C-166684-7367-7 -87.373850266027 125000 -562.613352756951 0 0 81 (C1) n - 1
REM
REM in /rds/project/t2_vol4/rds-t2-cs072/BORA/CARBON/from-Arr/AIRSS/Generating-Clusters/GAP-ML-2020/Only-C1/SD-CG/HFTN-CG
REM
REM
REM
REM
REM
REM ./C.cell (11c1c37f851c82e70ff6c80c92926a4b)
REM AIRSS Version 0.9.1 bugfix July 2018 build 013d7b7c2542+ Fri, 06 Jul 2018 19:26:36 +0100
REM compiler GCC version 9.3.0
REM options -cpp -mtune=generic -march=x86-64 -g -O0
REM seed -446410418 299343353 -430810635 1503261404 1205477982 -1847252717 322345199 -1890620965 -1771783090 1578988622 957763777 1258760132 2143917745 -1933015711 -1764976032 795642324 1550494370 -1247886279 -457606248 580606216 -1853361257 -1708335704 801063523 -446480099 1949802630 1445296478 -487227 1039598641 -1455678513 -570433527 528281522 -1071219677 1294654496
REM
CELL 1.54180   50.00000   50.00000   50.00000   90.00000   90.00000   90.00000
LATT -1
SFAC C  
C      1  0.4874840000000  0.4895260000000  0.5692500000000 1.0
C      1  0.5049600000000  0.4562060000000  0.4329660000000 1.0
C      1  0.5393010000000  0.4818870000000  0.4563240000000 1.0
C      1  0.5255980000000  0.5478320000000  0.4839630000000 1.0
C      1  0.5540540000000  0.5194860000000  0.5670470000000 1.0
C      1  0.5772360000000  0.5262080000000  0.5510730000000 1.0
C      1  0.5626720000000  0.4926850000000  0.4911160000000 1.0
C      1  0.4387250000000  0.4715090000000  0.5371430000000 1.0
C      1  0.4963880000000  0.5175360000000  0.5047350000000 1.0
C      1  0.5260800000000  0.4564120000000  0.4538370000000 1.0
C      1  0.4975190000000  0.5460030000000  0.5205030000000 1.0
C      1  0.5381100000000  0.4954890000000  0.5697930000000 1.0
C      1  0.5824950000000  0.5269700000000  0.5041480000000 1.0
C      1  0.4365060000000  0.5096710000000  0.4518150000000 1.0
C      1  0.5405710000000  0.5463870000000  0.4570250000000 1.0
C      1  0.5161310000000  0.4528800000000  0.5531140000000 1.0
C      1  0.5351810000000  0.4916660000000  0.4848130000000 1.0
C      1  0.5196340000000  0.4725790000000  0.5009080000000 1.0
C      1  0.4806820000000  0.4424320000000  0.4403500000000 1.0
C      1  0.4433090000000  0.4802540000000  0.5109240000000 1.0
C      1  0.5115480000000  0.5040460000000  0.5787280000000 1.0
C      1  0.5005430000000  0.5321290000000  0.4294370000000 1.0
C      1  0.4951560000000  0.5019480000000  0.5424710000000 1.0
C      1  0.5412490000000  0.5646190000000  0.5559300000000 1.0
C      1  0.5393970000000  0.4486130000000  0.5136240000000 1.0
C      1  0.4649340000000  0.5313770000000  0.5570020000000 1.0
C      1  0.5507420000000  0.4358710000000  0.4896340000000 1.0
C      1  0.4281870000000  0.5174650000000  0.5349660000000 1.0
C      1  0.5039870000000  0.5617970000000  0.4692790000000 1.0
C      1  0.5101650000000  0.5320300000000  0.5724500000000 1.0
C      1  0.5074080000000  0.4572710000000  0.4785430000000 1.0
C      1  0.4982090000000  0.4296430000000  0.4838730000000 1.0
C      1  0.5919440000000  0.5027740000000  0.5224240000000 1.0
C      1  0.5409210000000  0.5036590000000  0.4394180000000 1.0
C      1  0.4683730000000  0.4441830000000  0.5105050000000 1.0
C      1  0.5364870000000  0.5422480000000  0.5706740000000 1.0
C      1  0.5144790000000  0.5516630000000  0.4442980000000 1.0
C      1  0.4763000000000  0.4286140000000  0.4653540000000 1.0
C      1  0.4548730000000  0.4479980000000  0.5376610000000 1.0
C      1  0.4551150000000  0.4402880000000  0.4793920000000 1.0
C      1  0.4693770000000  0.4438940000000  0.5601460000000 1.0
C      1  0.4566330000000  0.5508230000000  0.4505960000000 1.0
C      1  0.4589070000000  0.4602000000000  0.4363850000000 1.0
C      1  0.5469460000000  0.4359980000000  0.4640650000000 1.0
C      1  0.4488200000000  0.5523570000000  0.5126630000000 1.0
C      1  0.4744670000000  0.5615190000000  0.5064570000000 1.0
C      1  0.4449590000000  0.5396170000000  0.5384220000000 1.0
C      1  0.5564790000000  0.5238990000000  0.4549490000000 1.0
C      1  0.5557400000000  0.4658120000000  0.5312040000000 1.0
C      1  0.4250380000000  0.4921530000000  0.4938820000000 1.0
C      1  0.4787650000000  0.5694480000000  0.4788820000000 1.0
C      1  0.4981100000000  0.4828860000000  0.4225810000000 1.0
C      1  0.4718610000000  0.5332330000000  0.4326110000000 1.0
C      1  0.4608750000000  0.5045840000000  0.5665920000000 1.0
C      1  0.4371200000000  0.5351480000000  0.4647980000000 1.0
C      1  0.4427650000000  0.4604780000000  0.4607070000000 1.0
C      1  0.4722280000000  0.4740370000000  0.5035620000000 1.0
C      1  0.4567220000000  0.5093070000000  0.4312860000000 1.0
C      1  0.5175420000000  0.5156400000000  0.4835680000000 1.0
C      1  0.5466570000000  0.5575280000000  0.5291530000000 1.0
C      1  0.5244560000000  0.5553500000000  0.5120120000000 1.0
C      1  0.4922090000000  0.5024250000000  0.4682150000000 1.0
C      1  0.4320340000000  0.5389660000000  0.4930180000000 1.0
C      1  0.4212040000000  0.5166550000000  0.5067090000000 1.0
C      1  0.5146550000000  0.5067130000000  0.4257240000000 1.0
C      1  0.4601770000000  0.5768580000000  0.4583360000000 1.0
C      1  0.4910260000000  0.4596060000000  0.5662520000000 1.0
C      1  0.4938240000000  0.4300030000000  0.5118650000000 1.0
C      1  0.5396110000000  0.4703230000000  0.5546560000000 1.0
C      1  0.5728720000000  0.4829200000000  0.5158230000000 1.0
C      1  0.5721660000000  0.5164890000000  0.4793520000000 1.0
C      1  0.4302970000000  0.4860070000000  0.4665940000000 1.0
C      1  0.5156970000000  0.4381310000000  0.5285970000000 1.0
C      1  0.4689780000000  0.4849110000000  0.4247120000000 1.0
C      1  0.4753350000000  0.5185250000000  0.4835030000000 1.0
C      1  0.6001750000000  0.5101640000000  0.5470590000000 1.0
C      1  0.5707810000000  0.5416980000000  0.5264250000000 1.0
C      1  0.4847540000000  0.4759080000000  0.4757550000000 1.0
C      1  0.4965460000000  0.4893640000000  0.5162400000000 1.0
C      1  0.4925990000000  0.5330250000000  0.5483790000000 1.0
C      1  0.4379370000000  0.4955400000000  0.5517550000000 1.0
END
