TITL C-166692-7307-4 -0.0792524569525642 125000 -647.726172851698 0 0 93 (C1) n - 1
REM
REM in /rds/project/t2_vol4/rds-t2-cs072/BORA/CARBON/from-Arr/AIRSS/Generating-Clusters/GAP-ML-2020/Only-C1/SD-CG/HFTN-CG
REM
REM
REM
REM
REM
REM ./C.cell (11c1c37f851c82e70ff6c80c92926a4b)
REM AIRSS Version 0.9.1 bugfix July 2018 build 013d7b7c2542+ Fri, 06 Jul 2018 19:26:36 +0100
REM compiler GCC version 9.3.0
REM options -cpp -mtune=generic -march=x86-64 -g -O0
REM seed -237812239 -36059003 2026279143 -1851398480 13346915 -499582010 -445657298 -726717272 1485787954 1996800680 2015359417 450249131 2054848673 1427095124 -1799514925 -1890231563 1297277822 1072400604 -1618474491 -1593604996 1798203319 1856924644 -1911937274 -2140578904 -13798638 818863099 -646518819 -1106081684 266510145 996497584 -512743983 1716503537 2020935789
REM
CELL 1.54180   50.00000   50.00000   50.00000   90.00000   90.00000   90.00000
LATT -1
SFAC C  
C      1  0.5198260000000  0.4228610000000  0.4521260000000 1.0
C      1  0.4198030000000  0.5129960000000  0.4552650000000 1.0
C      1  0.4481250000000  0.5429150000000  0.5332400000000 1.0
C      1  0.4177440000000  0.4861720000000  0.4985460000000 1.0
C      1  0.5026400000000  0.5690750000000  0.4480050000000 1.0
C      1  0.5117450000000  0.4252650000000  0.5340800000000 1.0
C      1  0.5555100000000  0.5167150000000  0.4436070000000 1.0
C      1  0.5711120000000  0.4686280000000  0.4673600000000 1.0
C      1  0.5063750000000  0.5858030000000  0.4963580000000 1.0
C      1  0.4698760000000  0.4299490000000  0.5119720000000 1.0
C      1  0.4507430000000  0.4486730000000  0.5015190000000 1.0
C      1  0.5109350000000  0.5478710000000  0.5597000000000 1.0
C      1  0.5392520000000  0.4159500000000  0.4957320000000 1.0
C      1  0.4251880000000  0.5012820000000  0.5426070000000 1.0
C      1  0.5257740000000  0.4825790000000  0.5096440000000 1.0
C      1  0.5063290000000  0.5354340000000  0.4868630000000 1.0
C      1  0.5580740000000  0.4453350000000  0.5307990000000 1.0
C      1  0.5178120000000  0.5242670000000  0.4174580000000 1.0
C      1  0.5663890000000  0.5176210000000  0.5271620000000 1.0
C      1  0.4697260000000  0.5006680000000  0.5116450000000 1.0
C      1  0.5146370000000  0.4163880000000  0.5075210000000 1.0
C      1  0.5591130000000  0.5408460000000  0.4853260000000 1.0
C      1  0.5359090000000  0.5098370000000  0.5173280000000 1.0
C      1  0.4756960000000  0.5055680000000  0.4156340000000 1.0
C      1  0.5607980000000  0.4706740000000  0.4417060000000 1.0
C      1  0.5073320000000  0.4818740000000  0.5309220000000 1.0
C      1  0.5327850000000  0.5773910000000  0.4956800000000 1.0
C      1  0.5002950000000  0.5130960000000  0.4711740000000 1.0
C      1  0.5256700000000  0.4561400000000  0.5682150000000 1.0
C      1  0.5599000000000  0.4334090000000  0.5053750000000 1.0
C      1  0.5345510000000  0.5087440000000  0.5681860000000 1.0
C      1  0.4879390000000  0.4840180000000  0.5836140000000 1.0
C      1  0.5221800000000  0.4957560000000  0.4162390000000 1.0
C      1  0.4171640000000  0.5095550000000  0.5164980000000 1.0
C      1  0.4317650000000  0.5374510000000  0.4608850000000 1.0
C      1  0.4586810000000  0.5127020000000  0.5745780000000 1.0
C      1  0.4757180000000  0.4664620000000  0.4302590000000 1.0
C      1  0.5624650000000  0.5111300000000  0.5557990000000 1.0
C      1  0.5305010000000  0.5601190000000  0.4492640000000 1.0
C      1  0.5164080000000  0.5642970000000  0.5379300000000 1.0
C      1  0.4894250000000  0.5135100000000  0.5775980000000 1.0
C      1  0.5752220000000  0.4929590000000  0.4840490000000 1.0
C      1  0.4168200000000  0.4902090000000  0.4705780000000 1.0
C      1  0.4820410000000  0.5510460000000  0.4370290000000 1.0
C      1  0.5640920000000  0.4432170000000  0.4780560000000 1.0
C      1  0.4810700000000  0.4804740000000  0.5251790000000 1.0
C      1  0.5718310000000  0.4710660000000  0.5332690000000 1.0
C      1  0.4643080000000  0.5681410000000  0.5312490000000 1.0
C      1  0.5457850000000  0.5646540000000  0.4730090000000 1.0
C      1  0.4731630000000  0.5120150000000  0.4649650000000 1.0
C      1  0.5482550000000  0.4914550000000  0.4299430000000 1.0
C      1  0.4916370000000  0.4254880000000  0.4920870000000 1.0
C      1  0.4322180000000  0.4727800000000  0.5415530000000 1.0
C      1  0.5642420000000  0.5450560000000  0.5146590000000 1.0
C      1  0.4976480000000  0.4592180000000  0.5741220000000 1.0
C      1  0.4896510000000  0.5307430000000  0.4187040000000 1.0
C      1  0.5679060000000  0.5174930000000  0.4700590000000 1.0
C      1  0.4615480000000  0.5573530000000  0.4834450000000 1.0
C      1  0.4666740000000  0.4632860000000  0.4796000000000 1.0
C      1  0.5419090000000  0.4790420000000  0.5732810000000 1.0
C      1  0.4328790000000  0.5475530000000  0.4873790000000 1.0
C      1  0.5387750000000  0.5606810000000  0.5188750000000 1.0
C      1  0.5373960000000  0.5368870000000  0.4346190000000 1.0
C      1  0.5162320000000  0.4917230000000  0.4674880000000 1.0
C      1  0.5415770000000  0.4256390000000  0.4681020000000 1.0
C      1  0.4516900000000  0.4634640000000  0.5607850000000 1.0
C      1  0.4940960000000  0.4284310000000  0.4615550000000 1.0
C      1  0.5767420000000  0.4929090000000  0.5131910000000 1.0
C      1  0.4922940000000  0.5712630000000  0.5207600000000 1.0
C      1  0.4300860000000  0.4641980000000  0.5135980000000 1.0
C      1  0.4618750000000  0.5401240000000  0.4568330000000 1.0
C      1  0.4949980000000  0.5254990000000  0.5467200000000 1.0
C      1  0.4941060000000  0.5856140000000  0.4703690000000 1.0
C      1  0.4744460000000  0.5270060000000  0.5229720000000 1.0
C      1  0.4841940000000  0.5459910000000  0.5026220000000 1.0
C      1  0.5178080000000  0.5075990000000  0.5419020000000 1.0
C      1  0.4954350000000  0.4839200000000  0.4155360000000 1.0
C      1  0.5162580000000  0.5289110000000  0.5808150000000 1.0
C      1  0.4269500000000  0.5361730000000  0.5119570000000 1.0
C      1  0.4938660000000  0.4552160000000  0.4886500000000 1.0
C      1  0.4305960000000  0.4912670000000  0.4419180000000 1.0
C      1  0.5312600000000  0.5321020000000  0.4999420000000 1.0
C      1  0.4755050000000  0.4495340000000  0.4531860000000 1.0
C      1  0.4407990000000  0.5225810000000  0.5555110000000 1.0
C      1  0.4835700000000  0.4302020000000  0.5377420000000 1.0
C      1  0.4543980000000  0.4875290000000  0.4281590000000 1.0
C      1  0.5659110000000  0.4830620000000  0.5580920000000 1.0
C      1  0.4645290000000  0.4941830000000  0.4842920000000 1.0
C      1  0.5337610000000  0.4388110000000  0.5467710000000 1.0
C      1  0.4680710000000  0.5841980000000  0.4774650000000 1.0
C      1  0.4756210000000  0.4462910000000  0.5595800000000 1.0
C      1  0.5169740000000  0.4723510000000  0.4859180000000 1.0
C      1  0.4593710000000  0.4843670000000  0.5784440000000 1.0
END
