TITL C-162438-3477-8 -799.284600207032 125000 -425.359311828536 0 0 62 (C1) n - 1
REM
REM in /rds/project/t2_vol4/rds-t2-cs072/BORA/CARBON/from-Arr/AIRSS/Generating-Clusters/GAP-ML-2020/Only-C1/SD-CG/HFTN-CG
REM
REM
REM
REM
REM
REM ./C.cell (11c1c37f851c82e70ff6c80c92926a4b)
REM AIRSS Version 0.9.1 bugfix July 2018 build 013d7b7c2542+ Fri, 06 Jul 2018 19:26:36 +0100
REM compiler GCC version 9.3.0
REM options -cpp -mtune=generic -march=x86-64 -g -O0
REM seed 1874494012 -51266612 -1575166067 607628188 -768815916 122015185 2050437195 -1366912113 -657851096 841378709 -792595580 1662106949 354821328 -1876787988 -353967784 -1131743933 -1812769022 700476405 -264298790 -690684075 1259027876 -322026138 1668215507 43524124 1908264300 873616699 787211320 -1354613862 511981873 -1333611110 -104001416 -1912961763 54797424
REM
CELL 1.54180   50.00000   50.00000   50.00000   90.00000   90.00000   90.00000
LATT -1
SFAC C  
C      1  0.4982850000000  0.5590880000000  0.4409590000000 1.0
C      1  0.4360390000000  0.4448580000000  0.4652650000000 1.0
C      1  0.5079920000000  0.5266180000000  0.5607820000000 1.0
C      1  0.5148990000000  0.5122450000000  0.4409360000000 1.0
C      1  0.4595520000000  0.4490440000000  0.4797630000000 1.0
C      1  0.4614020000000  0.5320000000000  0.5423920000000 1.0
C      1  0.5476810000000  0.5462020000000  0.4560400000000 1.0
C      1  0.5287110000000  0.4335260000000  0.5338780000000 1.0
C      1  0.5608210000000  0.5055540000000  0.5181260000000 1.0
C      1  0.5219560000000  0.4907190000000  0.4840980000000 1.0
C      1  0.4983260000000  0.4746620000000  0.4941390000000 1.0
C      1  0.4580410000000  0.5045720000000  0.5446480000000 1.0
C      1  0.5388880000000  0.4494250000000  0.4736500000000 1.0
C      1  0.5587550000000  0.5298460000000  0.4747910000000 1.0
C      1  0.5414750000000  0.4226100000000  0.5131190000000 1.0
C      1  0.5261310000000  0.4625130000000  0.4516670000000 1.0
C      1  0.5337880000000  0.5296770000000  0.5479670000000 1.0
C      1  0.4613510000000  0.5659070000000  0.4735030000000 1.0
C      1  0.4721470000000  0.5696550000000  0.5175520000000 1.0
C      1  0.5289850000000  0.4267030000000  0.4877560000000 1.0
C      1  0.4950460000000  0.4467420000000  0.5543570000000 1.0
C      1  0.5446840000000  0.5037590000000  0.5424030000000 1.0
C      1  0.5217580000000  0.5191250000000  0.4951770000000 1.0
C      1  0.5651130000000  0.4888450000000  0.4943910000000 1.0
C      1  0.5382560000000  0.5473070000000  0.5262300000000 1.0
C      1  0.5207560000000  0.5407280000000  0.4475000000000 1.0
C      1  0.4566260000000  0.5450720000000  0.5155840000000 1.0
C      1  0.5113810000000  0.5407280000000  0.4770260000000 1.0
C      1  0.4870280000000  0.4381370000000  0.4671070000000 1.0
C      1  0.4855480000000  0.5290310000000  0.4757190000000 1.0
C      1  0.4764510000000  0.4895720000000  0.5606510000000 1.0
C      1  0.4430460000000  0.5220890000000  0.4734760000000 1.0
C      1  0.5229180000000  0.4561340000000  0.5527270000000 1.0
C      1  0.4489550000000  0.4885860000000  0.5218510000000 1.0
C      1  0.4697520000000  0.4786220000000  0.4787170000000 1.0
C      1  0.4660920000000  0.5256520000000  0.4524120000000 1.0
C      1  0.5448590000000  0.4705010000000  0.4921100000000 1.0
C      1  0.4436310000000  0.5473460000000  0.4870080000000 1.0
C      1  0.4540190000000  0.4999390000000  0.4938120000000 1.0
C      1  0.4623060000000  0.4416770000000  0.5093900000000 1.0
C      1  0.4850840000000  0.4253770000000  0.5114330000000 1.0
C      1  0.4814260000000  0.4805680000000  0.4518260000000 1.0
C      1  0.5321830000000  0.4925280000000  0.4546090000000 1.0
C      1  0.4728050000000  0.4627510000000  0.5524090000000 1.0
C      1  0.4869520000000  0.5060960000000  0.4428590000000 1.0
C      1  0.4986820000000  0.4573950000000  0.4500150000000 1.0
C      1  0.4755450000000  0.5224230000000  0.5016300000000 1.0
C      1  0.5085310000000  0.5667000000000  0.4916880000000 1.0
C      1  0.5031660000000  0.4990030000000  0.5645890000000 1.0
C      1  0.5002710000000  0.4235370000000  0.4862620000000 1.0
C      1  0.4994930000000  0.4261920000000  0.5351530000000 1.0
C      1  0.4980440000000  0.4863370000000  0.5187180000000 1.0
C      1  0.5269340000000  0.4840880000000  0.5555560000000 1.0
C      1  0.4938870000000  0.5647020000000  0.5352130000000 1.0
C      1  0.4809230000000  0.5763670000000  0.4915540000000 1.0
C      1  0.4725930000000  0.5542730000000  0.4490350000000 1.0
C      1  0.5591450000000  0.5025870000000  0.4686180000000 1.0
C      1  0.4563120000000  0.4615750000000  0.5285070000000 1.0
C      1  0.5000790000000  0.5149960000000  0.5149540000000 1.0
C      1  0.5172660000000  0.5646540000000  0.5193740000000 1.0
C      1  0.4866770000000  0.5428900000000  0.5517140000000 1.0
C      1  0.5505570000000  0.5299500000000  0.5056080000000 1.0
END
