TITL C-161220-3978-7 177.453382012087 125000 -779.993970839683 0 0 111 (C1) n - 1
REM
REM in /rds/project/t2_vol4/rds-t2-cs072/BORA/CARBON/from-Arr/AIRSS/Generating-Clusters/GAP-ML-2020/Only-C1/SD-CG/HFTN-CG
REM
REM
REM
REM
REM
REM ./C.cell (11c1c37f851c82e70ff6c80c92926a4b)
REM AIRSS Version 0.9.1 bugfix July 2018 build 013d7b7c2542+ Fri, 06 Jul 2018 19:26:36 +0100
REM compiler GCC version 9.3.0
REM options -cpp -mtune=generic -march=x86-64 -g -O0
REM seed 1073481112 -2104766615 895532471 -237434298 1605713584 1159394986 1735543205 775925820 -541113326 1527037906 -102186474 562851819 669312113 494989783 1253069848 -668505635 -461772928 380010020 682650322 776854648 -368388376 1727643970 1413180829 764684528 1319184022 88034417 1587140359 1158734149 1229255820 1540877934 1998637794 -199842863 470401713
REM
CELL 1.54180   50.00000   50.00000   50.00000   90.00000   90.00000   90.00000
LATT -1
SFAC C  
C      1  0.4926820000000  0.5817040000000  0.5751610000000 1.0
C      1  0.5345530000000  0.4218660000000  0.5108210000000 1.0
C      1  0.5695750000000  0.5064910000000  0.5452980000000 1.0
C      1  0.4997510000000  0.5358920000000  0.5043760000000 1.0
C      1  0.5460450000000  0.5249680000000  0.5095940000000 1.0
C      1  0.4662010000000  0.4890380000000  0.4961430000000 1.0
C      1  0.4425360000000  0.4289700000000  0.4755310000000 1.0
C      1  0.5424950000000  0.5321880000000  0.5711770000000 1.0
C      1  0.4897190000000  0.4235760000000  0.5585440000000 1.0
C      1  0.5660510000000  0.4599710000000  0.4476780000000 1.0
C      1  0.5488650000000  0.5054130000000  0.4626700000000 1.0
C      1  0.5171730000000  0.5050790000000  0.4602140000000 1.0
C      1  0.4735870000000  0.5714830000000  0.5186720000000 1.0
C      1  0.4799730000000  0.5983090000000  0.5279940000000 1.0
C      1  0.5564350000000  0.4542270000000  0.5356610000000 1.0
C      1  0.5897700000000  0.4978770000000  0.4999690000000 1.0
C      1  0.5505900000000  0.4358250000000  0.4920890000000 1.0
C      1  0.4788090000000  0.5575310000000  0.4583750000000 1.0
C      1  0.4986610000000  0.5598320000000  0.5173690000000 1.0
C      1  0.5545920000000  0.5080450000000  0.4344740000000 1.0
C      1  0.4927900000000  0.5324510000000  0.5962490000000 1.0
C      1  0.4398230000000  0.4566500000000  0.4374470000000 1.0
C      1  0.4864230000000  0.4120010000000  0.5323040000000 1.0
C      1  0.5411370000000  0.5062600000000  0.5835420000000 1.0
C      1  0.4287120000000  0.5158190000000  0.5312970000000 1.0
C      1  0.5544040000000  0.4797880000000  0.4281430000000 1.0
C      1  0.4785630000000  0.5333180000000  0.4158360000000 1.0
C      1  0.4783020000000  0.4640750000000  0.5773750000000 1.0
C      1  0.4572820000000  0.5055770000000  0.5656070000000 1.0
C      1  0.4619290000000  0.4196870000000  0.4936790000000 1.0
C      1  0.4436080000000  0.4773520000000  0.5376750000000 1.0
C      1  0.4901490000000  0.6043670000000  0.4783410000000 1.0
C      1  0.5073080000000  0.4449600000000  0.5295840000000 1.0
C      1  0.5364520000000  0.4349330000000  0.5374150000000 1.0
C      1  0.5598660000000  0.4921840000000  0.5677180000000 1.0
C      1  0.5645940000000  0.5018200000000  0.5155890000000 1.0
C      1  0.5457320000000  0.5717800000000  0.5247960000000 1.0
C      1  0.5635870000000  0.5329620000000  0.5519780000000 1.0
C      1  0.5153120000000  0.4846940000000  0.5511620000000 1.0
C      1  0.4773510000000  0.4303010000000  0.4408230000000 1.0
C      1  0.4602320000000  0.4682400000000  0.4200000000000 1.0
C      1  0.4732340000000  0.5074140000000  0.4765450000000 1.0
C      1  0.5173380000000  0.5168250000000  0.5173100000000 1.0
C      1  0.4508950000000  0.4330360000000  0.4489460000000 1.0
C      1  0.4515750000000  0.5319400000000  0.5295330000000 1.0
C      1  0.4915830000000  0.5495730000000  0.4329370000000 1.0
C      1  0.4817560000000  0.4802820000000  0.4746650000000 1.0
C      1  0.4671210000000  0.4408910000000  0.5640390000000 1.0
C      1  0.4492100000000  0.5536660000000  0.4602850000000 1.0
C      1  0.4892660000000  0.4185630000000  0.4857870000000 1.0
C      1  0.4840290000000  0.4513020000000  0.4231280000000 1.0
C      1  0.5472010000000  0.4798720000000  0.5044390000000 1.0
C      1  0.5170340000000  0.5425990000000  0.5589560000000 1.0
C      1  0.5819060000000  0.5468350000000  0.5039120000000 1.0
C      1  0.4151660000000  0.4612770000000  0.5045090000000 1.0
C      1  0.4287260000000  0.4556090000000  0.5290710000000 1.0
C      1  0.5197770000000  0.5465360000000  0.4394570000000 1.0
C      1  0.4371970000000  0.5329010000000  0.4438260000000 1.0
C      1  0.5500450000000  0.5784880000000  0.4977990000000 1.0
C      1  0.4639080000000  0.4957270000000  0.4134230000000 1.0
C      1  0.4479180000000  0.4373720000000  0.5404540000000 1.0
C      1  0.5101300000000  0.4847410000000  0.4787320000000 1.0
C      1  0.5126960000000  0.4548180000000  0.4261570000000 1.0
C      1  0.4132400000000  0.5135120000000  0.5080370000000 1.0
C      1  0.4839930000000  0.6090800000000  0.5031060000000 1.0
C      1  0.4897950000000  0.5079360000000  0.4069270000000 1.0
C      1  0.5623510000000  0.5480860000000  0.5268660000000 1.0
C      1  0.5185270000000  0.5332460000000  0.4669490000000 1.0
C      1  0.5877360000000  0.4704510000000  0.4904470000000 1.0
C      1  0.4529530000000  0.5217010000000  0.4228070000000 1.0
C      1  0.4176460000000  0.5189740000000  0.4608980000000 1.0
C      1  0.4980100000000  0.4244900000000  0.4590020000000 1.0
C      1  0.5173090000000  0.4903110000000  0.5898430000000 1.0
C      1  0.5075670000000  0.4656940000000  0.5741870000000 1.0
C      1  0.5629690000000  0.5548510000000  0.4818160000000 1.0
C      1  0.4985590000000  0.5543630000000  0.5807920000000 1.0
C      1  0.4201630000000  0.4656560000000  0.4569580000000 1.0
C      1  0.4334120000000  0.4983070000000  0.5523390000000 1.0
C      1  0.5475110000000  0.5776380000000  0.4711170000000 1.0
C      1  0.5288150000000  0.4765910000000  0.4168310000000 1.0
C      1  0.5138500000000  0.4388310000000  0.5600960000000 1.0
C      1  0.4723010000000  0.4865140000000  0.5249350000000 1.0
C      1  0.5171180000000  0.4882650000000  0.5076210000000 1.0
C      1  0.4701510000000  0.4902210000000  0.5851540000000 1.0
C      1  0.4740320000000  0.5138770000000  0.5413840000000 1.0
C      1  0.4932700000000  0.5053290000000  0.5949840000000 1.0
C      1  0.5875040000000  0.4633040000000  0.4645260000000 1.0
C      1  0.4904010000000  0.5331870000000  0.4777940000000 1.0
C      1  0.4972540000000  0.5813770000000  0.4632960000000 1.0
C      1  0.4180230000000  0.5319920000000  0.4864760000000 1.0
C      1  0.5446790000000  0.4470230000000  0.4645280000000 1.0
C      1  0.5460640000000  0.5303100000000  0.4801890000000 1.0
C      1  0.5653640000000  0.4556070000000  0.5074310000000 1.0
C      1  0.4606890000000  0.4187160000000  0.5225760000000 1.0
C      1  0.5057280000000  0.5159370000000  0.5450480000000 1.0
C      1  0.5460760000000  0.4747780000000  0.5522020000000 1.0
C      1  0.4376440000000  0.5521280000000  0.4870010000000 1.0
C      1  0.5006440000000  0.4737110000000  0.5271650000000 1.0
C      1  0.5336530000000  0.5238820000000  0.4222100000000 1.0
C      1  0.5051900000000  0.4197060000000  0.5103590000000 1.0
C      1  0.5174160000000  0.5034480000000  0.4102540000000 1.0
C      1  0.4511820000000  0.5549610000000  0.5126490000000 1.0
C      1  0.4110870000000  0.4913240000000  0.4669590000000 1.0
C      1  0.5237390000000  0.5725480000000  0.4552680000000 1.0
C      1  0.5409850000000  0.4778730000000  0.4755820000000 1.0
C      1  0.5000440000000  0.5904030000000  0.5510000000000 1.0
C      1  0.5959980000000  0.5238040000000  0.4999270000000 1.0
C      1  0.5187120000000  0.5672410000000  0.5375070000000 1.0
C      1  0.4218950000000  0.4481430000000  0.4799500000000 1.0
C      1  0.5210340000000  0.4387310000000  0.4488980000000 1.0
C      1  0.4083890000000  0.4881690000000  0.4958270000000 1.0
END
