TITL C-166691-7361-5 -555.495237981213 125000 -484.715816672255 0 0 71 (C1) n - 1
REM
REM in /rds/project/t2_vol4/rds-t2-cs072/BORA/CARBON/from-Arr/AIRSS/Generating-Clusters/GAP-ML-2020/Only-C1/SD-CG/HFTN-CG
REM
REM
REM
REM
REM
REM ./C.cell (11c1c37f851c82e70ff6c80c92926a4b)
REM AIRSS Version 0.9.1 bugfix July 2018 build 013d7b7c2542+ Fri, 06 Jul 2018 19:26:36 +0100
REM compiler GCC version 9.3.0
REM options -cpp -mtune=generic -march=x86-64 -g -O0
REM seed 705389757 -1320064117 -405367930 -1445077031 -591763280 350949562 1067047801 2085314218 -2122904836 -812727362 -997393430 -1836871281 2051403631 -598278961 1866024284 1359248251 238890455 510610823 -928211466 1290456465 373014257 -2066451086 1592094688 -1851043940 1062304629 -7138531 903170350 -842071765 -1607853256 -571724045 1190288758 -1232183964 1436026126
REM
CELL 1.54180   50.00000   50.00000   50.00000   90.00000   90.00000   90.00000
LATT -1
SFAC C  
C      1  0.4314820000000  0.4616230000000  0.5225600000000 1.0
C      1  0.5040870000000  0.5094920000000  0.5551960000000 1.0
C      1  0.5269990000000  0.5257980000000  0.5645940000000 1.0
C      1  0.4793210000000  0.4964700000000  0.5635530000000 1.0
C      1  0.4818090000000  0.5603750000000  0.4717110000000 1.0
C      1  0.4340910000000  0.4961410000000  0.5565990000000 1.0
C      1  0.5554720000000  0.5459960000000  0.5122630000000 1.0
C      1  0.5625320000000  0.4994510000000  0.5420260000000 1.0
C      1  0.4708630000000  0.5396300000000  0.4546020000000 1.0
C      1  0.4495230000000  0.4449370000000  0.5079260000000 1.0
C      1  0.4552940000000  0.5137240000000  0.5572220000000 1.0
C      1  0.4167490000000  0.4777560000000  0.5056170000000 1.0
C      1  0.5177170000000  0.5779830000000  0.5175860000000 1.0
C      1  0.5109070000000  0.5654220000000  0.4704190000000 1.0
C      1  0.4608350000000  0.4930340000000  0.4513390000000 1.0
C      1  0.4720070000000  0.4939440000000  0.5041370000000 1.0
C      1  0.4950790000000  0.4651420000000  0.4778340000000 1.0
C      1  0.5558890000000  0.4560780000000  0.5222950000000 1.0
C      1  0.5063000000000  0.4832770000000  0.4380180000000 1.0
C      1  0.4685580000000  0.4769600000000  0.4799200000000 1.0
C      1  0.5315630000000  0.5658430000000  0.5403260000000 1.0
C      1  0.4290790000000  0.4650530000000  0.4644200000000 1.0
C      1  0.4840930000000  0.4995960000000  0.4350850000000 1.0
C      1  0.5176520000000  0.5263190000000  0.4437760000000 1.0
C      1  0.4977680000000  0.4559940000000  0.4469070000000 1.0
C      1  0.4209640000000  0.4880400000000  0.4810160000000 1.0
C      1  0.5548760000000  0.5456980000000  0.4661170000000 1.0
C      1  0.4863650000000  0.4453420000000  0.5406340000000 1.0
C      1  0.5563450000000  0.5508180000000  0.5393570000000 1.0
C      1  0.4472630000000  0.4683120000000  0.4408260000000 1.0
C      1  0.5178340000000  0.4352930000000  0.4461930000000 1.0
C      1  0.5537290000000  0.4721880000000  0.5459700000000 1.0
C      1  0.4948300000000  0.4401310000000  0.4940370000000 1.0
C      1  0.5131910000000  0.4934330000000  0.4847990000000 1.0
C      1  0.5676420000000  0.4721810000000  0.5016600000000 1.0
C      1  0.5635970000000  0.4712120000000  0.4734430000000 1.0
C      1  0.5128630000000  0.4909290000000  0.5336050000000 1.0
C      1  0.5013720000000  0.5352380000000  0.5128460000000 1.0
C      1  0.4300030000000  0.5162890000000  0.4790560000000 1.0
C      1  0.4707240000000  0.5640180000000  0.4989980000000 1.0
C      1  0.4927000000000  0.5660090000000  0.5156230000000 1.0
C      1  0.4428520000000  0.4720860000000  0.5465280000000 1.0
C      1  0.5259110000000  0.4693190000000  0.5495980000000 1.0
C      1  0.4504820000000  0.5191330000000  0.4594440000000 1.0
C      1  0.5148660000000  0.4449060000000  0.5414170000000 1.0
C      1  0.5331460000000  0.4382290000000  0.5195270000000 1.0
C      1  0.5292270000000  0.5294840000000  0.5104690000000 1.0
C      1  0.5525720000000  0.5236800000000  0.5528270000000 1.0
C      1  0.4690680000000  0.4524330000000  0.4372040000000 1.0
C      1  0.4916930000000  0.5376700000000  0.5416010000000 1.0
C      1  0.4322080000000  0.5342980000000  0.4997120000000 1.0
C      1  0.5281930000000  0.5752930000000  0.4914290000000 1.0
C      1  0.5302760000000  0.5010270000000  0.5093690000000 1.0
C      1  0.5611800000000  0.4973380000000  0.5134940000000 1.0
C      1  0.5668990000000  0.5213000000000  0.4632950000000 1.0
C      1  0.5541530000000  0.5625390000000  0.4899540000000 1.0
C      1  0.4488710000000  0.4537660000000  0.4815090000000 1.0
C      1  0.4915340000000  0.5117120000000  0.4954250000000 1.0
C      1  0.5145960000000  0.5505790000000  0.5561940000000 1.0
C      1  0.4624210000000  0.5369470000000  0.5411060000000 1.0
C      1  0.4518430000000  0.5465450000000  0.5140760000000 1.0
C      1  0.5215520000000  0.4313460000000  0.4947030000000 1.0
C      1  0.4726400000000  0.4705700000000  0.5496460000000 1.0
C      1  0.5341140000000  0.4321810000000  0.4683760000000 1.0
C      1  0.4752880000000  0.4368690000000  0.5155410000000 1.0
C      1  0.4902630000000  0.5266480000000  0.4382730000000 1.0
C      1  0.5287090000000  0.5488390000000  0.4546140000000 1.0
C      1  0.5257620000000  0.4990130000000  0.4542820000000 1.0
C      1  0.4862800000000  0.4825880000000  0.5256400000000 1.0
C      1  0.5574750000000  0.4458960000000  0.4654850000000 1.0
C      1  0.5559570000000  0.4965980000000  0.4591500000000 1.0
END
