TITL C-162418-29-5 -0.039799154015743 125000 -271.984733721823 0 0 41 (C1) n - 1
REM
REM in /rds/project/t2_vol4/rds-t2-cs072/BORA/CARBON/from-Arr/AIRSS/Generating-Clusters/GAP-ML-2020/Only-C1/SD-CG/HFTN-CG
REM
REM
REM
REM
REM
REM ./C.cell (11c1c37f851c82e70ff6c80c92926a4b)
REM AIRSS Version 0.9.1 bugfix July 2018 build 013d7b7c2542+ Fri, 06 Jul 2018 19:26:36 +0100
REM compiler GCC version 9.3.0
REM options -cpp -mtune=generic -march=x86-64 -g -O0
REM seed 1032942321 -882269364 129273511 2059252892 -1106510465 1355259947 1618456424 28250945 1323002499 -1861401077 1024132686 -966888083 -1868633297 -799473331 804736686 1147159291 -638497033 -1182057737 -1011619848 1530275777 595695526 1242478763 781537949 983247534 583596841 1968137810 1786875785 -19812426 -253886186 -1107884928 1150798961 -780823724 -1155908109
REM
CELL 1.54180   50.00000   50.00000   50.00000   90.00000   90.00000   90.00000
LATT -1
SFAC C  
C      1  0.4720560000000  0.5248950000000  0.5412210000000 1.0
C      1  0.5057670000000  0.4768860000000  0.5739490000000 1.0
C      1  0.4863620000000  0.4474430000000  0.4942730000000 1.0
C      1  0.5618020000000  0.4769630000000  0.4789300000000 1.0
C      1  0.5195730000000  0.5313190000000  0.4660010000000 1.0
C      1  0.4476650000000  0.5245930000000  0.4744190000000 1.0
C      1  0.5133970000000  0.4885420000000  0.5048370000000 1.0
C      1  0.4821020000000  0.4931420000000  0.4994240000000 1.0
C      1  0.4509710000000  0.4688790000000  0.4668850000000 1.0
C      1  0.4726820000000  0.4803480000000  0.5244630000000 1.0
C      1  0.4725710000000  0.5392250000000  0.5172000000000 1.0
C      1  0.4242820000000  0.5100380000000  0.4742190000000 1.0
C      1  0.5279300000000  0.4567990000000  0.5057100000000 1.0
C      1  0.4856860000000  0.4542780000000  0.5211270000000 1.0
C      1  0.4873930000000  0.5639970000000  0.5199400000000 1.0
C      1  0.5539320000000  0.4701280000000  0.5039770000000 1.0
C      1  0.5218810000000  0.4880870000000  0.4526250000000 1.0
C      1  0.4672720000000  0.4957940000000  0.5468430000000 1.0
C      1  0.5682630000000  0.5134310000000  0.5177530000000 1.0
C      1  0.5193430000000  0.5204430000000  0.5433370000000 1.0
C      1  0.4562710000000  0.5224650000000  0.4444650000000 1.0
C      1  0.4725570000000  0.5231590000000  0.4914590000000 1.0
C      1  0.5066000000000  0.4672240000000  0.4628000000000 1.0
C      1  0.4341400000000  0.4880100000000  0.4561900000000 1.0
C      1  0.4768430000000  0.4715130000000  0.4773820000000 1.0
C      1  0.5479340000000  0.5280710000000  0.5060240000000 1.0
C      1  0.5102250000000  0.5139090000000  0.4441010000000 1.0
C      1  0.5125100000000  0.5634880000000  0.5237960000000 1.0
C      1  0.5127600000000  0.4513190000000  0.5309020000000 1.0
C      1  0.5287760000000  0.5400000000000  0.5253910000000 1.0
C      1  0.4952910000000  0.5230480000000  0.5586060000000 1.0
C      1  0.4836610000000  0.5262060000000  0.4446750000000 1.0
C      1  0.5429870000000  0.5224980000000  0.4784170000000 1.0
C      1  0.5539080000000  0.4914260000000  0.5228790000000 1.0
C      1  0.4420570000000  0.5021840000000  0.4325030000000 1.0
C      1  0.4913250000000  0.5366080000000  0.4704530000000 1.0
C      1  0.5458780000000  0.4953410000000  0.4676430000000 1.0
C      1  0.5191230000000  0.4709890000000  0.5508860000000 1.0
C      1  0.4876940000000  0.4957610000000  0.5680490000000 1.0
C      1  0.5258950000000  0.4939340000000  0.5336370000000 1.0
C      1  0.5126370000000  0.4476180000000  0.4826110000000 1.0
END
