TITL C-162420-9879-8 -638.453463559152 125000 -404.249641529104 0 0 60 (C1) n - 1
REM
REM in /rds/project/t2_vol4/rds-t2-cs072/BORA/CARBON/from-Arr/AIRSS/Generating-Clusters/GAP-ML-2020/Only-C1/SD-CG/HFTN-CG
REM
REM
REM
REM
REM
REM ./C.cell (11c1c37f851c82e70ff6c80c92926a4b)
REM AIRSS Version 0.9.1 bugfix July 2018 build 013d7b7c2542+ Fri, 06 Jul 2018 19:26:36 +0100
REM compiler GCC version 9.3.0
REM options -cpp -mtune=generic -march=x86-64 -g -O0
REM seed -1335901602 1550928660 -2094250577 -140278536 562747534 -863892572 2032877546 104953497 1287489804 217751367 1727156082 1156204462 500792453 -1859346932 -1446705666 701515389 -591073819 -1156747158 -1159586879 -333005651 1064554519 94779053 -415541523 -1386565954 1548089184 455245402 1114670421 -1423003454 805760185 1833196198 1260506151 -2067686946 1236587384
REM
CELL 1.54180   50.00000   50.00000   50.00000   90.00000   90.00000   90.00000
LATT -1
SFAC C  
C      1  0.5539640000000  0.4954740000000  0.5536740000000 1.0
C      1  0.4835670000000  0.4627010000000  0.5436880000000 1.0
C      1  0.5196060000000  0.5062680000000  0.4396930000000 1.0
C      1  0.5378690000000  0.5425550000000  0.4865260000000 1.0
C      1  0.4800700000000  0.4937930000000  0.4755800000000 1.0
C      1  0.4747700000000  0.5417980000000  0.5113600000000 1.0
C      1  0.5583250000000  0.4680330000000  0.4696850000000 1.0
C      1  0.4476480000000  0.5487380000000  0.5158960000000 1.0
C      1  0.4679520000000  0.5071600000000  0.5643380000000 1.0
C      1  0.5593810000000  0.4830400000000  0.4480430000000 1.0
C      1  0.5466110000000  0.5080570000000  0.4500350000000 1.0
C      1  0.5201590000000  0.4907660000000  0.4882810000000 1.0
C      1  0.4841540000000  0.4833200000000  0.5646490000000 1.0
C      1  0.4595190000000  0.4494040000000  0.4666110000000 1.0
C      1  0.4689400000000  0.4541470000000  0.4423110000000 1.0
C      1  0.4485760000000  0.5187890000000  0.4506280000000 1.0
C      1  0.5139620000000  0.4469170000000  0.4780950000000 1.0
C      1  0.5541330000000  0.5223130000000  0.4746070000000 1.0
C      1  0.5088450000000  0.5441000000000  0.4824500000000 1.0
C      1  0.5098600000000  0.4921780000000  0.5643770000000 1.0
C      1  0.4481500000000  0.5102040000000  0.5445850000000 1.0
C      1  0.5350210000000  0.5018060000000  0.5307800000000 1.0
C      1  0.5041240000000  0.5398490000000  0.5506150000000 1.0
C      1  0.4517370000000  0.5392110000000  0.5416070000000 1.0
C      1  0.4970170000000  0.5221550000000  0.4422250000000 1.0
C      1  0.4594150000000  0.4956770000000  0.5206280000000 1.0
C      1  0.4988190000000  0.5564200000000  0.5073050000000 1.0
C      1  0.4405970000000  0.5170800000000  0.4776590000000 1.0
C      1  0.4704740000000  0.4376670000000  0.4922820000000 1.0
C      1  0.4433380000000  0.4660830000000  0.4852850000000 1.0
C      1  0.4996800000000  0.5108580000000  0.4919420000000 1.0
C      1  0.4480310000000  0.5464260000000  0.4440610000000 1.0
C      1  0.4702370000000  0.5603380000000  0.4545950000000 1.0
C      1  0.5414240000000  0.4484110000000  0.4824890000000 1.0
C      1  0.4948970000000  0.5469710000000  0.4570130000000 1.0
C      1  0.5587220000000  0.5208790000000  0.5212130000000 1.0
C      1  0.5063580000000  0.4544190000000  0.5250970000000 1.0
C      1  0.5670580000000  0.4789100000000  0.4948660000000 1.0
C      1  0.5725550000000  0.5138700000000  0.5473200000000 1.0
C      1  0.5086970000000  0.4793190000000  0.4404720000000 1.0
C      1  0.4733730000000  0.5036400000000  0.4467300000000 1.0
C      1  0.4517140000000  0.4508140000000  0.5083340000000 1.0
C      1  0.4373400000000  0.5435680000000  0.4899790000000 1.0
C      1  0.5422140000000  0.5451980000000  0.5149230000000 1.0
C      1  0.4526760000000  0.4937110000000  0.4909810000000 1.0
C      1  0.5346870000000  0.4790160000000  0.5672660000000 1.0
C      1  0.5382430000000  0.4524800000000  0.5599990000000 1.0
C      1  0.5345180000000  0.4450660000000  0.5345470000000 1.0
C      1  0.5485000000000  0.4589800000000  0.5092220000000 1.0
C      1  0.4810330000000  0.4773860000000  0.4329110000000 1.0
C      1  0.5665590000000  0.5075660000000  0.4956950000000 1.0
C      1  0.5262540000000  0.4788590000000  0.5138750000000 1.0
C      1  0.5049220000000  0.4732430000000  0.4690920000000 1.0
C      1  0.5105780000000  0.5124910000000  0.5425490000000 1.0
C      1  0.4762810000000  0.5357730000000  0.5580260000000 1.0
C      1  0.4607500000000  0.4673090000000  0.5286270000000 1.0
C      1  0.4868730000000  0.5127760000000  0.5187070000000 1.0
C      1  0.4448350000000  0.5616050000000  0.4680440000000 1.0
C      1  0.5170130000000  0.5533540000000  0.5278400000000 1.0
C      1  0.4973740000000  0.4410640000000  0.5000840000000 1.0
END
