TITL C-160264-1682-2 -0.0218157230135667 125000 -110.603555394417 0 0 17 (C1) n - 1
REM
REM in /rds/project/t2_vol4/rds-t2-cs072/BORA/CARBON/from-Arr/AIRSS/Generating-Clusters/GAP-ML-2020/Only-C1/SD-CG/HFTN-CG
REM
REM
REM
REM
REM
REM ./C.cell (11c1c37f851c82e70ff6c80c92926a4b)
REM AIRSS Version 0.9.1 bugfix July 2018 build 013d7b7c2542+ Fri, 06 Jul 2018 19:26:36 +0100
REM compiler GCC version 9.3.0
REM options -cpp -mtune=generic -march=x86-64 -g -O0
REM seed -1768973865 569163470 -1530214915 -1092666185 -73433242 -1315192559 -1527936196 -1969557243 567770433 1678006457 -522992045 837486222 1081175150 -777293121 1208433601 -1846122264 134846460 -250608770 -143325580 271907944 515754873 -1983011478 -2051659056 963873046 -1649086342 1364837838 538801485 -1442946613 -1842553147 -637976562 1959784353 1967877124 1368905113
REM
CELL 1.54180   50.00000   50.00000   50.00000   90.00000   90.00000   90.00000
LATT -1
SFAC C  
C      1  0.5255760000000  0.4493300000000  0.5145280000000 1.0
C      1  0.4766280000000  0.4537330000000  0.5142480000000 1.0
C      1  0.4850680000000  0.4900750000000  0.4530610000000 1.0
C      1  0.4565400000000  0.5490570000000  0.5118040000000 1.0
C      1  0.4788150000000  0.4665130000000  0.4454860000000 1.0
C      1  0.4592850000000  0.4732630000000  0.5158770000000 1.0
C      1  0.4590360000000  0.5233250000000  0.5135410000000 1.0
C      1  0.5000170000000  0.4429850000000  0.5136450000000 1.0
C      1  0.5282590000000  0.5330780000000  0.4958510000000 1.0
C      1  0.5011040000000  0.5102160000000  0.4595200000000 1.0
C      1  0.5007560000000  0.5632650000000  0.5292450000000 1.0
C      1  0.5454150000000  0.4655160000000  0.5151840000000 1.0
C      1  0.5145570000000  0.5509460000000  0.5123130000000 1.0
C      1  0.5156090000000  0.5261400000000  0.4718270000000 1.0
C      1  0.4533680000000  0.4977620000000  0.5155960000000 1.0
C      1  0.5534540000000  0.4906000000000  0.5123380000000 1.0
C      1  0.5465130000000  0.5141950000000  0.5059360000000 1.0
END
