TITL C-166684-7367-8 14.0123184784705 125000 -432.490933855434 0 0 64 (C1) n - 1
REM
REM in /rds/project/t2_vol4/rds-t2-cs072/BORA/CARBON/from-Arr/AIRSS/Generating-Clusters/GAP-ML-2020/Only-C1/SD-CG/HFTN-CG
REM
REM
REM
REM
REM
REM ./C.cell (11c1c37f851c82e70ff6c80c92926a4b)
REM AIRSS Version 0.9.1 bugfix July 2018 build 013d7b7c2542+ Fri, 06 Jul 2018 19:26:36 +0100
REM compiler GCC version 9.3.0
REM options -cpp -mtune=generic -march=x86-64 -g -O0
REM seed 1028787137 335308787 -342602932 1038157662 -1392971305 -266144895 1522823151 1301209334 1503801303 1596478653 -514251900 -1140215394 197172951 2136174139 -2021486548 -236994831 -1373825851 -1304827446 169687987 1340735627 265754327 -1686630180 -1569758786 917259596 -966869456 -1296551887 823678121 -1084275608 1591752117 -498746471 1282234031 -521143271 -1573056553
REM
CELL 1.54180   50.00000   50.00000   50.00000   90.00000   90.00000   90.00000
LATT -1
SFAC C  
C      1  0.4317090000000  0.5307530000000  0.4802830000000 1.0
C      1  0.5117240000000  0.5629220000000  0.5183020000000 1.0
C      1  0.4371780000000  0.4905850000000  0.4674990000000 1.0
C      1  0.4953120000000  0.5149300000000  0.4384810000000 1.0
C      1  0.4351110000000  0.4625780000000  0.4798790000000 1.0
C      1  0.4931970000000  0.4300430000000  0.5112820000000 1.0
C      1  0.4909760000000  0.5408150000000  0.4531110000000 1.0
C      1  0.5351660000000  0.4514080000000  0.4802740000000 1.0
C      1  0.4544320000000  0.4524790000000  0.4599190000000 1.0
C      1  0.5212190000000  0.5259110000000  0.5419480000000 1.0
C      1  0.5526900000000  0.5616480000000  0.4951040000000 1.0
C      1  0.5292140000000  0.4825080000000  0.4421830000000 1.0
C      1  0.4323870000000  0.4918330000000  0.5167050000000 1.0
C      1  0.4422970000000  0.5387810000000  0.5307680000000 1.0
C      1  0.4341350000000  0.4642340000000  0.5091430000000 1.0
C      1  0.4866600000000  0.5527550000000  0.5272560000000 1.0
C      1  0.4784250000000  0.5188950000000  0.5718100000000 1.0
C      1  0.4511550000000  0.5095670000000  0.5632420000000 1.0
C      1  0.4704660000000  0.5145930000000  0.5056010000000 1.0
C      1  0.4755100000000  0.4342630000000  0.4610330000000 1.0
C      1  0.4775490000000  0.5030270000000  0.5342460000000 1.0
C      1  0.4572470000000  0.4788240000000  0.4475830000000 1.0
C      1  0.4910250000000  0.4745650000000  0.4865000000000 1.0
C      1  0.4514980000000  0.5514640000000  0.4830030000000 1.0
C      1  0.4515880000000  0.4593960000000  0.5318860000000 1.0
C      1  0.5789530000000  0.4742720000000  0.4757270000000 1.0
C      1  0.5158110000000  0.4442750000000  0.5234390000000 1.0
C      1  0.5162900000000  0.5426200000000  0.4696910000000 1.0
C      1  0.4191310000000  0.5140850000000  0.4625160000000 1.0
C      1  0.5036860000000  0.4692710000000  0.4378840000000 1.0
C      1  0.5233910000000  0.5100800000000  0.4387570000000 1.0
C      1  0.4443910000000  0.5060650000000  0.4950570000000 1.0
C      1  0.4818450000000  0.4887220000000  0.4364940000000 1.0
C      1  0.4684890000000  0.5537480000000  0.4619110000000 1.0
C      1  0.5208990000000  0.4943640000000  0.5657130000000 1.0
C      1  0.5690410000000  0.5405960000000  0.4851250000000 1.0
C      1  0.4345640000000  0.5315960000000  0.5539050000000 1.0
C      1  0.4982970000000  0.4564260000000  0.5433250000000 1.0
C      1  0.5443690000000  0.4990160000000  0.4825870000000 1.0
C      1  0.5190170000000  0.5072870000000  0.5153380000000 1.0
C      1  0.5589230000000  0.4959440000000  0.5349170000000 1.0
C      1  0.5185210000000  0.5146230000000  0.4873740000000 1.0
C      1  0.5582050000000  0.5513320000000  0.5223540000000 1.0
C      1  0.5819330000000  0.5041660000000  0.5201770000000 1.0
C      1  0.4512710000000  0.4895860000000  0.5414700000000 1.0
C      1  0.5414500000000  0.4871190000000  0.5126330000000 1.0
C      1  0.5861530000000  0.4863200000000  0.4968630000000 1.0
C      1  0.5346080000000  0.4581410000000  0.5078060000000 1.0
C      1  0.4625930000000  0.5452120000000  0.5118660000000 1.0
C      1  0.4969750000000  0.4978600000000  0.5781240000000 1.0
C      1  0.5460570000000  0.4743660000000  0.4652770000000 1.0
C      1  0.4911840000000  0.5294450000000  0.5464640000000 1.0
C      1  0.5162860000000  0.4340360000000  0.4693490000000 1.0
C      1  0.5583420000000  0.5220580000000  0.4677720000000 1.0
C      1  0.4752080000000  0.4439600000000  0.5313980000000 1.0
C      1  0.5373780000000  0.5309540000000  0.4511280000000 1.0
C      1  0.4997380000000  0.4433520000000  0.4473490000000 1.0
C      1  0.4969690000000  0.4837610000000  0.5509790000000 1.0
C      1  0.5419780000000  0.5076600000000  0.5546950000000 1.0
C      1  0.4942410000000  0.5001620000000  0.4958020000000 1.0
C      1  0.5324360000000  0.5511640000000  0.5340780000000 1.0
C      1  0.4929520000000  0.4242390000000  0.4839690000000 1.0
C      1  0.5246590000000  0.5627270000000  0.4911700000000 1.0
C      1  0.5758940000000  0.5306140000000  0.5124750000000 1.0
END
