TITL C-167830-8073-6 44.5260460981167 125000 -627.583640952182 0 0 90 (C1) n - 1
REM
REM in /rds/project/t2_vol4/rds-t2-cs072/BORA/CARBON/from-Arr/AIRSS/Generating-Clusters/GAP-ML-2020/Only-C1/SD-CG/HFTN-CG
REM
REM
REM
REM
REM
REM ./C.cell (11c1c37f851c82e70ff6c80c92926a4b)
REM AIRSS Version 0.9.1 bugfix July 2018 build 013d7b7c2542+ Fri, 06 Jul 2018 19:26:36 +0100
REM compiler GCC version 9.3.0
REM options -cpp -mtune=generic -march=x86-64 -g -O0
REM seed 1029499215 -2020297219 -88459421 -144677385 1075195249 124720779 -1997971036 -1188373556 686723030 -1711963208 -315235884 -1795646827 1770121247 -720901573 -414221751 87641444 826836910 -1576491582 -2121485175 1219638424 -535930850 -315879055 -1256572347 1101790874 463729391 754216161 1545250691 64273827 660270126 -1883978099 -662912729 1097193855 -1001272150
REM
CELL 1.54180   50.00000   50.00000   50.00000   90.00000   90.00000   90.00000
LATT -1
SFAC C  
C      1  0.5776470000000  0.5015400000000  0.5517020000000 1.0
C      1  0.4370200000000  0.4496800000000  0.4550360000000 1.0
C      1  0.4378080000000  0.4464930000000  0.5082700000000 1.0
C      1  0.4340820000000  0.5034590000000  0.5044360000000 1.0
C      1  0.4227810000000  0.5048820000000  0.5330260000000 1.0
C      1  0.5356330000000  0.4364700000000  0.4695740000000 1.0
C      1  0.4886350000000  0.4770170000000  0.5304030000000 1.0
C      1  0.5512700000000  0.4977760000000  0.4372200000000 1.0
C      1  0.5341070000000  0.4239450000000  0.4961790000000 1.0
C      1  0.5590570000000  0.4364320000000  0.5037860000000 1.0
C      1  0.5186630000000  0.4858350000000  0.5253850000000 1.0
C      1  0.4728600000000  0.5584390000000  0.5351850000000 1.0
C      1  0.5120530000000  0.4452890000000  0.4565860000000 1.0
C      1  0.4230150000000  0.5163830000000  0.4337630000000 1.0
C      1  0.4502450000000  0.4714940000000  0.4409930000000 1.0
C      1  0.5777530000000  0.4789390000000  0.5086800000000 1.0
C      1  0.5233590000000  0.4927400000000  0.4304280000000 1.0
C      1  0.5703160000000  0.5295770000000  0.5137630000000 1.0
C      1  0.4636860000000  0.4406270000000  0.5411850000000 1.0
C      1  0.4689600000000  0.4985670000000  0.5391270000000 1.0
C      1  0.5676780000000  0.4554740000000  0.5228470000000 1.0
C      1  0.5218450000000  0.5309800000000  0.5194600000000 1.0
C      1  0.5145720000000  0.5755440000000  0.5151880000000 1.0
C      1  0.5470350000000  0.5187010000000  0.5813380000000 1.0
C      1  0.4317190000000  0.5429630000000  0.4325330000000 1.0
C      1  0.4446310000000  0.5519800000000  0.4547430000000 1.0
C      1  0.5140750000000  0.5507080000000  0.5603800000000 1.0
C      1  0.4862800000000  0.4347500000000  0.4974300000000 1.0
C      1  0.5125730000000  0.4334200000000  0.5369470000000 1.0
C      1  0.5694350000000  0.5224870000000  0.4639750000000 1.0
C      1  0.5298990000000  0.5084520000000  0.5331000000000 1.0
C      1  0.4273110000000  0.5309840000000  0.5395770000000 1.0
C      1  0.5022020000000  0.5083060000000  0.5775610000000 1.0
C      1  0.4899960000000  0.4517770000000  0.5480420000000 1.0
C      1  0.5441570000000  0.4904840000000  0.5813970000000 1.0
C      1  0.5162570000000  0.4829160000000  0.5808970000000 1.0
C      1  0.4406930000000  0.4581610000000  0.5355370000000 1.0
C      1  0.5216870000000  0.5297820000000  0.5774970000000 1.0
C      1  0.4284950000000  0.5182750000000  0.4802070000000 1.0
C      1  0.4427850000000  0.4802220000000  0.4892750000000 1.0
C      1  0.4583850000000  0.5215610000000  0.4672940000000 1.0
C      1  0.5291070000000  0.5570350000000  0.5351610000000 1.0
C      1  0.4311310000000  0.4557770000000  0.4822400000000 1.0
C      1  0.5183570000000  0.4919100000000  0.4761890000000 1.0
C      1  0.5740450000000  0.4736820000000  0.4799270000000 1.0
C      1  0.4858740000000  0.5723590000000  0.5139310000000 1.0
C      1  0.5615930000000  0.4480530000000  0.4771390000000 1.0
C      1  0.4432990000000  0.4967970000000  0.4310390000000 1.0
C      1  0.5107330000000  0.4580430000000  0.5697570000000 1.0
C      1  0.4808730000000  0.5166750000000  0.5604140000000 1.0
C      1  0.5073540000000  0.4745900000000  0.4491410000000 1.0
C      1  0.5749620000000  0.5514730000000  0.5570200000000 1.0
C      1  0.5247290000000  0.5689480000000  0.4891920000000 1.0
C      1  0.4868150000000  0.5289120000000  0.4305850000000 1.0
C      1  0.4411000000000  0.4848140000000  0.5440240000000 1.0
C      1  0.4773530000000  0.4812740000000  0.4522500000000 1.0
C      1  0.5592540000000  0.5485590000000  0.5345920000000 1.0
C      1  0.4898360000000  0.5555620000000  0.4427260000000 1.0
C      1  0.4686760000000  0.5092660000000  0.4421920000000 1.0
C      1  0.4688980000000  0.4174050000000  0.4518870000000 1.0
C      1  0.4446510000000  0.4237090000000  0.4463640000000 1.0
C      1  0.5172140000000  0.4758370000000  0.4985830000000 1.0
C      1  0.5275320000000  0.5362420000000  0.4909760000000 1.0
C      1  0.4490290000000  0.5441820000000  0.5250070000000 1.0
C      1  0.5587010000000  0.5325040000000  0.4882350000000 1.0
C      1  0.5638400000000  0.4795400000000  0.5640750000000 1.0
C      1  0.5126070000000  0.5188110000000  0.4242240000000 1.0
C      1  0.4442990000000  0.5584840000000  0.4997180000000 1.0
C      1  0.4615910000000  0.4301280000000  0.5141920000000 1.0
C      1  0.5106170000000  0.4242760000000  0.5112580000000 1.0
C      1  0.5065300000000  0.5168460000000  0.4823970000000 1.0
C      1  0.4286950000000  0.5481490000000  0.4796380000000 1.0
C      1  0.5689840000000  0.5258010000000  0.5648400000000 1.0
C      1  0.4696610000000  0.5660140000000  0.4607310000000 1.0
C      1  0.5705390000000  0.4933320000000  0.4596210000000 1.0
C      1  0.5280630000000  0.5776810000000  0.4638300000000 1.0
C      1  0.5319100000000  0.4442890000000  0.5547840000000 1.0
C      1  0.4717100000000  0.4835430000000  0.4826040000000 1.0
C      1  0.4615930000000  0.5157270000000  0.5145460000000 1.0
C      1  0.4889990000000  0.4303010000000  0.4670660000000 1.0
C      1  0.4157370000000  0.5062570000000  0.4581250000000 1.0
C      1  0.4772900000000  0.5128010000000  0.4889690000000 1.0
C      1  0.5577370000000  0.4561140000000  0.5496350000000 1.0
C      1  0.4679780000000  0.5704600000000  0.4904390000000 1.0
C      1  0.4886790000000  0.4666340000000  0.5005760000000 1.0
C      1  0.5547580000000  0.5265080000000  0.4390200000000 1.0
C      1  0.5314960000000  0.5398210000000  0.4299000000000 1.0
C      1  0.5801860000000  0.5038920000000  0.5233790000000 1.0
C      1  0.4866960000000  0.5449940000000  0.5550920000000 1.0
C      1  0.5180250000000  0.5624760000000  0.4428180000000 1.0
END
