TITL C-166683-7392-3 8.92938467417111 125000 -236.09835714365 0 0 36 (C1) n - 1
REM
REM in /rds/project/t2_vol4/rds-t2-cs072/BORA/CARBON/from-Arr/AIRSS/Generating-Clusters/GAP-ML-2020/Only-C1/SD-CG/HFTN-CG
REM
REM
REM
REM
REM
REM ./C.cell (11c1c37f851c82e70ff6c80c92926a4b)
REM AIRSS Version 0.9.1 bugfix July 2018 build 013d7b7c2542+ Fri, 06 Jul 2018 19:26:36 +0100
REM compiler GCC version 9.3.0
REM options -cpp -mtune=generic -march=x86-64 -g -O0
REM seed 473738768 2104644112 -648251058 -52056880 484028259 317035398 -1289001306 -1195267314 -1305621991 -1375128425 1144937416 -718352405 -1709567285 836178234 -1604554534 -396937169 -2069271826 -356888446 1530512883 587270883 1716574165 1917577120 -1996895236 -1407818049 -1023341851 -888206295 1433343525 1286390157 -1565108927 -709058717 1088261000 1496344218 -1888461840
REM
CELL 1.54180   50.00000   50.00000   50.00000   90.00000   90.00000   90.00000
LATT -1
SFAC C  
C      1  0.5587760000000  0.5201540000000  0.5248310000000 1.0
C      1  0.4790820000000  0.5344390000000  0.4767060000000 1.0
C      1  0.5588480000000  0.4981560000000  0.5049780000000 1.0
C      1  0.4682530000000  0.4655330000000  0.5137790000000 1.0
C      1  0.4863530000000  0.5076530000000  0.4778130000000 1.0
C      1  0.5373930000000  0.4775700000000  0.4646750000000 1.0
C      1  0.4925920000000  0.4908950000000  0.4561480000000 1.0
C      1  0.4489050000000  0.4869780000000  0.5060760000000 1.0
C      1  0.4841050000000  0.4272200000000  0.4846210000000 1.0
C      1  0.5117810000000  0.5219820000000  0.5213000000000 1.0
C      1  0.4966300000000  0.5502380000000  0.4630990000000 1.0
C      1  0.5104060000000  0.5062400000000  0.4963100000000 1.0
C      1  0.5219450000000  0.4609550000000  0.4826840000000 1.0
C      1  0.5524010000000  0.4996320000000  0.4783950000000 1.0
C      1  0.4716130000000  0.5505400000000  0.5272230000000 1.0
C      1  0.4657010000000  0.5374890000000  0.5015250000000 1.0
C      1  0.4597430000000  0.5237740000000  0.5409260000000 1.0
C      1  0.4809710000000  0.4649460000000  0.4565040000000 1.0
C      1  0.5196390000000  0.4967470000000  0.4526600000000 1.0
C      1  0.4934210000000  0.4911480000000  0.5466310000000 1.0
C      1  0.5402520000000  0.5379290000000  0.5176570000000 1.0
C      1  0.4710280000000  0.5047730000000  0.5553830000000 1.0
C      1  0.4377210000000  0.4770430000000  0.4818180000000 1.0
C      1  0.5429710000000  0.4985900000000  0.5437890000000 1.0
C      1  0.5287050000000  0.5166480000000  0.4739690000000 1.0
C      1  0.4660020000000  0.4445100000000  0.4943130000000 1.0
C      1  0.5163250000000  0.4774780000000  0.5062880000000 1.0
C      1  0.5187640000000  0.5446870000000  0.4776990000000 1.0
C      1  0.5417200000000  0.4823950000000  0.5209250000000 1.0
C      1  0.4558760000000  0.4608160000000  0.4704550000000 1.0
C      1  0.4924210000000  0.4744060000000  0.5239120000000 1.0
C      1  0.4980290000000  0.5470780000000  0.5217720000000 1.0
C      1  0.5213160000000  0.5540970000000  0.5048930000000 1.0
C      1  0.5001890000000  0.4460120000000  0.4709750000000 1.0
C      1  0.4528080000000  0.5145280000000  0.5141620000000 1.0
C      1  0.5173160000000  0.5067220000000  0.5451060000000 1.0
END
