TITL C-167819-8095-2 -283.362287799438 125000 -472.192676052938 0 0 69 (C1) n - 1
REM
REM in /rds/project/t2_vol4/rds-t2-cs072/BORA/CARBON/from-Arr/AIRSS/Generating-Clusters/GAP-ML-2020/Only-C1/SD-CG/HFTN-CG
REM
REM
REM
REM
REM
REM ./C.cell (11c1c37f851c82e70ff6c80c92926a4b)
REM AIRSS Version 0.9.1 bugfix July 2018 build 013d7b7c2542+ Fri, 06 Jul 2018 19:26:36 +0100
REM compiler GCC version 9.3.0
REM options -cpp -mtune=generic -march=x86-64 -g -O0
REM seed 1148917634 -377817843 1829848671 1033157326 1610048389 252993787 -695176833 -1239185638 -1551245797 1980692442 516972039 1612284567 1158065585 -578006137 62617422 1329665258 1514756817 820686370 424684104 -1240174539 2021142606 -315296354 -839368395 458804699 1466259448 676314965 1666669783 -1921811038 987452772 -955660257 1192643711 -717021033 -977222263
REM
CELL 1.54180   50.00000   50.00000   50.00000   90.00000   90.00000   90.00000
LATT -1
SFAC C  
C      1  0.4922190000000  0.5074190000000  0.5061600000000 1.0
C      1  0.4962800000000  0.5550250000000  0.5515880000000 1.0
C      1  0.4618660000000  0.5014020000000  0.5023030000000 1.0
C      1  0.4420450000000  0.5013070000000  0.5480820000000 1.0
C      1  0.5257710000000  0.4938370000000  0.5747260000000 1.0
C      1  0.5070690000000  0.5714160000000  0.5309840000000 1.0
C      1  0.4975880000000  0.5772150000000  0.4854250000000 1.0
C      1  0.5608880000000  0.4721780000000  0.5067080000000 1.0
C      1  0.5261550000000  0.5524590000000  0.4478610000000 1.0
C      1  0.5158670000000  0.5519370000000  0.4903150000000 1.0
C      1  0.4787060000000  0.5667640000000  0.4667550000000 1.0
C      1  0.4968720000000  0.4954470000000  0.4166540000000 1.0
C      1  0.5481710000000  0.5428560000000  0.5265440000000 1.0
C      1  0.4364960000000  0.5195150000000  0.5091550000000 1.0
C      1  0.4938580000000  0.5502360000000  0.4468670000000 1.0
C      1  0.5595990000000  0.4706980000000  0.4779610000000 1.0
C      1  0.4602630000000  0.5228370000000  0.5567630000000 1.0
C      1  0.4682760000000  0.4291610000000  0.4760810000000 1.0
C      1  0.5330400000000  0.4707330000000  0.4315640000000 1.0
C      1  0.5051340000000  0.5032090000000  0.5301940000000 1.0
C      1  0.4545830000000  0.4519240000000  0.4667570000000 1.0
C      1  0.5149680000000  0.5384520000000  0.5644440000000 1.0
C      1  0.4736410000000  0.4804900000000  0.5738100000000 1.0
C      1  0.4550440000000  0.4589520000000  0.5308640000000 1.0
C      1  0.4428470000000  0.4757770000000  0.5093110000000 1.0
C      1  0.5072410000000  0.4914040000000  0.4862920000000 1.0
C      1  0.4936770000000  0.4623260000000  0.5754320000000 1.0
C      1  0.4755250000000  0.4395140000000  0.5257710000000 1.0
C      1  0.4485500000000  0.5024600000000  0.4712330000000 1.0
C      1  0.4786770000000  0.5089090000000  0.5748530000000 1.0
C      1  0.5410120000000  0.5335850000000  0.5529520000000 1.0
C      1  0.5061650000000  0.5147190000000  0.5774570000000 1.0
C      1  0.5298070000000  0.4468760000000  0.4474510000000 1.0
C      1  0.5140730000000  0.5420780000000  0.4263360000000 1.0
C      1  0.4273380000000  0.4977990000000  0.5231950000000 1.0
C      1  0.4891690000000  0.5243870000000  0.4602260000000 1.0
C      1  0.4810290000000  0.4252450000000  0.5006600000000 1.0
C      1  0.5365630000000  0.4971090000000  0.4425130000000 1.0
C      1  0.4655900000000  0.5096090000000  0.4490290000000 1.0
C      1  0.4618770000000  0.5492820000000  0.4881490000000 1.0
C      1  0.4407800000000  0.5290190000000  0.4836600000000 1.0
C      1  0.5450090000000  0.5066180000000  0.5589600000000 1.0
C      1  0.5349690000000  0.4345320000000  0.4978290000000 1.0
C      1  0.4533640000000  0.4759980000000  0.5542570000000 1.0
C      1  0.5042610000000  0.4361780000000  0.5324190000000 1.0
C      1  0.5021190000000  0.4665580000000  0.4839710000000 1.0
C      1  0.5098980000000  0.4237540000000  0.5066780000000 1.0
C      1  0.5152000000000  0.5092610000000  0.4629790000000 1.0
C      1  0.5191540000000  0.5135780000000  0.4223160000000 1.0
C      1  0.5325620000000  0.5360710000000  0.4708760000000 1.0
C      1  0.5061870000000  0.4690460000000  0.4207500000000 1.0
C      1  0.5453540000000  0.4506920000000  0.5192910000000 1.0
C      1  0.5567830000000  0.5216590000000  0.4798390000000 1.0
C      1  0.5278540000000  0.5586940000000  0.5162670000000 1.0
C      1  0.4711330000000  0.5027630000000  0.4231380000000 1.0
C      1  0.4650550000000  0.5615950000000  0.5168280000000 1.0
C      1  0.4765270000000  0.4396230000000  0.4514020000000 1.0
C      1  0.5576150000000  0.4965410000000  0.4649410000000 1.0
C      1  0.5349270000000  0.4987750000000  0.5339690000000 1.0
C      1  0.5266300000000  0.4506110000000  0.5426960000000 1.0
C      1  0.5582970000000  0.4974500000000  0.5180510000000 1.0
C      1  0.4421230000000  0.4741310000000  0.4794510000000 1.0
C      1  0.4869610000000  0.5792760000000  0.5125980000000 1.0
C      1  0.5436620000000  0.4463120000000  0.4720840000000 1.0
C      1  0.5608410000000  0.5233950000000  0.5078410000000 1.0
C      1  0.5192170000000  0.4663580000000  0.5672580000000 1.0
C      1  0.4894090000000  0.5328490000000  0.4899340000000 1.0
C      1  0.5008140000000  0.4456260000000  0.4376120000000 1.0
C      1  0.4697510000000  0.5464910000000  0.5426770000000 1.0
END
