TITL C-160276-8247-1 -159.400745824963 125000 -491.428968702316 0 0 72 (C1) n - 1
REM
REM in /rds/project/t2_vol4/rds-t2-cs072/BORA/CARBON/from-Arr/AIRSS/Generating-Clusters/GAP-ML-2020/Only-C1/SD-CG/HFTN-CG
REM
REM
REM
REM
REM
REM ./C.cell (11c1c37f851c82e70ff6c80c92926a4b)
REM AIRSS Version 0.9.1 bugfix July 2018 build 013d7b7c2542+ Fri, 06 Jul 2018 19:26:36 +0100
REM compiler GCC version 9.3.0
REM options -cpp -mtune=generic -march=x86-64 -g -O0
REM seed -605927657 1494746080 -33255749 -1482292979 -1323950192 -402024827 1560415276 -644219960 -1339530199 21984722 -967432627 445655755 137868862 645023453 -652242681 -1106796603 1303576087 -524285824 1170694905 285353678 -348591804 -328671279 1166233088 -1150681441 1630119930 -1727276231 1668120801 -1993639014 -1042268981 -471218619 -797775001 -586620065 1209585477
REM
CELL 1.54180   50.00000   50.00000   50.00000   90.00000   90.00000   90.00000
LATT -1
SFAC C  
C      1  0.4888250000000  0.4571570000000  0.4807810000000 1.0
C      1  0.5813420000000  0.5086220000000  0.5322760000000 1.0
C      1  0.4628430000000  0.5410190000000  0.5513560000000 1.0
C      1  0.5030540000000  0.4350760000000  0.4928890000000 1.0
C      1  0.5216130000000  0.5468800000000  0.5174950000000 1.0
C      1  0.5402000000000  0.4750040000000  0.4483610000000 1.0
C      1  0.5238660000000  0.5240900000000  0.5659690000000 1.0
C      1  0.5715570000000  0.4603560000000  0.4826570000000 1.0
C      1  0.5327780000000  0.5070930000000  0.4926570000000 1.0
C      1  0.4414830000000  0.5382210000000  0.4729310000000 1.0
C      1  0.5014420000000  0.4847210000000  0.4806980000000 1.0
C      1  0.4628880000000  0.4494670000000  0.4684200000000 1.0
C      1  0.5663050000000  0.4908290000000  0.4463760000000 1.0
C      1  0.4345350000000  0.4752110000000  0.5384330000000 1.0
C      1  0.4833460000000  0.5050430000000  0.5769860000000 1.0
C      1  0.4706440000000  0.5129490000000  0.5157440000000 1.0
C      1  0.5784770000000  0.5269230000000  0.4757870000000 1.0
C      1  0.5057750000000  0.5180110000000  0.5859240000000 1.0
C      1  0.5027480000000  0.4484480000000  0.5347490000000 1.0
C      1  0.4972410000000  0.5298520000000  0.4706920000000 1.0
C      1  0.5143160000000  0.4907720000000  0.5090820000000 1.0
C      1  0.4683730000000  0.4967780000000  0.4485500000000 1.0
C      1  0.4618050000000  0.4955940000000  0.4961080000000 1.0
C      1  0.4451620000000  0.4431820000000  0.4909470000000 1.0
C      1  0.5293300000000  0.4450750000000  0.4938780000000 1.0
C      1  0.5548370000000  0.4693580000000  0.5305410000000 1.0
C      1  0.5623160000000  0.5457770000000  0.4903330000000 1.0
C      1  0.4280830000000  0.4762880000000  0.4649100000000 1.0
C      1  0.4892000000000  0.4309590000000  0.5167940000000 1.0
C      1  0.4372650000000  0.5010030000000  0.5517180000000 1.0
C      1  0.5494990000000  0.5163530000000  0.5581420000000 1.0
C      1  0.4600230000000  0.5151530000000  0.5645190000000 1.0
C      1  0.4195090000000  0.4792890000000  0.5133030000000 1.0
C      1  0.4266110000000  0.5199240000000  0.5323370000000 1.0
C      1  0.5459060000000  0.4529860000000  0.4726820000000 1.0
C      1  0.5902050000000  0.4932140000000  0.5109860000000 1.0
C      1  0.5401570000000  0.5333100000000  0.4489290000000 1.0
C      1  0.4885510000000  0.4883750000000  0.5541620000000 1.0
C      1  0.5181390000000  0.4775480000000  0.4304970000000 1.0
C      1  0.5831810000000  0.4813040000000  0.4669190000000 1.0
C      1  0.4874150000000  0.5515970000000  0.5440290000000 1.0
C      1  0.5268200000000  0.4631840000000  0.5206580000000 1.0
C      1  0.5649960000000  0.5197580000000  0.4504680000000 1.0
C      1  0.4547620000000  0.4549110000000  0.5396390000000 1.0
C      1  0.4961770000000  0.5643080000000  0.5199980000000 1.0
C      1  0.5620760000000  0.4918320000000  0.5477200000000 1.0
C      1  0.4605760000000  0.4407540000000  0.5154870000000 1.0
C      1  0.4711230000000  0.4683850000000  0.5027640000000 1.0
C      1  0.5245640000000  0.4945920000000  0.4656030000000 1.0
C      1  0.5648850000000  0.5321200000000  0.5380720000000 1.0
C      1  0.4153030000000  0.5078960000000  0.5095850000000 1.0
C      1  0.4455960000000  0.5172190000000  0.4518360000000 1.0
C      1  0.5195890000000  0.5338980000000  0.4903040000000 1.0
C      1  0.5089620000000  0.5308780000000  0.5406380000000 1.0
C      1  0.5913960000000  0.5027570000000  0.4844420000000 1.0
C      1  0.5756290000000  0.4675190000000  0.5106940000000 1.0
C      1  0.4507130000000  0.5333490000000  0.5271760000000 1.0
C      1  0.4822340000000  0.4614240000000  0.5497610000000 1.0
C      1  0.4581190000000  0.5597640000000  0.4789700000000 1.0
C      1  0.4532170000000  0.4706400000000  0.4529740000000 1.0
C      1  0.5395350000000  0.5476520000000  0.4732470000000 1.0
C      1  0.4234790000000  0.5028860000000  0.4623140000000 1.0
C      1  0.4958310000000  0.5000130000000  0.4288090000000 1.0
C      1  0.4813110000000  0.5682830000000  0.4961970000000 1.0
C      1  0.4245330000000  0.4630530000000  0.4904480000000 1.0
C      1  0.4956540000000  0.5053620000000  0.5294070000000 1.0
C      1  0.4844710000000  0.5565420000000  0.4712530000000 1.0
C      1  0.5150820000000  0.5184710000000  0.4497460000000 1.0
C      1  0.4805900000000  0.5039760000000  0.4749950000000 1.0
C      1  0.5522420000000  0.5471100000000  0.5174580000000 1.0
C      1  0.4197840000000  0.5206430000000  0.4845590000000 1.0
C      1  0.4899060000000  0.5120050000000  0.4042300000000 1.0
END
