TITL C-166708-7384-3 0.386474157767204 125000 -156.562148593765 0 0 24 (C1) n - 1
REM
REM in /rds/project/t2_vol4/rds-t2-cs072/BORA/CARBON/from-Arr/AIRSS/Generating-Clusters/GAP-ML-2020/Only-C1/SD-CG/HFTN-CG
REM
REM
REM
REM
REM
REM ./C.cell (11c1c37f851c82e70ff6c80c92926a4b)
REM AIRSS Version 0.9.1 bugfix July 2018 build 013d7b7c2542+ Fri, 06 Jul 2018 19:26:36 +0100
REM compiler GCC version 9.3.0
REM options -cpp -mtune=generic -march=x86-64 -g -O0
REM seed -1206779818 17575544 628478325 1908354003 -4703792 771042103 -1334691831 2028776157 -1917682222 -221113318 -1554605386 1009649449 842265958 -338395453 -797132162 699948500 655946627 -693141454 719704835 -1749954606 -2143150583 -1695754810 -2123478728 1968064723 -357974610 483074776 -1587993699 1426948235 775470326 -1248979150 1438053614 -1604987437 1632696584
REM
CELL 1.54180   50.00000   50.00000   50.00000   90.00000   90.00000   90.00000
LATT -1
SFAC C  
C      1  0.4684480000000  0.5023820000000  0.5369770000000 1.0
C      1  0.5267920000000  0.4518530000000  0.5300680000000 1.0
C      1  0.4853390000000  0.5324700000000  0.4607860000000 1.0
C      1  0.5274440000000  0.4345730000000  0.5111730000000 1.0
C      1  0.5020610000000  0.5408040000000  0.5255410000000 1.0
C      1  0.4903200000000  0.5048000000000  0.4542620000000 1.0
C      1  0.5227590000000  0.5244180000000  0.5337010000000 1.0
C      1  0.4498720000000  0.5279080000000  0.4953390000000 1.0
C      1  0.5155940000000  0.4986510000000  0.5458660000000 1.0
C      1  0.4525710000000  0.5094910000000  0.5168950000000 1.0
C      1  0.4717070000000  0.5415610000000  0.4839670000000 1.0
C      1  0.5336050000000  0.4609900000000  0.4746720000000 1.0
C      1  0.5314810000000  0.4788880000000  0.5316280000000 1.0
C      1  0.4963680000000  0.5425630000000  0.4995460000000 1.0
C      1  0.5163520000000  0.5056150000000  0.4688030000000 1.0
C      1  0.5424850000000  0.4939300000000  0.5086060000000 1.0
C      1  0.4459810000000  0.4851890000000  0.4676150000000 1.0
C      1  0.4684740000000  0.4885440000000  0.4553390000000 1.0
C      1  0.5340030000000  0.4876100000000  0.4811130000000 1.0
C      1  0.5453630000000  0.5203170000000  0.5173870000000 1.0
C      1  0.5298110000000  0.4375990000000  0.4840220000000 1.0
C      1  0.4890140000000  0.4956910000000  0.5508250000000 1.0
C      1  0.4429230000000  0.5015960000000  0.4893020000000 1.0
C      1  0.5112320000000  0.5325560000000  0.4765680000000 1.0
END
