TITL C-160280-8337-1 -37.8462152371837 125000 -205.056528834549 0 0 32 (C1) n - 1
REM
REM in /rds/project/t2_vol4/rds-t2-cs072/BORA/CARBON/from-Arr/AIRSS/Generating-Clusters/GAP-ML-2020/Only-C1/SD-CG/HFTN-CG
REM
REM
REM
REM
REM
REM ./C.cell (11c1c37f851c82e70ff6c80c92926a4b)
REM AIRSS Version 0.9.1 bugfix July 2018 build 013d7b7c2542+ Fri, 06 Jul 2018 19:26:36 +0100
REM compiler GCC version 9.3.0
REM options -cpp -mtune=generic -march=x86-64 -g -O0
REM seed 258269412 974459759 -1615737441 147714629 -845984835 932097780 1766733510 674596356 -1936086267 -1648832046 628208307 -833127916 -842088985 -1481601770 1753572128 -1909283179 1670400966 -19769966 -950192367 -673417379 1790606735 1867446506 -1347876365 -471930299 1728715318 -1850194555 1515454521 -1362273580 -1055141566 -1638773506 -1216965513 -964342368 -1924994740
REM
CELL 1.54180   50.00000   50.00000   50.00000   90.00000   90.00000   90.00000
LATT -1
SFAC C  
C      1  0.5437240000000  0.4605870000000  0.4777870000000 1.0
C      1  0.5271820000000  0.4670390000000  0.4562370000000 1.0
C      1  0.4957090000000  0.4365250000000  0.5201350000000 1.0
C      1  0.4969180000000  0.5124310000000  0.5210600000000 1.0
C      1  0.4391770000000  0.4849640000000  0.5039280000000 1.0
C      1  0.5222750000000  0.5277950000000  0.4811000000000 1.0
C      1  0.5081210000000  0.5479820000000  0.5506230000000 1.0
C      1  0.4559420000000  0.4751100000000  0.4675970000000 1.0
C      1  0.4877380000000  0.4837450000000  0.5184200000000 1.0
C      1  0.4371890000000  0.4662730000000  0.4822170000000 1.0
C      1  0.4604830000000  0.4964340000000  0.5484020000000 1.0
C      1  0.5678050000000  0.4787620000000  0.4842180000000 1.0
C      1  0.5402240000000  0.5127230000000  0.4654560000000 1.0
C      1  0.4734100000000  0.5123060000000  0.5643400000000 1.0
C      1  0.5343490000000  0.4634940000000  0.5046940000000 1.0
C      1  0.4592890000000  0.4813310000000  0.5254190000000 1.0
C      1  0.4754520000000  0.5172200000000  0.4692100000000 1.0
C      1  0.5572530000000  0.4791290000000  0.5144150000000 1.0
C      1  0.5641990000000  0.4946880000000  0.5341470000000 1.0
C      1  0.5121920000000  0.5539800000000  0.5230620000000 1.0
C      1  0.5032920000000  0.4816150000000  0.4535260000000 1.0
C      1  0.4977130000000  0.5330760000000  0.4699980000000 1.0
C      1  0.4568920000000  0.5242820000000  0.4901630000000 1.0
C      1  0.5270750000000  0.4946100000000  0.4467030000000 1.0
C      1  0.4740020000000  0.5345670000000  0.5106840000000 1.0
C      1  0.5053590000000  0.4611900000000  0.5149750000000 1.0
C      1  0.4873760000000  0.5592270000000  0.5111250000000 1.0
C      1  0.5209000000000  0.5288840000000  0.5100560000000 1.0
C      1  0.4764470000000  0.4902930000000  0.4582070000000 1.0
C      1  0.5640320000000  0.5037680000000  0.4745900000000 1.0
C      1  0.4334990000000  0.5117470000000  0.4964440000000 1.0
C      1  0.4947810000000  0.5242220000000  0.5510600000000 1.0
END
