TITL C-162431-1847-3 -0.190121462238505 125000 -714.622087630815 0 0 103 (C1) n - 1
REM
REM in /rds/project/t2_vol4/rds-t2-cs072/BORA/CARBON/from-Arr/AIRSS/Generating-Clusters/GAP-ML-2020/Only-C1/SD-CG/HFTN-CG
REM
REM
REM
REM
REM
REM ./C.cell (11c1c37f851c82e70ff6c80c92926a4b)
REM AIRSS Version 0.9.1 bugfix July 2018 build 013d7b7c2542+ Fri, 06 Jul 2018 19:26:36 +0100
REM compiler GCC version 9.3.0
REM options -cpp -mtune=generic -march=x86-64 -g -O0
REM seed 1968460061 -1639418340 786475009 113729815 -329090635 516805254 46812213 1204595706 541401130 -1422691840 737238776 1752843910 1919026536 -2015333224 816995212 953600750 -1598446921 -952654037 -348974029 1166425595 583336800 55416474 695024436 -24362758 -632594908 877680005 1671407656 967393596 1637009842 1495338767 -183689417 1428608681 -853308111
REM
CELL 1.54180   50.00000   50.00000   50.00000   90.00000   90.00000   90.00000
LATT -1
SFAC C  
C      1  0.4557180000000  0.5522340000000  0.5113730000000 1.0
C      1  0.5592180000000  0.5534540000000  0.4946120000000 1.0
C      1  0.5661830000000  0.4420690000000  0.4657190000000 1.0
C      1  0.4698670000000  0.5455190000000  0.5622390000000 1.0
C      1  0.5863050000000  0.4817860000000  0.4747780000000 1.0
C      1  0.5409920000000  0.5675140000000  0.5105900000000 1.0
C      1  0.5167210000000  0.4305170000000  0.5435280000000 1.0
C      1  0.5083080000000  0.4007660000000  0.5007800000000 1.0
C      1  0.4260770000000  0.5348020000000  0.4751640000000 1.0
C      1  0.5251800000000  0.4157370000000  0.5178760000000 1.0
C      1  0.4757340000000  0.5042030000000  0.5255110000000 1.0
C      1  0.5390360000000  0.5596090000000  0.5380220000000 1.0
C      1  0.5726200000000  0.4672820000000  0.4543880000000 1.0
C      1  0.4764240000000  0.5136000000000  0.4841820000000 1.0
C      1  0.5459630000000  0.5423560000000  0.4693250000000 1.0
C      1  0.4171020000000  0.4699270000000  0.5147900000000 1.0
C      1  0.5460410000000  0.4798230000000  0.5280490000000 1.0
C      1  0.4585100000000  0.5212820000000  0.5076010000000 1.0
C      1  0.4941170000000  0.4529220000000  0.5413970000000 1.0
C      1  0.5053510000000  0.4830130000000  0.5899030000000 1.0
C      1  0.4336840000000  0.4535610000000  0.4969670000000 1.0
C      1  0.4648990000000  0.4505450000000  0.5372200000000 1.0
C      1  0.4536850000000  0.5699740000000  0.4659830000000 1.0
C      1  0.5123980000000  0.4702740000000  0.4128840000000 1.0
C      1  0.5328870000000  0.4893310000000  0.5969960000000 1.0
C      1  0.4929440000000  0.5048330000000  0.5494210000000 1.0
C      1  0.5206050000000  0.5754310000000  0.4920230000000 1.0
C      1  0.4862640000000  0.5090440000000  0.4364570000000 1.0
C      1  0.4365010000000  0.5600650000000  0.4875810000000 1.0
C      1  0.4831790000000  0.4653400000000  0.4957430000000 1.0
C      1  0.4161920000000  0.5635450000000  0.5117110000000 1.0
C      1  0.5404480000000  0.5193760000000  0.5651650000000 1.0
C      1  0.5214710000000  0.5024880000000  0.4932720000000 1.0
C      1  0.4867730000000  0.4610210000000  0.4210350000000 1.0
C      1  0.3999360000000  0.5139870000000  0.5290020000000 1.0
C      1  0.5731240000000  0.4416770000000  0.4940760000000 1.0
C      1  0.5853420000000  0.5102920000000  0.4746500000000 1.0
C      1  0.5569790000000  0.5404280000000  0.5509140000000 1.0
C      1  0.5562630000000  0.4827100000000  0.4372790000000 1.0
C      1  0.4535640000000  0.5037590000000  0.5785460000000 1.0
C      1  0.4763160000000  0.4462540000000  0.4464930000000 1.0
C      1  0.5680260000000  0.5249040000000  0.4570160000000 1.0
C      1  0.4916880000000  0.4940520000000  0.5019220000000 1.0
C      1  0.5309250000000  0.4767420000000  0.4838540000000 1.0
C      1  0.4852130000000  0.4688490000000  0.4655550000000 1.0
C      1  0.5179140000000  0.5204780000000  0.5435080000000 1.0
C      1  0.4556570000000  0.4768320000000  0.5770720000000 1.0
C      1  0.4987580000000  0.5642080000000  0.4530440000000 1.0
C      1  0.5268530000000  0.4793740000000  0.4377310000000 1.0
C      1  0.5786410000000  0.5328460000000  0.5357700000000 1.0
C      1  0.5938110000000  0.5202010000000  0.4990820000000 1.0
C      1  0.4463080000000  0.4629800000000  0.5551080000000 1.0
C      1  0.4804630000000  0.5786240000000  0.4702840000000 1.0
C      1  0.4140040000000  0.5013100000000  0.5507690000000 1.0
C      1  0.5364080000000  0.4716780000000  0.5553480000000 1.0
C      1  0.5635200000000  0.5107370000000  0.4327780000000 1.0
C      1  0.4985570000000  0.5120240000000  0.5941690000000 1.0
C      1  0.5155820000000  0.5080110000000  0.4396490000000 1.0
C      1  0.4360860000000  0.5271670000000  0.4500010000000 1.0
C      1  0.5039020000000  0.4772730000000  0.5594910000000 1.0
C      1  0.5134580000000  0.5502430000000  0.5448310000000 1.0
C      1  0.4871640000000  0.5599520000000  0.5440190000000 1.0
C      1  0.4458650000000  0.4780680000000  0.4319600000000 1.0
C      1  0.5254570000000  0.5654660000000  0.4655300000000 1.0
C      1  0.4342370000000  0.5538820000000  0.5322330000000 1.0
C      1  0.5812260000000  0.5438950000000  0.5085080000000 1.0
C      1  0.4419520000000  0.5432130000000  0.5574950000000 1.0
C      1  0.4940030000000  0.5328980000000  0.4720420000000 1.0
C      1  0.4228080000000  0.4742100000000  0.5427890000000 1.0
C      1  0.5323090000000  0.4607770000000  0.5077370000000 1.0
C      1  0.4081440000000  0.4957490000000  0.5069030000000 1.0
C      1  0.5420860000000  0.4287790000000  0.4710810000000 1.0
C      1  0.5481450000000  0.4910930000000  0.5731840000000 1.0
C      1  0.4594010000000  0.4529960000000  0.5094740000000 1.0
C      1  0.4940300000000  0.4032670000000  0.4789700000000 1.0
C      1  0.4430730000000  0.5001560000000  0.4485730000000 1.0
C      1  0.5335620000000  0.4423040000000  0.5604640000000 1.0
C      1  0.4932600000000  0.4239400000000  0.4597920000000 1.0
C      1  0.5264660000000  0.5147000000000  0.4091860000000 1.0
C      1  0.5331970000000  0.5073850000000  0.5194640000000 1.0
C      1  0.4823640000000  0.5401570000000  0.4430340000000 1.0
C      1  0.5210650000000  0.5214620000000  0.4687210000000 1.0
C      1  0.4338680000000  0.4496570000000  0.4699000000000 1.0
C      1  0.4789320000000  0.5197020000000  0.5745240000000 1.0
C      1  0.5756640000000  0.4821780000000  0.5224680000000 1.0
C      1  0.5269240000000  0.5180080000000  0.5927870000000 1.0
C      1  0.4271510000000  0.5171470000000  0.4983090000000 1.0
C      1  0.5158590000000  0.4660550000000  0.4615720000000 1.0
C      1  0.5157720000000  0.4926470000000  0.3968000000000 1.0
C      1  0.4122920000000  0.5368600000000  0.5178410000000 1.0
C      1  0.5440720000000  0.4336420000000  0.5020310000000 1.0
C      1  0.4926960000000  0.5804190000000  0.4966020000000 1.0
C      1  0.4551910000000  0.5486500000000  0.4457870000000 1.0
C      1  0.5041030000000  0.4578900000000  0.5136080000000 1.0
C      1  0.5180940000000  0.4365810000000  0.4606730000000 1.0
C      1  0.5885250000000  0.5074180000000  0.5243450000000 1.0
C      1  0.4466890000000  0.4526290000000  0.4467690000000 1.0
C      1  0.4715340000000  0.4963550000000  0.4602430000000 1.0
C      1  0.4715850000000  0.4842570000000  0.4199370000000 1.0
C      1  0.4319710000000  0.5170660000000  0.5665250000000 1.0
C      1  0.5838710000000  0.4670010000000  0.4995990000000 1.0
C      1  0.5526160000000  0.5214460000000  0.4098260000000 1.0
C      1  0.4780810000000  0.5691590000000  0.5184680000000 1.0
END
