TITL C-167834-136-4 -150.348948479443 125000 -584.556794071737 0 0 84 (C1) n - 1
REM
REM in /rds/project/t2_vol4/rds-t2-cs072/BORA/CARBON/from-Arr/AIRSS/Generating-Clusters/GAP-ML-2020/Only-C1/SD-CG/HFTN-CG
REM
REM
REM
REM
REM
REM ./C.cell (11c1c37f851c82e70ff6c80c92926a4b)
REM AIRSS Version 0.9.1 bugfix July 2018 build 013d7b7c2542+ Fri, 06 Jul 2018 19:26:36 +0100
REM compiler GCC version 9.3.0
REM options -cpp -mtune=generic -march=x86-64 -g -O0
REM seed -205867402 820520961 434680186 24152152 -505277672 -1025722545 -1509814543 -1890758255 761339150 -1825007762 -1808378593 1620060815 1072192409 -391638944 -1094758520 1948760797 -7776736 1027378860 -1341965970 -766168283 -1599225783 1539939980 1742120962 -577499533 -597452717 -1530188479 836022112 -1516406019 -1329070768 -834456266 -884497131 -52192019 1758104723
REM
CELL 1.54180   50.00000   50.00000   50.00000   90.00000   90.00000   90.00000
LATT -1
SFAC C  
C      1  0.4434920000000  0.5399090000000  0.4559930000000 1.0
C      1  0.5071970000000  0.4467560000000  0.4594930000000 1.0
C      1  0.5243000000000  0.5737920000000  0.5316240000000 1.0
C      1  0.4574180000000  0.4392580000000  0.4386440000000 1.0
C      1  0.5398970000000  0.5123460000000  0.4736530000000 1.0
C      1  0.5336800000000  0.4525470000000  0.5453990000000 1.0
C      1  0.4307930000000  0.5020450000000  0.4538110000000 1.0
C      1  0.4933600000000  0.4321740000000  0.5278840000000 1.0
C      1  0.5319910000000  0.5389350000000  0.4823830000000 1.0
C      1  0.5295730000000  0.4630370000000  0.4477830000000 1.0
C      1  0.4804990000000  0.5754970000000  0.5190990000000 1.0
C      1  0.5533170000000  0.4621350000000  0.4637760000000 1.0
C      1  0.4517260000000  0.4593410000000  0.5359780000000 1.0
C      1  0.5096650000000  0.4288040000000  0.4832800000000 1.0
C      1  0.5043620000000  0.5382440000000  0.4939150000000 1.0
C      1  0.5463990000000  0.5146650000000  0.5190050000000 1.0
C      1  0.4270370000000  0.4491390000000  0.4788380000000 1.0
C      1  0.4840920000000  0.5565150000000  0.4758800000000 1.0
C      1  0.4873010000000  0.4418060000000  0.4385300000000 1.0
C      1  0.4876000000000  0.5187230000000  0.4445140000000 1.0
C      1  0.5533250000000  0.4462050000000  0.4891700000000 1.0
C      1  0.4611730000000  0.4676950000000  0.4277390000000 1.0
C      1  0.4653630000000  0.5644270000000  0.4986960000000 1.0
C      1  0.5076140000000  0.5740250000000  0.4666450000000 1.0
C      1  0.5812810000000  0.5322590000000  0.4684600000000 1.0
C      1  0.4683710000000  0.5087490000000  0.4860620000000 1.0
C      1  0.4795660000000  0.4963680000000  0.4623860000000 1.0
C      1  0.4503770000000  0.4888430000000  0.4971300000000 1.0
C      1  0.4336270000000  0.5049560000000  0.5316150000000 1.0
C      1  0.4167440000000  0.4609990000000  0.5043800000000 1.0
C      1  0.5597030000000  0.4608740000000  0.5363910000000 1.0
C      1  0.5830290000000  0.4807700000000  0.4958210000000 1.0
C      1  0.4811360000000  0.5167390000000  0.5651340000000 1.0
C      1  0.4683990000000  0.4738720000000  0.5146010000000 1.0
C      1  0.5217390000000  0.4343640000000  0.5277270000000 1.0
C      1  0.5092710000000  0.5182380000000  0.5714150000000 1.0
C      1  0.5139810000000  0.4817020000000  0.4298150000000 1.0
C      1  0.5224420000000  0.5353120000000  0.4368540000000 1.0
C      1  0.4884960000000  0.4666160000000  0.5622960000000 1.0
C      1  0.4961890000000  0.4732350000000  0.4761850000000 1.0
C      1  0.5107350000000  0.5119150000000  0.4295340000000 1.0
C      1  0.4503800000000  0.4661170000000  0.4762630000000 1.0
C      1  0.4671520000000  0.5370340000000  0.5489620000000 1.0
C      1  0.4753840000000  0.4575390000000  0.4907140000000 1.0
C      1  0.5791840000000  0.5305420000000  0.4952020000000 1.0
C      1  0.4291920000000  0.5242670000000  0.4386790000000 1.0
C      1  0.5143090000000  0.5909530000000  0.4860390000000 1.0
C      1  0.4769130000000  0.4468150000000  0.5459120000000 1.0
C      1  0.5736010000000  0.4822810000000  0.4684930000000 1.0
C      1  0.4454970000000  0.5306230000000  0.5303560000000 1.0
C      1  0.4706350000000  0.4905510000000  0.5635740000000 1.0
C      1  0.4268430000000  0.4498710000000  0.5264420000000 1.0
C      1  0.4814070000000  0.5612560000000  0.5440540000000 1.0
C      1  0.4900820000000  0.5154860000000  0.5038080000000 1.0
C      1  0.5318870000000  0.4310010000000  0.4997320000000 1.0
C      1  0.5261600000000  0.4946110000000  0.5719220000000 1.0
C      1  0.5480480000000  0.5587840000000  0.5300520000000 1.0
C      1  0.4719250000000  0.5424840000000  0.4537830000000 1.0
C      1  0.5123480000000  0.4849290000000  0.4995730000000 1.0
C      1  0.5871750000000  0.5062660000000  0.5091530000000 1.0
C      1  0.5072730000000  0.5845530000000  0.5117310000000 1.0
C      1  0.4227790000000  0.4924820000000  0.5056670000000 1.0
C      1  0.4472070000000  0.4860960000000  0.5487850000000 1.0
C      1  0.5745210000000  0.5071850000000  0.5345070000000 1.0
C      1  0.5224770000000  0.5430730000000  0.5666620000000 1.0
C      1  0.4900420000000  0.4669080000000  0.4231720000000 1.0
C      1  0.4305000000000  0.5360170000000  0.4832890000000 1.0
C      1  0.4206060000000  0.5091960000000  0.4813160000000 1.0
C      1  0.4870380000000  0.4319650000000  0.4998500000000 1.0
C      1  0.5167270000000  0.4691960000000  0.5628920000000 1.0
C      1  0.5688000000000  0.4828070000000  0.5499670000000 1.0
C      1  0.4938770000000  0.4920770000000  0.5190700000000 1.0
C      1  0.5268330000000  0.5534650000000  0.4567330000000 1.0
C      1  0.5690370000000  0.4591950000000  0.5089940000000 1.0
C      1  0.5652830000000  0.5223910000000  0.5583440000000 1.0
C      1  0.5538390000000  0.4979660000000  0.5693840000000 1.0
C      1  0.5080600000000  0.5629050000000  0.5524890000000 1.0
C      1  0.5530660000000  0.5416570000000  0.5061120000000 1.0
C      1  0.5489870000000  0.5440540000000  0.5557350000000 1.0
C      1  0.4540980000000  0.4832040000000  0.4517210000000 1.0
C      1  0.4364980000000  0.4349570000000  0.4572670000000 1.0
C      1  0.4440040000000  0.5465760000000  0.5055370000000 1.0
C      1  0.5376430000000  0.4970840000000  0.4981910000000 1.0
C      1  0.5664230000000  0.5097460000000  0.4623340000000 1.0
END
