TITL C-160255-8395-10 -0.00582855916375406 125000 -362.472734645303 0 0 55 (C1) n - 1
REM
REM in /rds/project/t2_vol4/rds-t2-cs072/BORA/CARBON/from-Arr/AIRSS/Generating-Clusters/GAP-ML-2020/Only-C1/SD-CG/HFTN-CG
REM
REM
REM
REM
REM
REM ./C.cell (11c1c37f851c82e70ff6c80c92926a4b)
REM AIRSS Version 0.9.1 bugfix July 2018 build 013d7b7c2542+ Fri, 06 Jul 2018 19:26:36 +0100
REM compiler GCC version 9.3.0
REM options -cpp -mtune=generic -march=x86-64 -g -O0
REM seed 1356001791 758450735 1599680523 173219468 29850112 523538652 -1344823896 1135588248 -99902214 1365558821 1834215026 -1535868029 -89247272 1956825834 1716841180 -1050439335 321637375 65912054 1224053481 -646215958 925752537 -39297342 -916979435 1205598044 -163171581 1978700031 1719456326 -2049735680 -1949848186 -1598629974 -1036055734 745729528 282836993
REM
CELL 1.54180   50.00000   50.00000   50.00000   90.00000   90.00000   90.00000
LATT -1
SFAC C  
C      1  0.4302860000000  0.4985790000000  0.4869960000000 1.0
C      1  0.4626520000000  0.5337250000000  0.4961060000000 1.0
C      1  0.4229690000000  0.4786830000000  0.4689820000000 1.0
C      1  0.4610260000000  0.4964320000000  0.5486680000000 1.0
C      1  0.4333690000000  0.4937700000000  0.5156900000000 1.0
C      1  0.5153800000000  0.4460970000000  0.5207670000000 1.0
C      1  0.4532390000000  0.4768970000000  0.5287720000000 1.0
C      1  0.5370160000000  0.4793080000000  0.4687730000000 1.0
C      1  0.4521270000000  0.5389020000000  0.5232000000000 1.0
C      1  0.5602360000000  0.4645920000000  0.5086760000000 1.0
C      1  0.4745830000000  0.4745320000000  0.5090280000000 1.0
C      1  0.5418790000000  0.5187990000000  0.5553890000000 1.0
C      1  0.4932140000000  0.5016910000000  0.4758370000000 1.0
C      1  0.5054210000000  0.5686940000000  0.4853930000000 1.0
C      1  0.4831180000000  0.4381120000000  0.4819450000000 1.0
C      1  0.5068890000000  0.4727480000000  0.5070700000000 1.0
C      1  0.4897810000000  0.5017960000000  0.5502340000000 1.0
C      1  0.5451300000000  0.5049870000000  0.4617250000000 1.0
C      1  0.4484200000000  0.4679540000000  0.4680560000000 1.0
C      1  0.4598950000000  0.5224410000000  0.4525550000000 1.0
C      1  0.5196640000000  0.4992600000000  0.5159990000000 1.0
C      1  0.5279330000000  0.5233940000000  0.5004970000000 1.0
C      1  0.5354610000000  0.5659650000000  0.4814140000000 1.0
C      1  0.5229210000000  0.5692080000000  0.5069590000000 1.0
C      1  0.4914750000000  0.4575470000000  0.4632700000000 1.0
C      1  0.5556760000000  0.5501760000000  0.4755570000000 1.0
C      1  0.4567350000000  0.5571130000000  0.5444430000000 1.0
C      1  0.4977260000000  0.5300170000000  0.5577920000000 1.0
C      1  0.5608250000000  0.4897720000000  0.5213330000000 1.0
C      1  0.4798070000000  0.5019240000000  0.4478200000000 1.0
C      1  0.5529170000000  0.4589150000000  0.4800310000000 1.0
C      1  0.5231220000000  0.4141720000000  0.4860960000000 1.0
C      1  0.4732160000000  0.5460020000000  0.4531120000000 1.0
C      1  0.5413630000000  0.4335330000000  0.4868270000000 1.0
C      1  0.4631450000000  0.4557140000000  0.4900990000000 1.0
C      1  0.5237900000000  0.5373380000000  0.5480770000000 1.0
C      1  0.4442440000000  0.5221040000000  0.4768620000000 1.0
C      1  0.5088400000000  0.5263220000000  0.4775120000000 1.0
C      1  0.5365350000000  0.4955780000000  0.5406570000000 1.0
C      1  0.4437220000000  0.5135700000000  0.5328600000000 1.0
C      1  0.5025290000000  0.4276910000000  0.4994090000000 1.0
C      1  0.4706880000000  0.4734640000000  0.4509280000000 1.0
C      1  0.5232210000000  0.5199540000000  0.4507680000000 1.0
C      1  0.5111180000000  0.4807630000000  0.5545220000000 1.0
C      1  0.5560180000000  0.5221660000000  0.4838390000000 1.0
C      1  0.4943390000000  0.5106010000000  0.5218140000000 1.0
C      1  0.5091760000000  0.4547350000000  0.5489580000000 1.0
C      1  0.5041460000000  0.5105990000000  0.4341720000000 1.0
C      1  0.4774940000000  0.5483760000000  0.5570180000000 1.0
C      1  0.5443280000000  0.4420140000000  0.5155950000000 1.0
C      1  0.5707130000000  0.5099610000000  0.5058340000000 1.0
C      1  0.4768080000000  0.5047070000000  0.4989780000000 1.0
C      1  0.4861600000000  0.5471860000000  0.4789180000000 1.0
C      1  0.5091960000000  0.4763850000000  0.4772070000000 1.0
C      1  0.5283180000000  0.5450370000000  0.5209630000000 1.0
END
