TITL C-162440-2182-7 -0.0559088890264743 125000 -209.176114964428 0 0 31 (C1) n - 1
REM
REM in /rds/project/t2_vol4/rds-t2-cs072/BORA/CARBON/from-Arr/AIRSS/Generating-Clusters/GAP-ML-2020/Only-C1/SD-CG/HFTN-CG
REM
REM
REM
REM
REM
REM ./C.cell (11c1c37f851c82e70ff6c80c92926a4b)
REM AIRSS Version 0.9.1 bugfix July 2018 build 013d7b7c2542+ Fri, 06 Jul 2018 19:26:36 +0100
REM compiler GCC version 9.3.0
REM options -cpp -mtune=generic -march=x86-64 -g -O0
REM seed -1700694739 -879754007 350367907 -1752597568 -1803688177 1619076311 -785517501 317921763 -1648449636 -1626403674 -1658835914 -717081824 -1724031826 -246722205 664066163 -599849910 -1048381267 2014890411 -1496484801 839682369 -236340165 -1917231739 1158190923 -1322744121 -1674913948 -1288732611 -948431556 565677763 1198462188 32618392 90971525 1278016723 1521876606
REM
CELL 1.54180   50.00000   50.00000   50.00000   90.00000   90.00000   90.00000
LATT -1
SFAC C  
C      1  0.5155310000000  0.5242810000000  0.5368600000000 1.0
C      1  0.4621970000000  0.4633090000000  0.4681170000000 1.0
C      1  0.4866630000000  0.4551400000000  0.5092150000000 1.0
C      1  0.4542290000000  0.5176170000000  0.4969360000000 1.0
C      1  0.4383670000000  0.4932360000000  0.4987890000000 1.0
C      1  0.5351540000000  0.4674280000000  0.4829200000000 1.0
C      1  0.4852480000000  0.4892430000000  0.5401790000000 1.0
C      1  0.5371510000000  0.5118370000000  0.4696900000000 1.0
C      1  0.4882600000000  0.5183150000000  0.4596680000000 1.0
C      1  0.4433330000000  0.4757670000000  0.5180110000000 1.0
C      1  0.4799830000000  0.5554890000000  0.5083420000000 1.0
C      1  0.5115770000000  0.5000710000000  0.4602370000000 1.0
C      1  0.5118490000000  0.4556290000000  0.5230270000000 1.0
C      1  0.4482110000000  0.4858950000000  0.4701110000000 1.0
C      1  0.5311080000000  0.4993550000000  0.5373630000000 1.0
C      1  0.4862780000000  0.4594020000000  0.4802740000000 1.0
C      1  0.5363650000000  0.4538370000000  0.5087890000000 1.0
C      1  0.5155080000000  0.5524400000000  0.4779940000000 1.0
C      1  0.4628240000000  0.5114980000000  0.4703430000000 1.0
C      1  0.5388120000000  0.5389620000000  0.4722430000000 1.0
C      1  0.5529140000000  0.4916270000000  0.5179860000000 1.0
C      1  0.5227370000000  0.5485180000000  0.5266250000000 1.0
C      1  0.4687160000000  0.4706300000000  0.5255580000000 1.0
C      1  0.4863400000000  0.5174030000000  0.5372410000000 1.0
C      1  0.4698860000000  0.5313400000000  0.5165870000000 1.0
C      1  0.5114680000000  0.4784720000000  0.5408220000000 1.0
C      1  0.5104460000000  0.4728740000000  0.4698270000000 1.0
C      1  0.5074370000000  0.5579460000000  0.5053480000000 1.0
C      1  0.5578150000000  0.4650900000000  0.5221600000000 1.0
C      1  0.5494580000000  0.4920690000000  0.4870900000000 1.0
C      1  0.4941350000000  0.5452830000000  0.4616480000000 1.0
END
