TITL C-167843-9173-7 19.8314572229069 125000 -922.720071723397 0 0 134 (C1) n - 1
REM
REM in /rds/project/t2_vol4/rds-t2-cs072/BORA/CARBON/from-Arr/AIRSS/Generating-Clusters/GAP-ML-2020/Only-C1/SD-CG/HFTN-CG
REM
REM
REM
REM
REM
REM ./C.cell (11c1c37f851c82e70ff6c80c92926a4b)
REM AIRSS Version 0.9.1 bugfix July 2018 build 013d7b7c2542+ Fri, 06 Jul 2018 19:26:36 +0100
REM compiler GCC version 9.3.0
REM options -cpp -mtune=generic -march=x86-64 -g -O0
REM seed -1628558107 682819519 1087683026 -825236362 -1464645626 -1335097036 1104637140 936763130 1884032947 1072233015 -1369078424 -131731435 554671974 -980623735 2000283949 233177173 122067771 -962652596 1813057792 -2116455298 -632977159 -1585168899 481474519 482094207 -1640479111 -1947771943 -285958565 43802562 -116286668 -1999913976 954469643 227701654 -420970713
REM
CELL 1.54180   50.00000   50.00000   50.00000   90.00000   90.00000   90.00000
LATT -1
SFAC C  
C      1  0.5639690000000  0.5611120000000  0.4591230000000 1.0
C      1  0.5064910000000  0.4857050000000  0.5503520000000 1.0
C      1  0.5611410000000  0.5674800000000  0.5526670000000 1.0
C      1  0.4154270000000  0.4959950000000  0.5496610000000 1.0
C      1  0.5467050000000  0.4745740000000  0.4278290000000 1.0
C      1  0.4795230000000  0.5881460000000  0.4750770000000 1.0
C      1  0.4890770000000  0.5255020000000  0.5302220000000 1.0
C      1  0.5385890000000  0.5291810000000  0.4127090000000 1.0
C      1  0.5700340000000  0.4767870000000  0.5570150000000 1.0
C      1  0.4875710000000  0.5666870000000  0.4292280000000 1.0
C      1  0.4528280000000  0.5001610000000  0.4198140000000 1.0
C      1  0.4731600000000  0.4121850000000  0.4971500000000 1.0
C      1  0.5114470000000  0.4342230000000  0.4775710000000 1.0
C      1  0.4644390000000  0.5451870000000  0.4939600000000 1.0
C      1  0.5442910000000  0.4131470000000  0.5208310000000 1.0
C      1  0.4715650000000  0.5317600000000  0.5844680000000 1.0
C      1  0.4116690000000  0.4836690000000  0.4958980000000 1.0
C      1  0.5337940000000  0.4568670000000  0.4822740000000 1.0
C      1  0.5801330000000  0.5558620000000  0.5368420000000 1.0
C      1  0.5317480000000  0.4241830000000  0.5636960000000 1.0
C      1  0.4653760000000  0.4648990000000  0.5839850000000 1.0
C      1  0.5155470000000  0.4060010000000  0.5246970000000 1.0
C      1  0.4952340000000  0.5850190000000  0.4521440000000 1.0
C      1  0.4750880000000  0.5078670000000  0.4627310000000 1.0
C      1  0.5310560000000  0.5209490000000  0.4394890000000 1.0
C      1  0.4946110000000  0.4678140000000  0.4475650000000 1.0
C      1  0.5438640000000  0.4870640000000  0.4725380000000 1.0
C      1  0.5116570000000  0.5525110000000  0.5621770000000 1.0
C      1  0.5844380000000  0.4641170000000  0.5181380000000 1.0
C      1  0.5218040000000  0.5488730000000  0.5097200000000 1.0
C      1  0.4536160000000  0.4870810000000  0.4752080000000 1.0
C      1  0.5816060000000  0.5377880000000  0.4916220000000 1.0
C      1  0.5117760000000  0.4217800000000  0.4507410000000 1.0
C      1  0.5757840000000  0.5083360000000  0.5262950000000 1.0
C      1  0.4025300000000  0.4824180000000  0.4703720000000 1.0
C      1  0.4346870000000  0.4286210000000  0.4760910000000 1.0
C      1  0.5220530000000  0.4489420000000  0.5739510000000 1.0
C      1  0.4901820000000  0.4753480000000  0.5952470000000 1.0
C      1  0.5349400000000  0.4328060000000  0.4380090000000 1.0
C      1  0.5376510000000  0.5669310000000  0.4516770000000 1.0
C      1  0.5127350000000  0.5323260000000  0.3997360000000 1.0
C      1  0.4263080000000  0.4697070000000  0.5395220000000 1.0
C      1  0.5437160000000  0.4717760000000  0.5209090000000 1.0
C      1  0.4359320000000  0.5311800000000  0.4888620000000 1.0
C      1  0.4751830000000  0.5501790000000  0.5220490000000 1.0
C      1  0.5315050000000  0.5440130000000  0.5838320000000 1.0
C      1  0.5850080000000  0.5345790000000  0.5202260000000 1.0
C      1  0.5419680000000  0.5794980000000  0.5345500000000 1.0
C      1  0.4275580000000  0.4765370000000  0.4567660000000 1.0
C      1  0.5879360000000  0.4859540000000  0.5371140000000 1.0
C      1  0.4931690000000  0.5144880000000  0.5930830000000 1.0
C      1  0.4353740000000  0.5350550000000  0.4595850000000 1.0
C      1  0.4997980000000  0.4490830000000  0.5210280000000 1.0
C      1  0.4299280000000  0.4460210000000  0.4549450000000 1.0
C      1  0.4897220000000  0.4948430000000  0.5722920000000 1.0
C      1  0.4346820000000  0.4241100000000  0.5291480000000 1.0
C      1  0.5678000000000  0.4666560000000  0.4446780000000 1.0
C      1  0.4509230000000  0.5886930000000  0.5223760000000 1.0
C      1  0.4247660000000  0.5515350000000  0.5089570000000 1.0
C      1  0.5013040000000  0.5557230000000  0.4079710000000 1.0
C      1  0.5283330000000  0.4939600000000  0.4474090000000 1.0
C      1  0.4709780000000  0.5761120000000  0.5622260000000 1.0
C      1  0.5070650000000  0.4896300000000  0.4942440000000 1.0
C      1  0.5222870000000  0.5880640000000  0.4617360000000 1.0
C      1  0.5618880000000  0.4551340000000  0.5371220000000 1.0
C      1  0.4848420000000  0.5265080000000  0.4842080000000 1.0
C      1  0.4553520000000  0.5725160000000  0.4787220000000 1.0
C      1  0.5526060000000  0.4274280000000  0.5443940000000 1.0
C      1  0.4376860000000  0.4782040000000  0.4286690000000 1.0
C      1  0.4764280000000  0.4907200000000  0.4071390000000 1.0
C      1  0.5007750000000  0.4911470000000  0.4606510000000 1.0
C      1  0.4365580000000  0.5773630000000  0.5009780000000 1.0
C      1  0.5196850000000  0.4649970000000  0.5069040000000 1.0
C      1  0.4842060000000  0.5545100000000  0.5739650000000 1.0
C      1  0.4771730000000  0.6010880000000  0.5227370000000 1.0
C      1  0.4991660000000  0.5672540000000  0.5178470000000 1.0
C      1  0.4859010000000  0.4495010000000  0.4680900000000 1.0
C      1  0.4451330000000  0.5612420000000  0.4541900000000 1.0
C      1  0.4522100000000  0.5659500000000  0.5414800000000 1.0
C      1  0.5006800000000  0.4197490000000  0.5032350000000 1.0
C      1  0.5165910000000  0.5325120000000  0.4851530000000 1.0
C      1  0.4869100000000  0.4633820000000  0.4181870000000 1.0
C      1  0.5616990000000  0.4413680000000  0.4817920000000 1.0
C      1  0.4597510000000  0.4253790000000  0.5181350000000 1.0
C      1  0.4160600000000  0.4614390000000  0.5127060000000 1.0
C      1  0.4564840000000  0.4778200000000  0.5351340000000 1.0
C      1  0.4250170000000  0.4351450000000  0.5040150000000 1.0
C      1  0.5468340000000  0.5002740000000  0.5199430000000 1.0
C      1  0.4889750000000  0.5939020000000  0.5483560000000 1.0
C      1  0.5316700000000  0.5063260000000  0.4932460000000 1.0
C      1  0.4358250000000  0.4419640000000  0.5519130000000 1.0
C      1  0.4619200000000  0.4154300000000  0.4716430000000 1.0
C      1  0.5534860000000  0.5584650000000  0.5786680000000 1.0
C      1  0.5116830000000  0.4599950000000  0.4013840000000 1.0
C      1  0.5592580000000  0.4413210000000  0.4525330000000 1.0
C      1  0.5144850000000  0.4831160000000  0.3868150000000 1.0
C      1  0.4434800000000  0.4495620000000  0.4302300000000 1.0
C      1  0.4986270000000  0.5047220000000  0.3938930000000 1.0
C      1  0.5037170000000  0.4551800000000  0.5503950000000 1.0
C      1  0.4583310000000  0.4998470000000  0.5166170000000 1.0
C      1  0.4375630000000  0.5022310000000  0.4960900000000 1.0
C      1  0.4612970000000  0.4887500000000  0.5655670000000 1.0
C      1  0.5081800000000  0.4114530000000  0.5522300000000 1.0
C      1  0.5565500000000  0.4187640000000  0.4976220000000 1.0
C      1  0.5303000000000  0.5040620000000  0.5442520000000 1.0
C      1  0.5136560000000  0.5776030000000  0.5441650000000 1.0
C      1  0.4857810000000  0.4310430000000  0.5607850000000 1.0
C      1  0.5507250000000  0.4941450000000  0.5683930000000 1.0
C      1  0.5345050000000  0.4518170000000  0.4160790000000 1.0
C      1  0.5428250000000  0.5724090000000  0.5048970000000 1.0
C      1  0.5217650000000  0.5191300000000  0.5960720000000 1.0
C      1  0.4677060000000  0.4634720000000  0.4873570000000 1.0
C      1  0.4274000000000  0.5213050000000  0.5537830000000 1.0
C      1  0.5811190000000  0.5178910000000  0.4688800000000 1.0
C      1  0.5744010000000  0.5366510000000  0.4472200000000 1.0
C      1  0.4505430000000  0.5154850000000  0.5712480000000 1.0
C      1  0.4953590000000  0.5918860000000  0.4995720000000 1.0
C      1  0.5809880000000  0.4645310000000  0.4898300000000 1.0
C      1  0.4638750000000  0.5519980000000  0.4353580000000 1.0
C      1  0.4799720000000  0.4244990000000  0.4491790000000 1.0
C      1  0.4849790000000  0.5075510000000  0.5076710000000 1.0
C      1  0.5739110000000  0.4858730000000  0.4691820000000 1.0
C      1  0.5635020000000  0.5325830000000  0.4216210000000 1.0
C      1  0.4596360000000  0.4404440000000  0.5690410000000 1.0
C      1  0.5183020000000  0.4683780000000  0.5951200000000 1.0
C      1  0.5254790000000  0.5406220000000  0.4583980000000 1.0
C      1  0.5236080000000  0.5913390000000  0.4896320000000 1.0
C      1  0.5169300000000  0.5312260000000  0.5377710000000 1.0
C      1  0.5665520000000  0.5617380000000  0.4869700000000 1.0
C      1  0.4688910000000  0.4395170000000  0.4257290000000 1.0
C      1  0.5346720000000  0.4927370000000  0.5922980000000 1.0
C      1  0.4574820000000  0.5224810000000  0.4409310000000 1.0
C      1  0.4289690000000  0.5466560000000  0.5372920000000 1.0
C      1  0.4704110000000  0.4559700000000  0.5166490000000 1.0
END
