TITL C-160261-9442-6 0.00741501623022573 125000 -32.9154378603137 0 0 6 (Cs) n - 1
REM
REM in /rds/project/t2_vol4/rds-t2-cs072/BORA/CARBON/from-Arr/AIRSS/Generating-Clusters/GAP-ML-2020/Only-C1/SD-CG/HFTN-CG
REM
REM
REM
REM
REM
REM ./C.cell (11c1c37f851c82e70ff6c80c92926a4b)
REM AIRSS Version 0.9.1 bugfix July 2018 build 013d7b7c2542+ Fri, 06 Jul 2018 19:26:36 +0100
REM compiler GCC version 9.3.0
REM options -cpp -mtune=generic -march=x86-64 -g -O0
REM seed -772939122 1105517734 1499948900 -1719547344 -898572148 -1161437255 -940922745 -1596481176 -1800359241 298563645 1939351705 -1884957898 715912655 -575505157 623760321 -1534701323 1288925614 748234055 -624598703 -2078034551 1604363874 -1684229537 340897675 -1512826803 -141355624 1657757841 -2040997134 -868630074 -2059304972 826067657 -1441962773 -1262329711 -461155601
REM
CELL 1.54180   50.00000   50.00000   50.00000   90.00000   90.00000   90.00000
LATT -1
SFAC C  
C      1  0.5206360000000  0.5002230000000  0.5150640000000 1.0
C      1  0.4807760000000  0.5074920000000  0.4906410000000 1.0
C      1  0.4623650000000  0.5237570000000  0.4871960000000 1.0
C      1  0.5006260000000  0.4658300000000  0.4797080000000 1.0
C      1  0.5335360000000  0.5130920000000  0.5322100000000 1.0
C      1  0.5020610000000  0.4896070000000  0.4951810000000 1.0
END
