TITL C-167814-7846-5 -15.7789153702903 125000 -131.346906767277 0 0 21 (C1) n - 1
REM
REM in /rds/project/t2_vol4/rds-t2-cs072/BORA/CARBON/from-Arr/AIRSS/Generating-Clusters/GAP-ML-2020/Only-C1/SD-CG/HFTN-CG
REM
REM
REM
REM
REM
REM ./C.cell (11c1c37f851c82e70ff6c80c92926a4b)
REM AIRSS Version 0.9.1 bugfix July 2018 build 013d7b7c2542+ Fri, 06 Jul 2018 19:26:36 +0100
REM compiler GCC version 9.3.0
REM options -cpp -mtune=generic -march=x86-64 -g -O0
REM seed 1309042147 1882167176 -785805237 1428634494 -194255601 429721949 150395197 2092218260 -525360917 -61139471 -298496216 -623023438 -1310876077 -886964923 2129916992 -783306870 1898461138 231874206 1954230749 347789640 54244287 1147691027 844440204 -80392523 -900874668 1566067334 -1867857629 -572851330 -948967854 -967252155 -58195096 165600598 -171352274
REM
CELL 1.54180   50.00000   50.00000   50.00000   90.00000   90.00000   90.00000
LATT -1
SFAC C  
C      1  0.4776010000000  0.5393620000000  0.5180170000000 1.0
C      1  0.5455040000000  0.4909500000000  0.4820160000000 1.0
C      1  0.4813770000000  0.4754710000000  0.5301700000000 1.0
C      1  0.4966150000000  0.4642940000000  0.4861070000000 1.0
C      1  0.5015540000000  0.4645120000000  0.5131900000000 1.0
C      1  0.5272240000000  0.4734340000000  0.5229220000000 1.0
C      1  0.5465040000000  0.4767230000000  0.5036210000000 1.0
C      1  0.5001340000000  0.5063960000000  0.4922210000000 1.0
C      1  0.4771190000000  0.4907640000000  0.4467680000000 1.0
C      1  0.4990080000000  0.5459590000000  0.4705520000000 1.0
C      1  0.5400320000000  0.5136910000000  0.5516170000000 1.0
C      1  0.4909180000000  0.5352290000000  0.4943610000000 1.0
C      1  0.4602190000000  0.4927550000000  0.5190880000000 1.0
C      1  0.4734360000000  0.5162790000000  0.5325840000000 1.0
C      1  0.4572970000000  0.4931570000000  0.4925590000000 1.0
C      1  0.4797340000000  0.4870590000000  0.4759800000000 1.0
C      1  0.5123310000000  0.5244080000000  0.4574100000000 1.0
C      1  0.4937110000000  0.5098090000000  0.4442440000000 1.0
C      1  0.5247760000000  0.5075700000000  0.4770050000000 1.0
C      1  0.5223380000000  0.4949370000000  0.5443820000000 1.0
C      1  0.4925680000000  0.4972430000000  0.5451870000000 1.0
END
