TITL C-167842-9007-7 -0.257364659639274 125000 -658.484755264956 0 0 97 (C1) n - 1
REM
REM in /rds/project/t2_vol4/rds-t2-cs072/BORA/CARBON/from-Arr/AIRSS/Generating-Clusters/GAP-ML-2020/Only-C1/SD-CG/HFTN-CG
REM
REM
REM
REM
REM
REM ./C.cell (11c1c37f851c82e70ff6c80c92926a4b)
REM AIRSS Version 0.9.1 bugfix July 2018 build 013d7b7c2542+ Fri, 06 Jul 2018 19:26:36 +0100
REM compiler GCC version 9.3.0
REM options -cpp -mtune=generic -march=x86-64 -g -O0
REM seed 542438425 -363392216 2017405577 -420893629 202354946 1163580495 -1190611738 759820904 -349706091 -978374306 1445580611 -2106801382 -1006798991 -841784169 -1428041168 551482072 -1404029012 1619368865 1083754721 658737723 -835870860 -28957211 -1014704242 1022399665 -1380900638 -1311682319 1294987913 -1506609366 1285051072 -1813434714 -1281140082 1451591970 -942593895
REM
CELL 1.54180   50.00000   50.00000   50.00000   90.00000   90.00000   90.00000
LATT -1
SFAC C  
C      1  0.5073670000000  0.5471700000000  0.5082220000000 1.0
C      1  0.4456140000000  0.4391170000000  0.4883530000000 1.0
C      1  0.5684990000000  0.5302450000000  0.5013030000000 1.0
C      1  0.5473560000000  0.4958600000000  0.4215750000000 1.0
C      1  0.5419260000000  0.5181650000000  0.5092290000000 1.0
C      1  0.5377530000000  0.4188560000000  0.5160020000000 1.0
C      1  0.4450140000000  0.4903690000000  0.5368300000000 1.0
C      1  0.5711720000000  0.5442420000000  0.5279100000000 1.0
C      1  0.4989320000000  0.5028100000000  0.4266940000000 1.0
C      1  0.5228590000000  0.5068850000000  0.4878170000000 1.0
C      1  0.4685810000000  0.4704270000000  0.4191610000000 1.0
C      1  0.4908770000000  0.5273300000000  0.4124170000000 1.0
C      1  0.4698460000000  0.4643030000000  0.5639950000000 1.0
C      1  0.4668520000000  0.4938180000000  0.5574410000000 1.0
C      1  0.5251530000000  0.5061810000000  0.4386150000000 1.0
C      1  0.4528420000000  0.5662360000000  0.5185290000000 1.0
C      1  0.5434810000000  0.4968850000000  0.5286010000000 1.0
C      1  0.5173920000000  0.4617220000000  0.4283100000000 1.0
C      1  0.4583820000000  0.4668300000000  0.4474870000000 1.0
C      1  0.5110160000000  0.5772860000000  0.4999010000000 1.0
C      1  0.5410450000000  0.4852130000000  0.5714190000000 1.0
C      1  0.4268590000000  0.5072440000000  0.4838530000000 1.0
C      1  0.4712960000000  0.5845800000000  0.5078670000000 1.0
C      1  0.4337090000000  0.5166620000000  0.5334850000000 1.0
C      1  0.5456890000000  0.4690010000000  0.4305950000000 1.0
C      1  0.5053170000000  0.4601370000000  0.5323870000000 1.0
C      1  0.4815030000000  0.5060620000000  0.4523380000000 1.0
C      1  0.4505970000000  0.4881780000000  0.4277350000000 1.0
C      1  0.4658720000000  0.5362470000000  0.4228930000000 1.0
C      1  0.5195080000000  0.4918000000000  0.5874150000000 1.0
C      1  0.4378140000000  0.5506370000000  0.4998680000000 1.0
C      1  0.5321330000000  0.5365720000000  0.4383470000000 1.0
C      1  0.4818090000000  0.4778720000000  0.4635350000000 1.0
C      1  0.5596840000000  0.5211350000000  0.4265320000000 1.0
C      1  0.4838170000000  0.4740880000000  0.4938070000000 1.0
C      1  0.5024010000000  0.5140980000000  0.5893060000000 1.0
C      1  0.4344990000000  0.4493260000000  0.5559680000000 1.0
C      1  0.4813620000000  0.5562350000000  0.4371660000000 1.0
C      1  0.5344020000000  0.5474230000000  0.4649400000000 1.0
C      1  0.4923990000000  0.5100240000000  0.5442330000000 1.0
C      1  0.5237850000000  0.4452120000000  0.5512250000000 1.0
C      1  0.5069820000000  0.5472460000000  0.4258980000000 1.0
C      1  0.4683460000000  0.4253040000000  0.4974900000000 1.0
C      1  0.5327730000000  0.5348580000000  0.5537770000000 1.0
C      1  0.4736870000000  0.5570710000000  0.4657260000000 1.0
C      1  0.5542600000000  0.5552690000000  0.4828660000000 1.0
C      1  0.5628150000000  0.5331150000000  0.5530570000000 1.0
C      1  0.5053660000000  0.5312780000000  0.5639400000000 1.0
C      1  0.4987420000000  0.4104760000000  0.5307320000000 1.0
C      1  0.5126350000000  0.4080200000000  0.5054410000000 1.0
C      1  0.4446900000000  0.5493040000000  0.4724550000000 1.0
C      1  0.4618400000000  0.4713640000000  0.5165170000000 1.0
C      1  0.5496020000000  0.5079930000000  0.5549010000000 1.0
C      1  0.5302750000000  0.5419410000000  0.5249050000000 1.0
C      1  0.5378310000000  0.4287560000000  0.4641360000000 1.0
C      1  0.4646800000000  0.5497460000000  0.5404410000000 1.0
C      1  0.4499040000000  0.4492450000000  0.5770700000000 1.0
C      1  0.4782500000000  0.5154480000000  0.4986050000000 1.0
C      1  0.5081360000000  0.4652890000000  0.4561700000000 1.0
C      1  0.5000510000000  0.4959600000000  0.5028260000000 1.0
C      1  0.5035130000000  0.4534070000000  0.5030710000000 1.0
C      1  0.5237750000000  0.4188800000000  0.5421080000000 1.0
C      1  0.4390760000000  0.4578330000000  0.4666520000000 1.0
C      1  0.4846410000000  0.5302750000000  0.5217680000000 1.0
C      1  0.5540410000000  0.4721350000000  0.4617920000000 1.0
C      1  0.5600880000000  0.4612570000000  0.5273060000000 1.0
C      1  0.4272360000000  0.5251450000000  0.5073250000000 1.0
C      1  0.4851250000000  0.5779070000000  0.4835360000000 1.0
C      1  0.5504710000000  0.5638890000000  0.5212200000000 1.0
C      1  0.4582030000000  0.5164950000000  0.5748400000000 1.0
C      1  0.5466920000000  0.4606780000000  0.5551930000000 1.0
C      1  0.4347450000000  0.4602750000000  0.5077480000000 1.0
C      1  0.5280900000000  0.4887230000000  0.4641250000000 1.0
C      1  0.4370790000000  0.5237780000000  0.4624210000000 1.0
C      1  0.5134020000000  0.5340440000000  0.4808340000000 1.0
C      1  0.5420950000000  0.5753460000000  0.4974410000000 1.0
C      1  0.5537900000000  0.4462160000000  0.4777880000000 1.0
C      1  0.5682820000000  0.4858280000000  0.5165540000000 1.0
C      1  0.4254340000000  0.4642950000000  0.5358660000000 1.0
C      1  0.4465040000000  0.5327880000000  0.5537230000000 1.0
C      1  0.4537350000000  0.5147820000000  0.4394070000000 1.0
C      1  0.4965660000000  0.5884390000000  0.5231270000000 1.0
C      1  0.5108640000000  0.4898050000000  0.5302780000000 1.0
C      1  0.5781460000000  0.5025560000000  0.4944030000000 1.0
C      1  0.4961510000000  0.4755170000000  0.4167600000000 1.0
C      1  0.4749200000000  0.4255330000000  0.5272470000000 1.0
C      1  0.4274590000000  0.4781930000000  0.4846570000000 1.0
C      1  0.4973410000000  0.4259020000000  0.4882310000000 1.0
C      1  0.5535880000000  0.4409150000000  0.5071610000000 1.0
C      1  0.4770540000000  0.4542260000000  0.5367690000000 1.0
C      1  0.5756490000000  0.4940900000000  0.4669410000000 1.0
C      1  0.5766840000000  0.5106920000000  0.4450380000000 1.0
C      1  0.5000780000000  0.5796700000000  0.5484420000000 1.0
C      1  0.5118040000000  0.4366490000000  0.4648590000000 1.0
C      1  0.4859890000000  0.5280700000000  0.4722870000000 1.0
C      1  0.4753150000000  0.5188880000000  0.5956340000000 1.0
C      1  0.4890960000000  0.5567070000000  0.5571870000000 1.0
END
