TITL C-160254-8263-1 -9.85294837034158 125000 -712.909949134201 0 0 101 (C1) n - 1
REM
REM in /rds/project/t2_vol4/rds-t2-cs072/BORA/CARBON/from-Arr/AIRSS/Generating-Clusters/GAP-ML-2020/Only-C1/SD-CG/HFTN-CG
REM
REM
REM
REM
REM
REM ./C.cell (11c1c37f851c82e70ff6c80c92926a4b)
REM AIRSS Version 0.9.1 bugfix July 2018 build 013d7b7c2542+ Fri, 06 Jul 2018 19:26:36 +0100
REM compiler GCC version 9.3.0
REM options -cpp -mtune=generic -march=x86-64 -g -O0
REM seed 1467204268 1960090723 -334833536 -911742115 205223653 1086935980 1532640083 -1665462776 -997940350 -951379517 163213190 -1573926265 2053577213 34886907 -2038108421 -817009622 786910368 -1946968708 1062739031 -1345359187 -1311549670 1506236505 1927015974 -800372555 -965749907 -1525880603 -225441590 504174778 -1855272929 1905837821 -297055134 402738356 233909774
REM
CELL 1.54180   50.00000   50.00000   50.00000   90.00000   90.00000   90.00000
LATT -1
SFAC C  
C      1  0.4637000000000  0.4391710000000  0.5538880000000 1.0
C      1  0.4358490000000  0.4670870000000  0.5007600000000 1.0
C      1  0.5545350000000  0.5311980000000  0.5608910000000 1.0
C      1  0.4295970000000  0.4950560000000  0.4521890000000 1.0
C      1  0.5615580000000  0.5253940000000  0.4421200000000 1.0
C      1  0.5021340000000  0.4834180000000  0.5319210000000 1.0
C      1  0.5503180000000  0.5584880000000  0.4710920000000 1.0
C      1  0.5757590000000  0.4699600000000  0.4904260000000 1.0
C      1  0.5013230000000  0.5315920000000  0.4587090000000 1.0
C      1  0.5082870000000  0.4389340000000  0.5587130000000 1.0
C      1  0.5568740000000  0.5008770000000  0.4281640000000 1.0
C      1  0.5074100000000  0.4331120000000  0.4870550000000 1.0
C      1  0.4652960000000  0.4213880000000  0.5073230000000 1.0
C      1  0.5299960000000  0.4552330000000  0.5720080000000 1.0
C      1  0.4820170000000  0.5214080000000  0.5756340000000 1.0
C      1  0.5737350000000  0.4800550000000  0.5177280000000 1.0
C      1  0.5235290000000  0.5033360000000  0.4980810000000 1.0
C      1  0.5471920000000  0.4706280000000  0.4760300000000 1.0
C      1  0.4545920000000  0.5661460000000  0.4582440000000 1.0
C      1  0.5192210000000  0.5051170000000  0.4547350000000 1.0
C      1  0.5061650000000  0.4531270000000  0.5300410000000 1.0
C      1  0.5797940000000  0.4995670000000  0.5380630000000 1.0
C      1  0.5217490000000  0.5563590000000  0.5379070000000 1.0
C      1  0.4972670000000  0.4306880000000  0.4594280000000 1.0
C      1  0.4943280000000  0.6072910000000  0.4949500000000 1.0
C      1  0.4940200000000  0.4904150000000  0.4632460000000 1.0
C      1  0.4727530000000  0.4191770000000  0.5345850000000 1.0
C      1  0.5026700000000  0.4820200000000  0.4896330000000 1.0
C      1  0.5284400000000  0.5422780000000  0.5614250000000 1.0
C      1  0.5681780000000  0.5416500000000  0.4855220000000 1.0
C      1  0.5689140000000  0.5163640000000  0.4697740000000 1.0
C      1  0.4382480000000  0.5330110000000  0.5562100000000 1.0
C      1  0.5267990000000  0.4961970000000  0.5259050000000 1.0
C      1  0.4214320000000  0.5082330000000  0.4772350000000 1.0
C      1  0.4478820000000  0.5690040000000  0.5287280000000 1.0
C      1  0.4729330000000  0.5896570000000  0.4912040000000 1.0
C      1  0.4990210000000  0.4906070000000  0.4169320000000 1.0
C      1  0.4532400000000  0.4279530000000  0.4817050000000 1.0
C      1  0.4287740000000  0.5497170000000  0.5347700000000 1.0
C      1  0.5484500000000  0.4724080000000  0.5296090000000 1.0
C      1  0.4716330000000  0.5615180000000  0.5445770000000 1.0
C      1  0.5547600000000  0.4617980000000  0.4484030000000 1.0
C      1  0.4214560000000  0.4911820000000  0.5006060000000 1.0
C      1  0.5537120000000  0.5072710000000  0.5767940000000 1.0
C      1  0.4710280000000  0.4942680000000  0.5774310000000 1.0
C      1  0.4594430000000  0.5223620000000  0.4188290000000 1.0
C      1  0.4819820000000  0.4894450000000  0.5115930000000 1.0
C      1  0.4491730000000  0.4863760000000  0.5600020000000 1.0
C      1  0.4367910000000  0.5611670000000  0.4810800000000 1.0
C      1  0.4950120000000  0.5573430000000  0.5288780000000 1.0
C      1  0.5839800000000  0.4902730000000  0.4674870000000 1.0
C      1  0.5006780000000  0.4129520000000  0.5430800000000 1.0
C      1  0.5162570000000  0.4760990000000  0.5863370000000 1.0
C      1  0.5282500000000  0.5686130000000  0.4894280000000 1.0
C      1  0.4791530000000  0.5148840000000  0.4705870000000 1.0
C      1  0.5275340000000  0.4911310000000  0.4278490000000 1.0
C      1  0.5329450000000  0.4524430000000  0.5163210000000 1.0
C      1  0.4690700000000  0.4316950000000  0.4585550000000 1.0
C      1  0.4643740000000  0.5408750000000  0.5637410000000 1.0
C      1  0.5231220000000  0.5535420000000  0.4290020000000 1.0
C      1  0.5022410000000  0.5527390000000  0.4802580000000 1.0
C      1  0.5309770000000  0.4619690000000  0.4336610000000 1.0
C      1  0.5523260000000  0.4289910000000  0.5050710000000 1.0
C      1  0.4376580000000  0.4664690000000  0.4547090000000 1.0
C      1  0.4914790000000  0.5407090000000  0.5053900000000 1.0
C      1  0.5690730000000  0.4877990000000  0.5641790000000 1.0
C      1  0.4867490000000  0.4707710000000  0.4376380000000 1.0
C      1  0.4802460000000  0.5717480000000  0.4708470000000 1.0
C      1  0.4387230000000  0.5092640000000  0.4301390000000 1.0
C      1  0.4532070000000  0.4629980000000  0.5442340000000 1.0
C      1  0.5403840000000  0.5003930000000  0.4750540000000 1.0
C      1  0.5398670000000  0.5587270000000  0.5163150000000 1.0
C      1  0.4489970000000  0.5775430000000  0.5019230000000 1.0
C      1  0.5162750000000  0.4027890000000  0.5237540000000 1.0
C      1  0.5641510000000  0.5444710000000  0.5142370000000 1.0
C      1  0.5736500000000  0.4390750000000  0.4933400000000 1.0
C      1  0.4617880000000  0.4671720000000  0.5154020000000 1.0
C      1  0.5460470000000  0.5496990000000  0.4432340000000 1.0
C      1  0.4879650000000  0.4724180000000  0.5837120000000 1.0
C      1  0.5266800000000  0.5027360000000  0.5858440000000 1.0
C      1  0.5529710000000  0.4648910000000  0.5584100000000 1.0
C      1  0.4847850000000  0.4429670000000  0.5092140000000 1.0
C      1  0.4615940000000  0.4554360000000  0.4436980000000 1.0
C      1  0.4682670000000  0.5500730000000  0.4248320000000 1.0
C      1  0.4318880000000  0.5062550000000  0.5497610000000 1.0
C      1  0.4973670000000  0.5410040000000  0.4293510000000 1.0
C      1  0.4219240000000  0.5366320000000  0.4869190000000 1.0
C      1  0.4170910000000  0.5340400000000  0.5148810000000 1.0
C      1  0.5070720000000  0.4495980000000  0.4397450000000 1.0
C      1  0.4837220000000  0.4466980000000  0.5721700000000 1.0
C      1  0.4186320000000  0.5069560000000  0.5239650000000 1.0
C      1  0.4758350000000  0.5174240000000  0.4997810000000 1.0
C      1  0.4353070000000  0.4506740000000  0.4786380000000 1.0
C      1  0.4514990000000  0.5702360000000  0.4309720000000 1.0
C      1  0.4870910000000  0.5147390000000  0.4145320000000 1.0
C      1  0.5729680000000  0.4820140000000  0.4416500000000 1.0
C      1  0.5274090000000  0.4143250000000  0.5019250000000 1.0
C      1  0.5106030000000  0.5248670000000  0.5772960000000 1.0
C      1  0.5179260000000  0.5971000000000  0.4932270000000 1.0
C      1  0.5227410000000  0.4595090000000  0.4898640000000 1.0
C      1  0.5704920000000  0.5275220000000  0.5370700000000 1.0
END
