TITL C-166681-7369-6 39.4937812590589 125000 -551.068472100444 0 0 81 (C1) n - 1
REM
REM in /rds/project/t2_vol4/rds-t2-cs072/BORA/CARBON/from-Arr/AIRSS/Generating-Clusters/GAP-ML-2020/Only-C1/SD-CG/HFTN-CG
REM
REM
REM
REM
REM
REM ./C.cell (11c1c37f851c82e70ff6c80c92926a4b)
REM AIRSS Version 0.9.1 bugfix July 2018 build 013d7b7c2542+ Fri, 06 Jul 2018 19:26:36 +0100
REM compiler GCC version 9.3.0
REM options -cpp -mtune=generic -march=x86-64 -g -O0
REM seed -1418717080 -178466119 -1118730483 61529095 1272458674 -1308950760 -114490915 -231254931 1853899212 -1575077112 1827692692 1880302622 -675470325 1564467154 -1776092218 -181544421 -120799587 -1403727469 1291580059 -1397191270 -1137753488 521196111 -436447286 -1197888644 918300739 599284262 2126915787 -584760928 -1846681262 744492751 -1642526305 449374075 -918695847
REM
CELL 1.54180   50.00000   50.00000   50.00000   90.00000   90.00000   90.00000
LATT -1
SFAC C  
C      1  0.4468770000000  0.4631230000000  0.4901940000000 1.0
C      1  0.4420990000000  0.4470030000000  0.5159670000000 1.0
C      1  0.4663430000000  0.4406240000000  0.5286620000000 1.0
C      1  0.5368660000000  0.5301840000000  0.5491530000000 1.0
C      1  0.4613640000000  0.5142170000000  0.5215130000000 1.0
C      1  0.4273740000000  0.5309370000000  0.5059280000000 1.0
C      1  0.4877090000000  0.4291670000000  0.4650290000000 1.0
C      1  0.5032230000000  0.4865870000000  0.5765900000000 1.0
C      1  0.5213800000000  0.4942690000000  0.4782150000000 1.0
C      1  0.5360270000000  0.5692790000000  0.4602570000000 1.0
C      1  0.5415230000000  0.4346340000000  0.5011610000000 1.0
C      1  0.4903480000000  0.5772690000000  0.5199780000000 1.0
C      1  0.5485720000000  0.4510840000000  0.4784200000000 1.0
C      1  0.5389750000000  0.4838490000000  0.4313480000000 1.0
C      1  0.4739740000000  0.4487920000000  0.4495800000000 1.0
C      1  0.4482790000000  0.5489280000000  0.4661980000000 1.0
C      1  0.4317180000000  0.5024470000000  0.5170050000000 1.0
C      1  0.4507960000000  0.5432470000000  0.5176050000000 1.0
C      1  0.5344770000000  0.4419830000000  0.4547300000000 1.0
C      1  0.5231510000000  0.5168450000000  0.4565270000000 1.0
C      1  0.4304590000000  0.4834680000000  0.5402800000000 1.0
C      1  0.5106060000000  0.5628510000000  0.4448340000000 1.0
C      1  0.4504410000000  0.4608880000000  0.4605310000000 1.0
C      1  0.4785040000000  0.5016380000000  0.4983910000000 1.0
C      1  0.4971730000000  0.4905920000000  0.5481720000000 1.0
C      1  0.5612050000000  0.4959870000000  0.4505730000000 1.0
C      1  0.4970090000000  0.5495840000000  0.5626880000000 1.0
C      1  0.5326420000000  0.5765290000000  0.4881830000000 1.0
C      1  0.5050590000000  0.5649480000000  0.5402740000000 1.0
C      1  0.5462120000000  0.5045780000000  0.5362780000000 1.0
C      1  0.4278890000000  0.4863960000000  0.4928960000000 1.0
C      1  0.5496610000000  0.5235080000000  0.4471540000000 1.0
C      1  0.4665010000000  0.5568150000000  0.4871750000000 1.0
C      1  0.4781950000000  0.4724970000000  0.4940730000000 1.0
C      1  0.5707620000000  0.4975180000000  0.4925880000000 1.0
C      1  0.5182640000000  0.4422590000000  0.5453790000000 1.0
C      1  0.4991620000000  0.4396070000000  0.5656380000000 1.0
C      1  0.4915370000000  0.4627020000000  0.5832020000000 1.0
C      1  0.5017000000000  0.4721820000000  0.4738490000000 1.0
C      1  0.4796670000000  0.5211170000000  0.4478440000000 1.0
C      1  0.5053700000000  0.5776870000000  0.4949400000000 1.0
C      1  0.5023850000000  0.5130160000000  0.5845310000000 1.0
C      1  0.4808850000000  0.5268720000000  0.5694000000000 1.0
C      1  0.5152570000000  0.4237210000000  0.4628530000000 1.0
C      1  0.5430330000000  0.4407780000000  0.5302310000000 1.0
C      1  0.5100060000000  0.4632670000000  0.5278210000000 1.0
C      1  0.4246090000000  0.4575820000000  0.5336310000000 1.0
C      1  0.5096730000000  0.5348430000000  0.5072600000000 1.0
C      1  0.5505130000000  0.4809860000000  0.4782530000000 1.0
C      1  0.4635730000000  0.4625870000000  0.5717440000000 1.0
C      1  0.5167820000000  0.4921920000000  0.5277360000000 1.0
C      1  0.4713800000000  0.5062350000000  0.5491310000000 1.0
C      1  0.5799860000000  0.5109490000000  0.4696580000000 1.0
C      1  0.4463470000000  0.4884830000000  0.4553130000000 1.0
C      1  0.5633250000000  0.4579890000000  0.5404090000000 1.0
C      1  0.4851950000000  0.5668120000000  0.4365020000000 1.0
C      1  0.4282200000000  0.5304240000000  0.4767270000000 1.0
C      1  0.5243440000000  0.4616270000000  0.4369510000000 1.0
C      1  0.5275250000000  0.5494150000000  0.5286990000000 1.0
C      1  0.4524350000000  0.4857080000000  0.5589980000000 1.0
C      1  0.5454070000000  0.5608110000000  0.5085760000000 1.0
C      1  0.4925380000000  0.4977420000000  0.4327240000000 1.0
C      1  0.5737670000000  0.5387340000000  0.4747300000000 1.0
C      1  0.4639330000000  0.5678300000000  0.5132410000000 1.0
C      1  0.5030830000000  0.5377250000000  0.4598440000000 1.0
C      1  0.5196680000000  0.5321870000000  0.5716100000000 1.0
C      1  0.4880650000000  0.4513580000000  0.5124960000000 1.0
C      1  0.5642410000000  0.4822340000000  0.5474500000000 1.0
C      1  0.5194310000000  0.4197240000000  0.4915010000000 1.0
C      1  0.4707160000000  0.4395140000000  0.5562600000000 1.0
C      1  0.5195030000000  0.5039300000000  0.4300260000000 1.0
C      1  0.4668760000000  0.5058820000000  0.4689450000000 1.0
C      1  0.4959390000000  0.5502390000000  0.4863030000000 1.0
C      1  0.4926270000000  0.4280180000000  0.4941410000000 1.0
C      1  0.4654060000000  0.5471610000000  0.4419790000000 1.0
C      1  0.5567550000000  0.5500400000000  0.4551680000000 1.0
C      1  0.5084980000000  0.5068340000000  0.5028570000000 1.0
C      1  0.4951330000000  0.4696520000000  0.4427050000000 1.0
C      1  0.4266100000000  0.5026300000000  0.4693170000000 1.0
C      1  0.5645030000000  0.5413920000000  0.5018440000000 1.0
C      1  0.5627360000000  0.5150540000000  0.5134320000000 1.0
END
