TITL C-161210-5085-6 21.1898505020646 125000 -561.831564696131 0 0 79 (C1) n - 1
REM
REM in /rds/project/t2_vol4/rds-t2-cs072/BORA/CARBON/from-Arr/AIRSS/Generating-Clusters/GAP-ML-2020/Only-C1/SD-CG/HFTN-CG
REM
REM
REM
REM
REM
REM ./C.cell (11c1c37f851c82e70ff6c80c92926a4b)
REM AIRSS Version 0.9.1 bugfix July 2018 build 013d7b7c2542+ Fri, 06 Jul 2018 19:26:36 +0100
REM compiler GCC version 9.3.0
REM options -cpp -mtune=generic -march=x86-64 -g -O0
REM seed 2025774127 585559295 797997859 483716906 67494283 -313797116 -1625898330 489041360 728358515 1229175062 1505282975 -884908343 1374584776 -1693935127 -1893314983 1311185809 1932573659 -1155416726 1498036480 -895366116 -431793221 1747342277 1326524866 -40857647 -1972367062 2021984141 -949024055 -1641923107 -523498662 -1881658580 -1712506384 -1464051578 -93080826
REM
CELL 1.54180   50.00000   50.00000   50.00000   90.00000   90.00000   90.00000
LATT -1
SFAC C  
C      1  0.5406240000000  0.4958700000000  0.4242610000000 1.0
C      1  0.4665040000000  0.4470480000000  0.4525760000000 1.0
C      1  0.5610760000000  0.5096680000000  0.4388780000000 1.0
C      1  0.4186480000000  0.5012530000000  0.4879250000000 1.0
C      1  0.5081060000000  0.5713660000000  0.4948030000000 1.0
C      1  0.5044320000000  0.4372550000000  0.4742050000000 1.0
C      1  0.4637560000000  0.5584980000000  0.4837750000000 1.0
C      1  0.5229250000000  0.4502440000000  0.4939870000000 1.0
C      1  0.5061570000000  0.5035940000000  0.5759280000000 1.0
C      1  0.4633130000000  0.4554500000000  0.5394930000000 1.0
C      1  0.4893740000000  0.4895820000000  0.4717360000000 1.0
C      1  0.4400030000000  0.4636200000000  0.5242850000000 1.0
C      1  0.4553600000000  0.4683160000000  0.4382930000000 1.0
C      1  0.4586750000000  0.4398000000000  0.4803250000000 1.0
C      1  0.4422890000000  0.5355930000000  0.5430620000000 1.0
C      1  0.5017800000000  0.4798210000000  0.5606180000000 1.0
C      1  0.4407990000000  0.5074370000000  0.5523390000000 1.0
C      1  0.4300260000000  0.5230090000000  0.4726840000000 1.0
C      1  0.5132710000000  0.5196550000000  0.5133290000000 1.0
C      1  0.4809960000000  0.5706810000000  0.5038580000000 1.0
C      1  0.5264740000000  0.5237310000000  0.5718650000000 1.0
C      1  0.4828280000000  0.5417840000000  0.5700150000000 1.0
C      1  0.5517560000000  0.4944720000000  0.4994710000000 1.0
C      1  0.5256130000000  0.4250050000000  0.5125110000000 1.0
C      1  0.4403040000000  0.5103890000000  0.4494600000000 1.0
C      1  0.4827630000000  0.4823620000000  0.4969380000000 1.0
C      1  0.4605960000000  0.4972280000000  0.5687150000000 1.0
C      1  0.4829490000000  0.4277560000000  0.4908750000000 1.0
C      1  0.5757190000000  0.4943430000000  0.5163770000000 1.0
C      1  0.5783190000000  0.5224280000000  0.5253870000000 1.0
C      1  0.4643550000000  0.5524080000000  0.5508440000000 1.0
C      1  0.5729540000000  0.4748920000000  0.5371140000000 1.0
C      1  0.5185570000000  0.4770030000000  0.5364780000000 1.0
C      1  0.5038880000000  0.4642480000000  0.5141980000000 1.0
C      1  0.5364890000000  0.4696670000000  0.4355780000000 1.0
C      1  0.4737920000000  0.4732930000000  0.5590870000000 1.0
C      1  0.5265890000000  0.5717910000000  0.5175030000000 1.0
C      1  0.4957810000000  0.4195610000000  0.5157410000000 1.0
C      1  0.4623510000000  0.5152490000000  0.4318960000000 1.0
C      1  0.5507400000000  0.5236530000000  0.4851670000000 1.0
C      1  0.5392820000000  0.4646730000000  0.5538700000000 1.0
C      1  0.5087200000000  0.5326010000000  0.4285200000000 1.0
C      1  0.5754320000000  0.5251640000000  0.5522710000000 1.0
C      1  0.4803860000000  0.5153130000000  0.5782480000000 1.0
C      1  0.5111790000000  0.5026550000000  0.4677330000000 1.0
C      1  0.4289940000000  0.4893610000000  0.5330110000000 1.0
C      1  0.5537230000000  0.5138500000000  0.5659810000000 1.0
C      1  0.5488010000000  0.4260780000000  0.5257190000000 1.0
C      1  0.4718570000000  0.5025200000000  0.5112410000000 1.0
C      1  0.4813930000000  0.5681100000000  0.5328530000000 1.0
C      1  0.5099560000000  0.5526790000000  0.4712520000000 1.0
C      1  0.4812630000000  0.5362490000000  0.4374220000000 1.0
C      1  0.4266660000000  0.4756070000000  0.4785380000000 1.0
C      1  0.5155130000000  0.5067120000000  0.4175660000000 1.0
C      1  0.4191010000000  0.5083050000000  0.5143590000000 1.0
C      1  0.5584060000000  0.4856570000000  0.5605430000000 1.0
C      1  0.4877650000000  0.5194280000000  0.5221170000000 1.0
C      1  0.5526210000000  0.5640670000000  0.5134150000000 1.0
C      1  0.4308110000000  0.5348350000000  0.5170240000000 1.0
C      1  0.4971210000000  0.4840880000000  0.4180740000000 1.0
C      1  0.5584260000000  0.4492220000000  0.5373090000000 1.0
C      1  0.4707030000000  0.4886400000000  0.4239730000000 1.0
C      1  0.4946890000000  0.4446400000000  0.4485660000000 1.0
C      1  0.4359690000000  0.4821370000000  0.4526470000000 1.0
C      1  0.5106240000000  0.5480510000000  0.5644040000000 1.0
C      1  0.4818670000000  0.5512140000000  0.4622010000000 1.0
C      1  0.5451590000000  0.4682270000000  0.4857860000000 1.0
C      1  0.5542490000000  0.4686810000000  0.4588510000000 1.0
C      1  0.5090190000000  0.5673450000000  0.5416480000000 1.0
C      1  0.4389330000000  0.4559780000000  0.4955830000000 1.0
C      1  0.4856080000000  0.4429850000000  0.5262200000000 1.0
C      1  0.5517020000000  0.5308510000000  0.4546730000000 1.0
C      1  0.5273460000000  0.5445600000000  0.4467760000000 1.0
C      1  0.5096160000000  0.4611500000000  0.4307770000000 1.0
C      1  0.5722640000000  0.4890420000000  0.4543920000000 1.0
C      1  0.5192070000000  0.5253290000000  0.4853180000000 1.0
C      1  0.5640810000000  0.5401800000000  0.5069230000000 1.0
C      1  0.4391610000000  0.5441740000000  0.4903450000000 1.0
C      1  0.5314610000000  0.5006180000000  0.5222720000000 1.0
END
