TITL C-160256-8345-5 -157.598598873907 125000 -844.120670887621 0 0 122 (C1) n - 1
REM
REM in /rds/project/t2_vol4/rds-t2-cs072/BORA/CARBON/from-Arr/AIRSS/Generating-Clusters/GAP-ML-2020/Only-C1/SD-CG/HFTN-CG
REM
REM
REM
REM
REM
REM ./C.cell (11c1c37f851c82e70ff6c80c92926a4b)
REM AIRSS Version 0.9.1 bugfix July 2018 build 013d7b7c2542+ Fri, 06 Jul 2018 19:26:36 +0100
REM compiler GCC version 9.3.0
REM options -cpp -mtune=generic -march=x86-64 -g -O0
REM seed -1556297791 1419795254 -882563170 1475682171 -423840317 -811992264 -1112029722 -218361418 1476929408 -53713096 -1907716853 -254287990 734387708 999105905 1185681954 -1805427974 1053286794 -1747343689 1375779889 104846863 240694647 461337440 -1888035878 1103173696 -1697526352 -1419770562 1779924902 -1442511550 -529203717 -1939933906 692005695 89595909 -1168741920
REM
CELL 1.54180   50.00000   50.00000   50.00000   90.00000   90.00000   90.00000
LATT -1
SFAC C  
C      1  0.4637530000000  0.5327720000000  0.4681990000000 1.0
C      1  0.5517860000000  0.4460160000000  0.5072180000000 1.0
C      1  0.4527890000000  0.4512410000000  0.4342890000000 1.0
C      1  0.5666430000000  0.5261890000000  0.5335660000000 1.0
C      1  0.5829000000000  0.4565180000000  0.4576340000000 1.0
C      1  0.5688160000000  0.5037410000000  0.4385160000000 1.0
C      1  0.5033390000000  0.4805680000000  0.5558570000000 1.0
C      1  0.4512790000000  0.5686090000000  0.4798080000000 1.0
C      1  0.4234560000000  0.5463850000000  0.5201250000000 1.0
C      1  0.4787740000000  0.4854680000000  0.6030420000000 1.0
C      1  0.4655660000000  0.5674400000000  0.5583720000000 1.0
C      1  0.4620850000000  0.4686060000000  0.4134400000000 1.0
C      1  0.5111610000000  0.5592560000000  0.5043330000000 1.0
C      1  0.5318140000000  0.5782250000000  0.5073780000000 1.0
C      1  0.5452880000000  0.5064640000000  0.5402860000000 1.0
C      1  0.5508540000000  0.4942190000000  0.5665270000000 1.0
C      1  0.5238530000000  0.4110490000000  0.4899380000000 1.0
C      1  0.4350960000000  0.4267290000000  0.5119650000000 1.0
C      1  0.5944690000000  0.4707890000000  0.5000980000000 1.0
C      1  0.4572040000000  0.4479440000000  0.5467270000000 1.0
C      1  0.4176340000000  0.5404910000000  0.4623340000000 1.0
C      1  0.4250750000000  0.4978720000000  0.4791220000000 1.0
C      1  0.4373270000000  0.5435070000000  0.4406780000000 1.0
C      1  0.4633470000000  0.4705810000000  0.5283370000000 1.0
C      1  0.4916300000000  0.4606180000000  0.6052550000000 1.0
C      1  0.5652540000000  0.4685610000000  0.5637920000000 1.0
C      1  0.4592370000000  0.5582020000000  0.4532660000000 1.0
C      1  0.4340320000000  0.5293560000000  0.5586260000000 1.0
C      1  0.5347360000000  0.4881980000000  0.4094690000000 1.0
C      1  0.5257010000000  0.4780440000000  0.5768290000000 1.0
C      1  0.4905270000000  0.5055660000000  0.4074310000000 1.0
C      1  0.5363410000000  0.4424560000000  0.4585790000000 1.0
C      1  0.5018630000000  0.4135490000000  0.4718030000000 1.0
C      1  0.5226550000000  0.4993880000000  0.5980120000000 1.0
C      1  0.4851370000000  0.5009540000000  0.5019620000000 1.0
C      1  0.4799900000000  0.4260940000000  0.4898450000000 1.0
C      1  0.4305670000000  0.5492750000000  0.4907410000000 1.0
C      1  0.5195980000000  0.4672040000000  0.4750140000000 1.0
C      1  0.5414980000000  0.4757510000000  0.4945880000000 1.0
C      1  0.4076620000000  0.5150500000000  0.4597660000000 1.0
C      1  0.4548040000000  0.5085730000000  0.5663270000000 1.0
C      1  0.4774470000000  0.4589800000000  0.4529040000000 1.0
C      1  0.5197070000000  0.5229250000000  0.5413950000000 1.0
C      1  0.5923360000000  0.4895520000000  0.5217800000000 1.0
C      1  0.5141860000000  0.5329200000000  0.4902790000000 1.0
C      1  0.4458490000000  0.5517730000000  0.5425070000000 1.0
C      1  0.5346110000000  0.5167350000000  0.4101550000000 1.0
C      1  0.5537840000000  0.4996600000000  0.4814950000000 1.0
C      1  0.5568980000000  0.4797420000000  0.4274000000000 1.0
C      1  0.4868510000000  0.5024680000000  0.4698030000000 1.0
C      1  0.5328540000000  0.5164110000000  0.4711240000000 1.0
C      1  0.5593740000000  0.4553510000000  0.4437050000000 1.0
C      1  0.4209410000000  0.5021710000000  0.4369720000000 1.0
C      1  0.4925290000000  0.5313090000000  0.4672250000000 1.0
C      1  0.4959750000000  0.5920240000000  0.4484160000000 1.0
C      1  0.5859610000000  0.5169900000000  0.5153500000000 1.0
C      1  0.4823870000000  0.5221850000000  0.5750330000000 1.0
C      1  0.4171650000000  0.4699760000000  0.5209920000000 1.0
C      1  0.5448290000000  0.4285240000000  0.4839250000000 1.0
C      1  0.5809930000000  0.5261340000000  0.4882190000000 1.0
C      1  0.4896970000000  0.4596260000000  0.4107600000000 1.0
C      1  0.5536960000000  0.5258450000000  0.4283720000000 1.0
C      1  0.4985410000000  0.4304260000000  0.5641450000000 1.0
C      1  0.5417730000000  0.4533840000000  0.5728440000000 1.0
C      1  0.5230430000000  0.5976860000000  0.4416400000000 1.0
C      1  0.5064080000000  0.4816780000000  0.4044880000000 1.0
C      1  0.4676010000000  0.5425560000000  0.5246240000000 1.0
C      1  0.4993380000000  0.5091580000000  0.5551540000000 1.0
C      1  0.5566390000000  0.5520720000000  0.5351800000000 1.0
C      1  0.5338560000000  0.5515310000000  0.5562930000000 1.0
C      1  0.5137330000000  0.4934310000000  0.4632450000000 1.0
C      1  0.5813920000000  0.4684040000000  0.5402870000000 1.0
C      1  0.5794550000000  0.5030030000000  0.4667970000000 1.0
C      1  0.4845720000000  0.5657810000000  0.5154670000000 1.0
C      1  0.5267750000000  0.4342420000000  0.5583490000000 1.0
C      1  0.4320340000000  0.4465900000000  0.5305400000000 1.0
C      1  0.4644310000000  0.4985990000000  0.4196170000000 1.0
C      1  0.5301410000000  0.4892480000000  0.5177750000000 1.0
C      1  0.4600690000000  0.4571490000000  0.5738890000000 1.0
C      1  0.4197050000000  0.4713530000000  0.4931380000000 1.0
C      1  0.4622970000000  0.5159760000000  0.5134890000000 1.0
C      1  0.4859260000000  0.4719490000000  0.5097000000000 1.0
C      1  0.4937830000000  0.5947770000000  0.4778710000000 1.0
C      1  0.4167570000000  0.5224580000000  0.5364940000000 1.0
C      1  0.5382110000000  0.5876220000000  0.4623020000000 1.0
C      1  0.5434650000000  0.5404980000000  0.5809160000000 1.0
C      1  0.4899960000000  0.4558750000000  0.4830650000000 1.0
C      1  0.5290060000000  0.4391840000000  0.5284740000000 1.0
C      1  0.4490980000000  0.4274610000000  0.4892310000000 1.0
C      1  0.5158340000000  0.4160010000000  0.5164050000000 1.0
C      1  0.4306230000000  0.4479590000000  0.4788150000000 1.0
C      1  0.4949810000000  0.5079100000000  0.5995160000000 1.0
C      1  0.4839280000000  0.4444820000000  0.5847680000000 1.0
C      1  0.5679620000000  0.5525720000000  0.4866490000000 1.0
C      1  0.5381360000000  0.5399580000000  0.4492820000000 1.0
C      1  0.5123480000000  0.4271410000000  0.4483630000000 1.0
C      1  0.4944390000000  0.4434880000000  0.4339860000000 1.0
C      1  0.4732330000000  0.5815940000000  0.4927670000000 1.0
C      1  0.4325920000000  0.4569990000000  0.4522510000000 1.0
C      1  0.5214470000000  0.5924420000000  0.4860740000000 1.0
C      1  0.5081190000000  0.5264820000000  0.4150250000000 1.0
C      1  0.4231140000000  0.4945790000000  0.5340300000000 1.0
C      1  0.5573210000000  0.5653480000000  0.5104710000000 1.0
C      1  0.5107850000000  0.4691370000000  0.5288340000000 1.0
C      1  0.4684930000000  0.4881290000000  0.4508830000000 1.0
C      1  0.5524930000000  0.5618870000000  0.4635040000000 1.0
C      1  0.5801630000000  0.4514650000000  0.5165700000000 1.0
C      1  0.4402750000000  0.5178640000000  0.4240130000000 1.0
C      1  0.5060940000000  0.5431500000000  0.4404560000000 1.0
C      1  0.4857880000000  0.5664380000000  0.4417020000000 1.0
C      1  0.5931030000000  0.4769140000000  0.4728220000000 1.0
C      1  0.4850180000000  0.5523510000000  0.5724260000000 1.0
C      1  0.5115370000000  0.5140200000000  0.5123910000000 1.0
C      1  0.4525400000000  0.4968020000000  0.5361500000000 1.0
C      1  0.5451250000000  0.5147560000000  0.5880920000000 1.0
C      1  0.4451200000000  0.5215410000000  0.4887750000000 1.0
C      1  0.5080140000000  0.5662900000000  0.5605020000000 1.0
C      1  0.4373390000000  0.4853970000000  0.4548970000000 1.0
C      1  0.4571140000000  0.4840670000000  0.5835930000000 1.0
C      1  0.4791320000000  0.4270560000000  0.5429010000000 1.0
C      1  0.4878530000000  0.4176100000000  0.5180950000000 1.0
C      1  0.4882850000000  0.5772600000000  0.5430710000000 1.0
END
