TITL C-166697-7440-8 8.86588212797123 125000 -53.2509404199216 0 0 9 (C1) n - 1
REM
REM in /rds/project/t2_vol4/rds-t2-cs072/BORA/CARBON/from-Arr/AIRSS/Generating-Clusters/GAP-ML-2020/Only-C1/SD-CG/HFTN-CG
REM
REM
REM
REM
REM
REM ./C.cell (11c1c37f851c82e70ff6c80c92926a4b)
REM AIRSS Version 0.9.1 bugfix July 2018 build 013d7b7c2542+ Fri, 06 Jul 2018 19:26:36 +0100
REM compiler GCC version 9.3.0
REM options -cpp -mtune=generic -march=x86-64 -g -O0
REM seed 1907001753 -1096068888 1666720661 658226833 -1886151076 923193570 2037889195 -2129158649 259217871 571238003 -382214246 1258377477 -620616977 -1768269284 567551273 686202238 1009474538 61314094 -1275134617 -2116057506 -1913404587 1633853400 -2021023315 -418399060 76934644 1676619254 -1315761474 2144349979 930069750 -1740377916 927827383 1920871252 434387857
REM
CELL 1.54180   50.00000   50.00000   50.00000   90.00000   90.00000   90.00000
LATT -1
SFAC C  
C      1  0.5000940000000  0.5414610000000  0.5117100000000 1.0
C      1  0.5229710000000  0.5317320000000  0.5182480000000 1.0
C      1  0.4721330000000  0.5427710000000  0.5046980000000 1.0
C      1  0.4849360000000  0.5231920000000  0.4920750000000 1.0
C      1  0.5246850000000  0.4541910000000  0.4848340000000 1.0
C      1  0.5097340000000  0.4760210000000  0.4803480000000 1.0
C      1  0.5069710000000  0.4591040000000  0.5038690000000 1.0
C      1  0.4868770000000  0.4761090000000  0.5125010000000 1.0
C      1  0.4915980000000  0.4954180000000  0.4917170000000 1.0
END
