TITL C-162441-2130-3 82.6010072928482 125000 -319.02028505192 0 0 48 (C1) n - 1
REM
REM in /rds/project/t2_vol4/rds-t2-cs072/BORA/CARBON/from-Arr/AIRSS/Generating-Clusters/GAP-ML-2020/Only-C1/SD-CG/HFTN-CG
REM
REM
REM
REM
REM
REM ./C.cell (11c1c37f851c82e70ff6c80c92926a4b)
REM AIRSS Version 0.9.1 bugfix July 2018 build 013d7b7c2542+ Fri, 06 Jul 2018 19:26:36 +0100
REM compiler GCC version 9.3.0
REM options -cpp -mtune=generic -march=x86-64 -g -O0
REM seed 469792076 1988553840 835446918 -25500595 2098727502 -1503882234 -215033361 -724297162 348828262 1864437723 -1941457376 370403211 745488531 406216486 389710184 -730347839 -370809844 2066361591 -270149012 -810139154 -2056923483 280637859 -992695748 1923688838 -1938118841 1575703429 -12407007 -2081558122 -1582991007 315515184 -896192164 2038416333 533124969
REM
CELL 1.54180   50.00000   50.00000   50.00000   90.00000   90.00000   90.00000
LATT -1
SFAC C  
C      1  0.5279490000000  0.5590820000000  0.5007630000000 1.0
C      1  0.4999300000000  0.4284780000000  0.4821230000000 1.0
C      1  0.4890110000000  0.5631340000000  0.5266760000000 1.0
C      1  0.4383980000000  0.5121260000000  0.4754880000000 1.0
C      1  0.5278180000000  0.4647790000000  0.5330470000000 1.0
C      1  0.5523670000000  0.5038650000000  0.5509300000000 1.0
C      1  0.4787780000000  0.5072380000000  0.5010070000000 1.0
C      1  0.5032410000000  0.4789220000000  0.5355760000000 1.0
C      1  0.4613160000000  0.4980120000000  0.5412560000000 1.0
C      1  0.5513440000000  0.4818420000000  0.5339580000000 1.0
C      1  0.4260080000000  0.4859690000000  0.4764250000000 1.0
C      1  0.4595600000000  0.4742610000000  0.4414220000000 1.0
C      1  0.4775500000000  0.4822290000000  0.5191220000000 1.0
C      1  0.5340710000000  0.5418880000000  0.5455150000000 1.0
C      1  0.5408170000000  0.4493460000000  0.4884330000000 1.0
C      1  0.5282060000000  0.5161440000000  0.5582120000000 1.0
C      1  0.4576390000000  0.5493670000000  0.5034810000000 1.0
C      1  0.5041860000000  0.5067420000000  0.5452030000000 1.0
C      1  0.5236090000000  0.5095980000000  0.5050770000000 1.0
C      1  0.4557420000000  0.5005900000000  0.4320700000000 1.0
C      1  0.5555650000000  0.4740430000000  0.4860530000000 1.0
C      1  0.5285720000000  0.4440240000000  0.5142180000000 1.0
C      1  0.5528560000000  0.5190640000000  0.5077960000000 1.0
C      1  0.5115820000000  0.4666330000000  0.4540580000000 1.0
C      1  0.5612510000000  0.4901020000000  0.5086010000000 1.0
C      1  0.5525490000000  0.4896790000000  0.4635780000000 1.0
C      1  0.4784040000000  0.5105130000000  0.5584780000000 1.0
C      1  0.4591130000000  0.5129300000000  0.4565680000000 1.0
C      1  0.5152750000000  0.5511960000000  0.5259730000000 1.0
C      1  0.5210110000000  0.5376550000000  0.4678360000000 1.0
C      1  0.5430190000000  0.5385480000000  0.4875820000000 1.0
C      1  0.4643110000000  0.5493540000000  0.5320670000000 1.0
C      1  0.4642810000000  0.4594800000000  0.5049880000000 1.0
C      1  0.5201830000000  0.4438500000000  0.4686000000000 1.0
C      1  0.5012400000000  0.5212600000000  0.5171230000000 1.0
C      1  0.5273640000000  0.4908030000000  0.4545550000000 1.0
C      1  0.4599770000000  0.5256430000000  0.5443240000000 1.0
C      1  0.4386070000000  0.4666930000000  0.4597830000000 1.0
C      1  0.4523300000000  0.5230140000000  0.4966680000000 1.0
C      1  0.4851440000000  0.4761710000000  0.4542720000000 1.0
C      1  0.5050140000000  0.4281310000000  0.5102040000000 1.0
C      1  0.4804570000000  0.4363380000000  0.5005160000000 1.0
C      1  0.4824590000000  0.5628800000000  0.4972900000000 1.0
C      1  0.4849860000000  0.5034980000000  0.4692570000000 1.0
C      1  0.4435530000000  0.4652810000000  0.4874250000000 1.0
C      1  0.5107430000000  0.5135970000000  0.4585640000000 1.0
C      1  0.5570050000000  0.5286990000000  0.5350020000000 1.0
C      1  0.5056090000000  0.5573090000000  0.4828360000000 1.0
END
