TITL C-162436-1869-3 -86.6648757969733 125000 -313.848721272853 0 0 47 (C1) n - 1
REM
REM in /rds/project/t2_vol4/rds-t2-cs072/BORA/CARBON/from-Arr/AIRSS/Generating-Clusters/GAP-ML-2020/Only-C1/SD-CG/HFTN-CG
REM
REM
REM
REM
REM
REM ./C.cell (11c1c37f851c82e70ff6c80c92926a4b)
REM AIRSS Version 0.9.1 bugfix July 2018 build 013d7b7c2542+ Fri, 06 Jul 2018 19:26:36 +0100
REM compiler GCC version 9.3.0
REM options -cpp -mtune=generic -march=x86-64 -g -O0
REM seed -609519067 -1548736237 -523998175 1873043561 -34298778 -498172994 1710273602 98746296 -1903688601 868173949 258468864 895144511 -1899371562 -897205376 1410055722 1353027108 1324292993 -1719733694 -1528592842 -544517661 1838502154 825595977 -1666161294 1705289633 -295190185 519401669 141323927 -401887394 1333284341 1793734757 -587830214 535444965 1555233403
REM
CELL 1.54180   50.00000   50.00000   50.00000   90.00000   90.00000   90.00000
LATT -1
SFAC C  
C      1  0.5542630000000  0.4654070000000  0.5558190000000 1.0
C      1  0.5112170000000  0.5524030000000  0.4775140000000 1.0
C      1  0.4759480000000  0.5410640000000  0.5450660000000 1.0
C      1  0.5354810000000  0.4833100000000  0.4590230000000 1.0
C      1  0.5712550000000  0.4870830000000  0.4889920000000 1.0
C      1  0.4572460000000  0.5259120000000  0.5026210000000 1.0
C      1  0.4912950000000  0.4887650000000  0.4817600000000 1.0
C      1  0.5009920000000  0.5422960000000  0.5283400000000 1.0
C      1  0.4752720000000  0.4613310000000  0.4473700000000 1.0
C      1  0.4957560000000  0.5546200000000  0.5021720000000 1.0
C      1  0.5111650000000  0.4376520000000  0.4910320000000 1.0
C      1  0.4929790000000  0.5039180000000  0.5781290000000 1.0
C      1  0.5117410000000  0.4871830000000  0.5731100000000 1.0
C      1  0.5002580000000  0.5112090000000  0.5213320000000 1.0
C      1  0.4983660000000  0.5310270000000  0.4445050000000 1.0
C      1  0.4994880000000  0.4548150000000  0.4338920000000 1.0
C      1  0.4916220000000  0.4565460000000  0.4869030000000 1.0
C      1  0.5200830000000  0.4680210000000  0.4417450000000 1.0
C      1  0.4419050000000  0.5176210000000  0.4776530000000 1.0
C      1  0.4524880000000  0.5315160000000  0.5310070000000 1.0
C      1  0.4513740000000  0.5083140000000  0.5493520000000 1.0
C      1  0.4456440000000  0.4902220000000  0.4708220000000 1.0
C      1  0.5643490000000  0.4650380000000  0.5301120000000 1.0
C      1  0.5179040000000  0.5262450000000  0.4659350000000 1.0
C      1  0.4466980000000  0.4834420000000  0.5385460000000 1.0
C      1  0.4742200000000  0.5185680000000  0.5644290000000 1.0
C      1  0.5229570000000  0.4740460000000  0.5242080000000 1.0
C      1  0.5629850000000  0.4855810000000  0.4651070000000 1.0
C      1  0.5275930000000  0.4747460000000  0.5541200000000 1.0
C      1  0.4485490000000  0.4682760000000  0.4879220000000 1.0
C      1  0.5282510000000  0.5488440000000  0.5388820000000 1.0
C      1  0.4524790000000  0.5332940000000  0.4555780000000 1.0
C      1  0.4671260000000  0.4500870000000  0.4736720000000 1.0
C      1  0.5257400000000  0.4999550000000  0.5103750000000 1.0
C      1  0.4695730000000  0.5514490000000  0.4932790000000 1.0
C      1  0.4665320000000  0.5563430000000  0.4651710000000 1.0
C      1  0.5191550000000  0.4997830000000  0.4791240000000 1.0
C      1  0.5497240000000  0.5353060000000  0.5358140000000 1.0
C      1  0.5337260000000  0.4306380000000  0.5019010000000 1.0
C      1  0.4718830000000  0.4902350000000  0.4556280000000 1.0
C      1  0.4927230000000  0.5568670000000  0.4551350000000 1.0
C      1  0.5514480000000  0.5113310000000  0.5215610000000 1.0
C      1  0.5420690000000  0.4526990000000  0.5164380000000 1.0
C      1  0.4563940000000  0.4784460000000  0.5140320000000 1.0
C      1  0.4732370000000  0.5166020000000  0.4429840000000 1.0
C      1  0.5704210000000  0.4904400000000  0.5163330000000 1.0
C      1  0.4784260000000  0.5015010000000  0.5055580000000 1.0
END
