TITL C-166682-7343-4 -0.0249484930093738 125000 -105.653269655216 0 0 17 (C1) n - 1
REM
REM in /rds/project/t2_vol4/rds-t2-cs072/BORA/CARBON/from-Arr/AIRSS/Generating-Clusters/GAP-ML-2020/Only-C1/SD-CG/HFTN-CG
REM
REM
REM
REM
REM
REM ./C.cell (11c1c37f851c82e70ff6c80c92926a4b)
REM AIRSS Version 0.9.1 bugfix July 2018 build 013d7b7c2542+ Fri, 06 Jul 2018 19:26:36 +0100
REM compiler GCC version 9.3.0
REM options -cpp -mtune=generic -march=x86-64 -g -O0
REM seed -1842682229 -988324709 -807231613 -2005587846 543578668 39463082 1623626171 123448897 2014285393 -1822608531 -1649520698 750077136 1822713742 421464135 385025933 -741442014 -1234492877 -1184188497 -548345615 -1373801236 -1413400618 2039973446 137403680 -413324922 629370365 183176410 -2072528318 1405371739 -77020145 2102668123 -11086078 1751234933 -624460039
REM
CELL 1.54180   50.00000   50.00000   50.00000   90.00000   90.00000   90.00000
LATT -1
SFAC C  
C      1  0.5271810000000  0.4850450000000  0.5170740000000 1.0
C      1  0.4757400000000  0.4925530000000  0.4748210000000 1.0
C      1  0.4683780000000  0.5275920000000  0.5156960000000 1.0
C      1  0.5039100000000  0.4938280000000  0.4766840000000 1.0
C      1  0.4680510000000  0.4563550000000  0.5094910000000 1.0
C      1  0.4813360000000  0.5216760000000  0.4631270000000 1.0
C      1  0.4868900000000  0.5424640000000  0.4833570000000 1.0
C      1  0.5793050000000  0.4899580000000  0.5212120000000 1.0
C      1  0.5107880000000  0.5174180000000  0.4638610000000 1.0
C      1  0.5138580000000  0.5323790000000  0.4884760000000 1.0
C      1  0.4693040000000  0.5501470000000  0.5025650000000 1.0
C      1  0.5129220000000  0.4623750000000  0.5235930000000 1.0
C      1  0.5085590000000  0.5040470000000  0.5048580000000 1.0
C      1  0.4914900000000  0.4486670000000  0.5216630000000 1.0
C      1  0.4676080000000  0.4830320000000  0.5004620000000 1.0
C      1  0.5544190000000  0.4885670000000  0.5182930000000 1.0
C      1  0.4802600000000  0.5038970000000  0.5147650000000 1.0
END
