TITL C-160252-8270-7 0.0562120225458627 125000 -771.813953058352 0 0 109 (C1) n - 1
REM
REM in /rds/project/t2_vol4/rds-t2-cs072/BORA/CARBON/from-Arr/AIRSS/Generating-Clusters/GAP-ML-2020/Only-C1/SD-CG/HFTN-CG
REM
REM
REM
REM
REM
REM ./C.cell (11c1c37f851c82e70ff6c80c92926a4b)
REM AIRSS Version 0.9.1 bugfix July 2018 build 013d7b7c2542+ Fri, 06 Jul 2018 19:26:36 +0100
REM compiler GCC version 9.3.0
REM options -cpp -mtune=generic -march=x86-64 -g -O0
REM seed 233616420 -674064695 1291257966 -1902557542 -1980321117 1112110636 813273657 -1065740903 1736980679 -357511566 -300937065 387776929 -1100398797 -1036705855 1722755901 246470287 371223189 51369438 1918504649 540594545 -1499057764 -357765421 -403382260 2015140710 -847123717 21983764 -1003395183 -774151434 -261630660 -2135198432 -1869998317 -2084224260 1492639473
REM
CELL 1.54180   50.00000   50.00000   50.00000   90.00000   90.00000   90.00000
LATT -1
SFAC C  
C      1  0.5081430000000  0.5087590000000  0.5357050000000 1.0
C      1  0.4313850000000  0.4910630000000  0.5207960000000 1.0
C      1  0.4592430000000  0.4395410000000  0.5426430000000 1.0
C      1  0.4691300000000  0.5668770000000  0.4386410000000 1.0
C      1  0.5312120000000  0.5817880000000  0.5165300000000 1.0
C      1  0.4182960000000  0.5162500000000  0.4803610000000 1.0
C      1  0.4670620000000  0.4945270000000  0.4808340000000 1.0
C      1  0.5410460000000  0.4530390000000  0.5619310000000 1.0
C      1  0.5178190000000  0.4518080000000  0.4333910000000 1.0
C      1  0.4848150000000  0.5526230000000  0.5651680000000 1.0
C      1  0.4222000000000  0.4922480000000  0.4647790000000 1.0
C      1  0.4701990000000  0.4090930000000  0.4657850000000 1.0
C      1  0.4886670000000  0.4507070000000  0.5050410000000 1.0
C      1  0.5173640000000  0.5759950000000  0.5408310000000 1.0
C      1  0.4711680000000  0.5061380000000  0.5799600000000 1.0
C      1  0.4426460000000  0.5626660000000  0.5075710000000 1.0
C      1  0.5662400000000  0.4499130000000  0.5181590000000 1.0
C      1  0.5643850000000  0.5487550000000  0.4617070000000 1.0
C      1  0.5388640000000  0.5155060000000  0.4733850000000 1.0
C      1  0.4843580000000  0.5016570000000  0.4188660000000 1.0
C      1  0.4895590000000  0.4427830000000  0.4325320000000 1.0
C      1  0.4616980000000  0.4976420000000  0.5109140000000 1.0
C      1  0.4865950000000  0.4504320000000  0.4797930000000 1.0
C      1  0.5436690000000  0.5181350000000  0.5898800000000 1.0
C      1  0.5358600000000  0.4714930000000  0.5828330000000 1.0
C      1  0.5244310000000  0.4192850000000  0.5111970000000 1.0
C      1  0.5801380000000  0.4702830000000  0.5016800000000 1.0
C      1  0.5740720000000  0.5216870000000  0.5053810000000 1.0
C      1  0.5006020000000  0.5059810000000  0.4457970000000 1.0
C      1  0.4463260000000  0.5257510000000  0.5468300000000 1.0
C      1  0.4647730000000  0.5320970000000  0.5681680000000 1.0
C      1  0.4674030000000  0.4663850000000  0.4673500000000 1.0
C      1  0.4670840000000  0.4614830000000  0.4381830000000 1.0
C      1  0.4862950000000  0.4896550000000  0.5289250000000 1.0
C      1  0.5433030000000  0.5548330000000  0.4421090000000 1.0
C      1  0.5469540000000  0.4938920000000  0.5149570000000 1.0
C      1  0.4840430000000  0.4003170000000  0.4897630000000 1.0
C      1  0.4945530000000  0.4553090000000  0.5714390000000 1.0
C      1  0.4235090000000  0.4670540000000  0.4788970000000 1.0
C      1  0.4726260000000  0.5701710000000  0.5174380000000 1.0
C      1  0.5291600000000  0.5123420000000  0.4441870000000 1.0
C      1  0.4379710000000  0.5000780000000  0.4406770000000 1.0
C      1  0.5775610000000  0.4945590000000  0.5174490000000 1.0
C      1  0.5163780000000  0.5235720000000  0.5901760000000 1.0
C      1  0.5154960000000  0.4405080000000  0.5567150000000 1.0
C      1  0.5710490000000  0.4699820000000  0.4752870000000 1.0
C      1  0.4191320000000  0.5159130000000  0.5083500000000 1.0
C      1  0.4880590000000  0.5707310000000  0.5430660000000 1.0
C      1  0.4885140000000  0.5113760000000  0.4714190000000 1.0
C      1  0.4572360000000  0.5779250000000  0.4625750000000 1.0
C      1  0.5698040000000  0.4922370000000  0.4575580000000 1.0
C      1  0.5480260000000  0.4914760000000  0.4369880000000 1.0
C      1  0.4411840000000  0.4496480000000  0.4652350000000 1.0
C      1  0.4788730000000  0.4183700000000  0.5352410000000 1.0
C      1  0.5271310000000  0.5369210000000  0.4914600000000 1.0
C      1  0.4343220000000  0.5377920000000  0.5204060000000 1.0
C      1  0.5086740000000  0.4895380000000  0.4074810000000 1.0
C      1  0.5312280000000  0.5592460000000  0.5587510000000 1.0
C      1  0.4589580000000  0.4860010000000  0.4266540000000 1.0
C      1  0.4611340000000  0.5252260000000  0.5187310000000 1.0
C      1  0.5643820000000  0.4581710000000  0.5452190000000 1.0
C      1  0.5005940000000  0.4733620000000  0.5120390000000 1.0
C      1  0.5076290000000  0.4751640000000  0.5870600000000 1.0
C      1  0.4383660000000  0.5288510000000  0.4407570000000 1.0
C      1  0.5115570000000  0.4072630000000  0.4888650000000 1.0
C      1  0.5040960000000  0.5457380000000  0.4165310000000 1.0
C      1  0.5566540000000  0.5457210000000  0.5505840000000 1.0
C      1  0.4666530000000  0.4578980000000  0.5632680000000 1.0
C      1  0.5435340000000  0.4558100000000  0.4787660000000 1.0
C      1  0.5122270000000  0.5595650000000  0.4776830000000 1.0
C      1  0.5540130000000  0.4913000000000  0.5881450000000 1.0
C      1  0.5324240000000  0.4967160000000  0.5388570000000 1.0
C      1  0.4459580000000  0.4228620000000  0.4742600000000 1.0
C      1  0.5573970000000  0.5691320000000  0.5084400000000 1.0
C      1  0.5739260000000  0.4995770000000  0.5685290000000 1.0
C      1  0.5681180000000  0.5202720000000  0.4737580000000 1.0
C      1  0.5198510000000  0.5687790000000  0.4508360000000 1.0
C      1  0.4864540000000  0.5411140000000  0.4791680000000 1.0
C      1  0.4682570000000  0.4059590000000  0.5120490000000 1.0
C      1  0.5089000000000  0.5254060000000  0.5112850000000 1.0
C      1  0.5664210000000  0.5452450000000  0.5224640000000 1.0
C      1  0.4384240000000  0.4983930000000  0.5490000000000 1.0
C      1  0.4554070000000  0.4850730000000  0.5676840000000 1.0
C      1  0.5070040000000  0.4961380000000  0.4929380000000 1.0
C      1  0.4447000000000  0.4196710000000  0.5028190000000 1.0
C      1  0.5300670000000  0.5353270000000  0.4259530000000 1.0
C      1  0.5452240000000  0.4383520000000  0.5032940000000 1.0
C      1  0.4970550000000  0.5015730000000  0.5906380000000 1.0
C      1  0.5635900000000  0.5272200000000  0.5703440000000 1.0
C      1  0.5779560000000  0.4839840000000  0.5463170000000 1.0
C      1  0.4900970000000  0.4181530000000  0.4476770000000 1.0
C      1  0.5081520000000  0.4222030000000  0.5363870000000 1.0
C      1  0.5341670000000  0.4895960000000  0.4886840000000 1.0
C      1  0.5157860000000  0.4162930000000  0.4621230000000 1.0
C      1  0.4264390000000  0.4648800000000  0.5085100000000 1.0
C      1  0.4287360000000  0.5386570000000  0.4661060000000 1.0
C      1  0.5109180000000  0.5472680000000  0.5756180000000 1.0
C      1  0.4586160000000  0.5432520000000  0.4268620000000 1.0
C      1  0.5124420000000  0.5831660000000  0.4962720000000 1.0
C      1  0.4730710000000  0.5948720000000  0.4762670000000 1.0
C      1  0.4396370000000  0.4418290000000  0.5202430000000 1.0
C      1  0.5303030000000  0.4403900000000  0.4565900000000 1.0
C      1  0.4392860000000  0.5618440000000  0.4792420000000 1.0
C      1  0.4851300000000  0.5901960000000  0.4996920000000 1.0
C      1  0.5290430000000  0.4753460000000  0.4212630000000 1.0
C      1  0.4827130000000  0.5410660000000  0.5084730000000 1.0
C      1  0.4805650000000  0.5301060000000  0.4135160000000 1.0
C      1  0.5627950000000  0.5665440000000  0.4819090000000 1.0
C      1  0.4976400000000  0.5676410000000  0.4324620000000 1.0
END
