TITL C-166681-7369-2 -0.21752160771751 125000 -599.955983556133 0 0 87 (C1) n - 1
REM
REM in /rds/project/t2_vol4/rds-t2-cs072/BORA/CARBON/from-Arr/AIRSS/Generating-Clusters/GAP-ML-2020/Only-C1/SD-CG/HFTN-CG
REM
REM
REM
REM
REM
REM ./C.cell (11c1c37f851c82e70ff6c80c92926a4b)
REM AIRSS Version 0.9.1 bugfix July 2018 build 013d7b7c2542+ Fri, 06 Jul 2018 19:26:36 +0100
REM compiler GCC version 9.3.0
REM options -cpp -mtune=generic -march=x86-64 -g -O0
REM seed 548780277 553128301 1955684989 1268981478 1820248964 -418650743 -585407119 -1288989361 -1100302804 1092101106 -441997149 10855471 1821641742 -901566495 -44355388 1546130933 344931808 107375048 -194233683 1493413766 1481710497 820029243 -365183018 -1725916517 827060563 968686599 -899652063 -1697696465 -1915359144 -846094382 -2057685865 1603582556 -1502577889
REM
CELL 1.54180   50.00000   50.00000   50.00000   90.00000   90.00000   90.00000
LATT -1
SFAC C  
C      1  0.4340390000000  0.5298650000000  0.5007960000000 1.0
C      1  0.5546120000000  0.4547390000000  0.4859690000000 1.0
C      1  0.4642570000000  0.4768270000000  0.4846190000000 1.0
C      1  0.5655750000000  0.4872780000000  0.4541840000000 1.0
C      1  0.4738720000000  0.4503640000000  0.5385190000000 1.0
C      1  0.5166030000000  0.5370630000000  0.5307240000000 1.0
C      1  0.4612080000000  0.5623110000000  0.4715060000000 1.0
C      1  0.4934020000000  0.5733180000000  0.5034200000000 1.0
C      1  0.4338870000000  0.4450070000000  0.4974220000000 1.0
C      1  0.5467750000000  0.5608640000000  0.5106780000000 1.0
C      1  0.5308110000000  0.4989620000000  0.4873260000000 1.0
C      1  0.5690850000000  0.4743500000000  0.5230120000000 1.0
C      1  0.5099130000000  0.5658730000000  0.4556030000000 1.0
C      1  0.4959930000000  0.4689160000000  0.5803880000000 1.0
C      1  0.4349460000000  0.4652310000000  0.4757400000000 1.0
C      1  0.5273900000000  0.4932980000000  0.5351430000000 1.0
C      1  0.5205240000000  0.5115120000000  0.5121670000000 1.0
C      1  0.5206760000000  0.5072500000000  0.4612550000000 1.0
C      1  0.4890770000000  0.5453000000000  0.5780890000000 1.0
C      1  0.4691690000000  0.5352470000000  0.5590680000000 1.0
C      1  0.5173940000000  0.4373040000000  0.5555500000000 1.0
C      1  0.5020600000000  0.5520300000000  0.4315220000000 1.0
C      1  0.4912310000000  0.5236360000000  0.5388650000000 1.0
C      1  0.5313200000000  0.5310860000000  0.5766110000000 1.0
C      1  0.4281630000000  0.4611270000000  0.5199370000000 1.0
C      1  0.4590500000000  0.5021440000000  0.4389210000000 1.0
C      1  0.5182910000000  0.5663240000000  0.5186640000000 1.0
C      1  0.5057500000000  0.5235840000000  0.5832140000000 1.0
C      1  0.4937360000000  0.5684120000000  0.5604260000000 1.0
C      1  0.5715290000000  0.5301560000000  0.4793200000000 1.0
C      1  0.4284970000000  0.5156640000000  0.4759410000000 1.0
C      1  0.4187180000000  0.4890070000000  0.4822940000000 1.0
C      1  0.4553870000000  0.5469890000000  0.4483560000000 1.0
C      1  0.5203190000000  0.5307400000000  0.4238120000000 1.0
C      1  0.5059210000000  0.5063110000000  0.4194910000000 1.0
C      1  0.5469310000000  0.4438870000000  0.4580470000000 1.0
C      1  0.4758150000000  0.5424160000000  0.4281640000000 1.0
C      1  0.4748280000000  0.4888850000000  0.5095210000000 1.0
C      1  0.4420380000000  0.5222350000000  0.4519360000000 1.0
C      1  0.5645110000000  0.5160010000000  0.4550650000000 1.0
C      1  0.5349300000000  0.4194930000000  0.4630780000000 1.0
C      1  0.5440440000000  0.4697660000000  0.4433350000000 1.0
C      1  0.4888610000000  0.4971590000000  0.5764360000000 1.0
C      1  0.5363830000000  0.5547150000000  0.4613030000000 1.0
C      1  0.4762210000000  0.4889320000000  0.4601100000000 1.0
C      1  0.4467020000000  0.4660950000000  0.5402350000000 1.0
C      1  0.4898790000000  0.4741530000000  0.5302770000000 1.0
C      1  0.5173560000000  0.4832160000000  0.4375900000000 1.0
C      1  0.4784580000000  0.4515720000000  0.4888730000000 1.0
C      1  0.5396120000000  0.5293690000000  0.4461890000000 1.0
C      1  0.4450610000000  0.4953350000000  0.5463800000000 1.0
C      1  0.5368500000000  0.5471770000000  0.5541410000000 1.0
C      1  0.4783360000000  0.5141200000000  0.4207150000000 1.0
C      1  0.5148640000000  0.4256330000000  0.4812710000000 1.0
C      1  0.5186060000000  0.5714880000000  0.5481370000000 1.0
C      1  0.5740060000000  0.4750800000000  0.4779150000000 1.0
C      1  0.4811290000000  0.4328410000000  0.5138710000000 1.0
C      1  0.5578180000000  0.5464120000000  0.5333710000000 1.0
C      1  0.4888480000000  0.5136300000000  0.5097830000000 1.0
C      1  0.4888650000000  0.5722790000000  0.4748680000000 1.0
C      1  0.5562470000000  0.4494040000000  0.5148120000000 1.0
C      1  0.4942840000000  0.4667450000000  0.4496320000000 1.0
C      1  0.5000170000000  0.4969730000000  0.5496800000000 1.0
C      1  0.4603860000000  0.5079870000000  0.5660990000000 1.0
C      1  0.4622340000000  0.4308130000000  0.4632070000000 1.0
C      1  0.5044630000000  0.4536570000000  0.4755370000000 1.0
C      1  0.4501110000000  0.5543870000000  0.4977830000000 1.0
C      1  0.4169760000000  0.4867870000000  0.5106520000000 1.0
C      1  0.4890560000000  0.4445180000000  0.5626600000000 1.0
C      1  0.5805780000000  0.5160270000000  0.5024270000000 1.0
C      1  0.5820870000000  0.4875360000000  0.5011280000000 1.0
C      1  0.5182220000000  0.4674640000000  0.5209990000000 1.0
C      1  0.5202850000000  0.4565940000000  0.5749810000000 1.0
C      1  0.4698750000000  0.5627320000000  0.5446810000000 1.0
C      1  0.4294060000000  0.5086860000000  0.5231980000000 1.0
C      1  0.5540220000000  0.5532210000000  0.4839750000000 1.0
C      1  0.4708310000000  0.4471850000000  0.4420680000000 1.0
C      1  0.5694090000000  0.5215600000000  0.5282670000000 1.0
C      1  0.4864880000000  0.5279010000000  0.4866110000000 1.0
C      1  0.4686840000000  0.5661370000000  0.5168730000000 1.0
C      1  0.4584580000000  0.4290420000000  0.4923120000000 1.0
C      1  0.5279010000000  0.4396800000000  0.5275660000000 1.0
C      1  0.5093660000000  0.4252310000000  0.5096380000000 1.0
C      1  0.4928860000000  0.5136120000000  0.4651210000000 1.0
C      1  0.5572980000000  0.4960620000000  0.5380520000000 1.0
C      1  0.4454300000000  0.4497310000000  0.4516480000000 1.0
C      1  0.5248700000000  0.4703480000000  0.4912290000000 1.0
END
