TITL C-161214-4949-8 -7.42079236415943 125000 -46.088735808351 0 0 8 (C1) n - 1
REM
REM in /rds/project/t2_vol4/rds-t2-cs072/BORA/CARBON/from-Arr/AIRSS/Generating-Clusters/GAP-ML-2020/Only-C1/SD-CG/HFTN-CG
REM
REM
REM
REM
REM
REM ./C.cell (11c1c37f851c82e70ff6c80c92926a4b)
REM AIRSS Version 0.9.1 bugfix July 2018 build 013d7b7c2542+ Fri, 06 Jul 2018 19:26:36 +0100
REM compiler GCC version 9.3.0
REM options -cpp -mtune=generic -march=x86-64 -g -O0
REM seed 1948677560 1351527665 1479822874 97366518 -1194480495 480762037 1184029845 1997948862 1587450250 -1020262392 1652517399 2022153894 -791375152 -475195078 1628008558 1520858050 1592060024 -596943510 -1364900427 1521267279 1705627376 1809548445 -1253566633 -661617134 1345480556 -1426926444 1934648186 -641816132 -184868064 -1802760844 -1890635232 1565556724 -148811720
REM
CELL 1.54180   50.00000   50.00000   50.00000   90.00000   90.00000   90.00000
LATT -1
SFAC C  
C      1  0.4793190000000  0.5160360000000  0.5183960000000 1.0
C      1  0.5284610000000  0.5057720000000  0.5364500000000 1.0
C      1  0.5225490000000  0.4545550000000  0.4722660000000 1.0
C      1  0.5166760000000  0.4792090000000  0.4735840000000 1.0
C      1  0.4602380000000  0.5253670000000  0.5024010000000 1.0
C      1  0.4812290000000  0.5162910000000  0.4884100000000 1.0
C      1  0.5070730000000  0.5041740000000  0.5192400000000 1.0
C      1  0.5044540000000  0.4985970000000  0.4892520000000 1.0
END
