TITL C-167815-7853-6 0.193694298958033 125000 -865.357930642533 0 0 123 (C1) n - 1
REM
REM in /rds/project/t2_vol4/rds-t2-cs072/BORA/CARBON/from-Arr/AIRSS/Generating-Clusters/GAP-ML-2020/Only-C1/SD-CG/HFTN-CG
REM
REM
REM
REM
REM
REM ./C.cell (11c1c37f851c82e70ff6c80c92926a4b)
REM AIRSS Version 0.9.1 bugfix July 2018 build 013d7b7c2542+ Fri, 06 Jul 2018 19:26:36 +0100
REM compiler GCC version 9.3.0
REM options -cpp -mtune=generic -march=x86-64 -g -O0
REM seed -1904705566 -1835069789 -1018554896 584413410 952193722 1166601135 804163826 1902634888 992641278 1615888400 -1642029703 -319231753 201686680 -2015012818 395021251 954564027 1945461163 1635761694 -491724421 -1072380142 -1515994036 -132891530 -656364849 180933945 2115982530 -1635833814 1851345279 1352911269 -906104523 -912783917 305872878 1584960728 -770337805
REM
CELL 1.54180   50.00000   50.00000   50.00000   90.00000   90.00000   90.00000
LATT -1
SFAC C  
C      1  0.5888760000000  0.5202460000000  0.4456300000000 1.0
C      1  0.5572190000000  0.5083570000000  0.5768570000000 1.0
C      1  0.5338680000000  0.5502290000000  0.5655120000000 1.0
C      1  0.5332500000000  0.5233440000000  0.5752550000000 1.0
C      1  0.4963650000000  0.4659020000000  0.4195310000000 1.0
C      1  0.5813760000000  0.4800830000000  0.5574150000000 1.0
C      1  0.5200790000000  0.4554920000000  0.5022220000000 1.0
C      1  0.5843840000000  0.4964710000000  0.4589610000000 1.0
C      1  0.4200710000000  0.4429670000000  0.4861870000000 1.0
C      1  0.4493910000000  0.5723580000000  0.5239660000000 1.0
C      1  0.4422550000000  0.5490760000000  0.5395980000000 1.0
C      1  0.5129780000000  0.4604490000000  0.5318550000000 1.0
C      1  0.4623750000000  0.5231390000000  0.5772180000000 1.0
C      1  0.5350520000000  0.5762370000000  0.4469940000000 1.0
C      1  0.4822800000000  0.4406520000000  0.4640790000000 1.0
C      1  0.4587860000000  0.5838070000000  0.4728250000000 1.0
C      1  0.4505960000000  0.5131100000000  0.4343760000000 1.0
C      1  0.4264790000000  0.5253210000000  0.4788230000000 1.0
C      1  0.5102660000000  0.5679610000000  0.5612000000000 1.0
C      1  0.5815800000000  0.4432980000000  0.4930360000000 1.0
C      1  0.4743100000000  0.4143550000000  0.5472830000000 1.0
C      1  0.4963940000000  0.5922450000000  0.5231980000000 1.0
C      1  0.5191720000000  0.4938290000000  0.4679800000000 1.0
C      1  0.5583540000000  0.4509860000000  0.4484840000000 1.0
C      1  0.4808160000000  0.5662310000000  0.5588370000000 1.0
C      1  0.5584490000000  0.4781600000000  0.5756780000000 1.0
C      1  0.4894500000000  0.5316600000000  0.4676420000000 1.0
C      1  0.4734760000000  0.5020660000000  0.5387590000000 1.0
C      1  0.5432760000000  0.4183980000000  0.4778330000000 1.0
C      1  0.4543200000000  0.4341940000000  0.4586480000000 1.0
C      1  0.4549580000000  0.5407470000000  0.4219080000000 1.0
C      1  0.4832910000000  0.5428020000000  0.4158830000000 1.0
C      1  0.4508000000000  0.4870240000000  0.5300580000000 1.0
C      1  0.4429850000000  0.4660720000000  0.4220320000000 1.0
C      1  0.4729200000000  0.5825750000000  0.5363700000000 1.0
C      1  0.5292110000000  0.4252700000000  0.5017200000000 1.0
C      1  0.4552020000000  0.4890520000000  0.4157620000000 1.0
C      1  0.4559170000000  0.4598820000000  0.5380580000000 1.0
C      1  0.5813910000000  0.5342450000000  0.4857250000000 1.0
C      1  0.4165390000000  0.4597240000000  0.4629750000000 1.0
C      1  0.4421110000000  0.4239680000000  0.4814040000000 1.0
C      1  0.5330540000000  0.4786510000000  0.4894150000000 1.0
C      1  0.4275200000000  0.5100620000000  0.4533300000000 1.0
C      1  0.5226270000000  0.5659310000000  0.5000690000000 1.0
C      1  0.4907900000000  0.4672610000000  0.5941690000000 1.0
C      1  0.4595800000000  0.4557680000000  0.5663000000000 1.0
C      1  0.5947230000000  0.5018790000000  0.5181290000000 1.0
C      1  0.4896060000000  0.4879080000000  0.4630250000000 1.0
C      1  0.5554310000000  0.5607640000000  0.5476630000000 1.0
C      1  0.4480720000000  0.5211370000000  0.4985350000000 1.0
C      1  0.4592950000000  0.4098220000000  0.4995950000000 1.0
C      1  0.5379970000000  0.5347640000000  0.4250680000000 1.0
C      1  0.4871180000000  0.4046180000000  0.4914280000000 1.0
C      1  0.4373260000000  0.5611600000000  0.4285990000000 1.0
C      1  0.5008770000000  0.5643530000000  0.4241010000000 1.0
C      1  0.5530520000000  0.4947180000000  0.5015860000000 1.0
C      1  0.5371060000000  0.4628990000000  0.5850740000000 1.0
C      1  0.4902670000000  0.4632140000000  0.4479350000000 1.0
C      1  0.5223330000000  0.5343380000000  0.5025910000000 1.0
C      1  0.4083470000000  0.4995130000000  0.4902450000000 1.0
C      1  0.5013110000000  0.5846840000000  0.4962490000000 1.0
C      1  0.5174220000000  0.4491440000000  0.4181490000000 1.0
C      1  0.5190460000000  0.5256680000000  0.4731510000000 1.0
C      1  0.5443010000000  0.5833530000000  0.5339290000000 1.0
C      1  0.4730790000000  0.4314730000000  0.5705870000000 1.0
C      1  0.4948460000000  0.5140960000000  0.4195480000000 1.0
C      1  0.5175290000000  0.5871820000000  0.5420190000000 1.0
C      1  0.5372930000000  0.5099450000000  0.5187220000000 1.0
C      1  0.5240150000000  0.5107930000000  0.4205000000000 1.0
C      1  0.4276810000000  0.5559610000000  0.4789920000000 1.0
C      1  0.5180310000000  0.4920940000000  0.5357880000000 1.0
C      1  0.5636510000000  0.4795840000000  0.4465010000000 1.0
C      1  0.4885160000000  0.4565200000000  0.4957130000000 1.0
C      1  0.4326860000000  0.5274490000000  0.5247750000000 1.0
C      1  0.4806020000000  0.4845270000000  0.4925240000000 1.0
C      1  0.4445510000000  0.5004570000000  0.5810580000000 1.0
C      1  0.4127280000000  0.4879060000000  0.4645540000000 1.0
C      1  0.5454030000000  0.5834090000000  0.5062520000000 1.0
C      1  0.5126440000000  0.5021560000000  0.5682930000000 1.0
C      1  0.4230130000000  0.4981650000000  0.5647650000000 1.0
C      1  0.4792060000000  0.5119140000000  0.4482730000000 1.0
C      1  0.4823050000000  0.5042080000000  0.5664310000000 1.0
C      1  0.4365810000000  0.4517870000000  0.4439240000000 1.0
C      1  0.5658060000000  0.4350730000000  0.4719130000000 1.0
C      1  0.4835120000000  0.4536720000000  0.5243890000000 1.0
C      1  0.4390410000000  0.5686660000000  0.4551020000000 1.0
C      1  0.5195650000000  0.4354670000000  0.5485700000000 1.0
C      1  0.5386840000000  0.4967690000000  0.4444560000000 1.0
C      1  0.4950750000000  0.5296490000000  0.5125210000000 1.0
C      1  0.4880360000000  0.5883160000000  0.4710200000000 1.0
C      1  0.5152020000000  0.4808630000000  0.5892570000000 1.0
C      1  0.4242720000000  0.5003160000000  0.5356380000000 1.0
C      1  0.5762430000000  0.5478570000000  0.5318460000000 1.0
C      1  0.5658310000000  0.5761690000000  0.4892680000000 1.0
C      1  0.5020670000000  0.4130120000000  0.5382080000000 1.0
C      1  0.4673050000000  0.4790630000000  0.5815880000000 1.0
C      1  0.4755190000000  0.5341060000000  0.4929000000000 1.0
C      1  0.5076900000000  0.4084920000000  0.5111070000000 1.0
C      1  0.5882150000000  0.5226070000000  0.5370300000000 1.0
C      1  0.4967310000000  0.4158170000000  0.4663500000000 1.0
C      1  0.5335880000000  0.4383220000000  0.4374210000000 1.0
C      1  0.4178580000000  0.4541110000000  0.5116510000000 1.0
C      1  0.4596530000000  0.5474300000000  0.5633940000000 1.0
C      1  0.4831720000000  0.4891130000000  0.4086940000000 1.0
C      1  0.5895070000000  0.4530320000000  0.5149870000000 1.0
C      1  0.5811050000000  0.5096720000000  0.5611000000000 1.0
C      1  0.5240200000000  0.4181060000000  0.4570680000000 1.0
C      1  0.4949390000000  0.4396450000000  0.5867800000000 1.0
C      1  0.4532650000000  0.4162450000000  0.5266880000000 1.0
C      1  0.4104260000000  0.4840890000000  0.5138420000000 1.0
C      1  0.5702010000000  0.5405230000000  0.4594560000000 1.0
C      1  0.5291720000000  0.5604060000000  0.4224700000000 1.0
C      1  0.5057860000000  0.5824560000000  0.4482890000000 1.0
C      1  0.5788080000000  0.5547820000000  0.5039510000000 1.0
C      1  0.5807440000000  0.5053560000000  0.4908910000000 1.0
C      1  0.4441370000000  0.5738520000000  0.4964170000000 1.0
C      1  0.4369060000000  0.4405720000000  0.5282020000000 1.0
C      1  0.5923490000000  0.4754540000000  0.5311320000000 1.0
C      1  0.5597450000000  0.5689740000000  0.4617690000000 1.0
C      1  0.4537970000000  0.4913210000000  0.5002570000000 1.0
C      1  0.5435840000000  0.5268880000000  0.4534220000000 1.0
C      1  0.4935600000000  0.5014660000000  0.5192560000000 1.0
C      1  0.5224520000000  0.4390540000000  0.5763700000000 1.0
END
