TITL C-166684-7367-10 0.0693082598770414 125000 -588.743421743497 0 0 82 (C1) n - 1
REM
REM in /rds/project/t2_vol4/rds-t2-cs072/BORA/CARBON/from-Arr/AIRSS/Generating-Clusters/GAP-ML-2020/Only-C1/SD-CG/HFTN-CG
REM
REM
REM
REM
REM
REM ./C.cell (11c1c37f851c82e70ff6c80c92926a4b)
REM AIRSS Version 0.9.1 bugfix July 2018 build 013d7b7c2542+ Fri, 06 Jul 2018 19:26:36 +0100
REM compiler GCC version 9.3.0
REM options -cpp -mtune=generic -march=x86-64 -g -O0
REM seed 473083288 1314470295 -1083361738 296765698 533938270 1546229269 -1545810724 -1291663283 -1562741224 1923528312 -272177445 -1321044551 -1260720617 -1031091410 -1710862448 1797100564 -167985179 -1368164900 1984873953 59581137 -147921167 421619225 1853862284 1999120660 2094434259 545198842 -528345824 1340747736 -1511339024 -1576966440 -463158315 513159734 -1988700809
REM
CELL 1.54180   50.00000   50.00000   50.00000   90.00000   90.00000   90.00000
LATT -1
SFAC C  
C      1  0.5118660000000  0.5301440000000  0.4364470000000 1.0
C      1  0.5580410000000  0.5210420000000  0.5462100000000 1.0
C      1  0.5674820000000  0.4902750000000  0.4637050000000 1.0
C      1  0.5122020000000  0.4299470000000  0.4630370000000 1.0
C      1  0.4244980000000  0.4801070000000  0.5208470000000 1.0
C      1  0.5460730000000  0.4903880000000  0.4431600000000 1.0
C      1  0.4631510000000  0.5136480000000  0.5706920000000 1.0
C      1  0.4875270000000  0.4790600000000  0.5155150000000 1.0
C      1  0.5211270000000  0.4550430000000  0.5561210000000 1.0
C      1  0.4913330000000  0.4807940000000  0.4704290000000 1.0
C      1  0.5661360000000  0.5371520000000  0.4533100000000 1.0
C      1  0.5703140000000  0.4668630000000  0.4801450000000 1.0
C      1  0.5703780000000  0.4642910000000  0.5103180000000 1.0
C      1  0.5714510000000  0.4862070000000  0.5281550000000 1.0
C      1  0.5032620000000  0.5670150000000  0.5426140000000 1.0
C      1  0.4505190000000  0.5453560000000  0.5374760000000 1.0
C      1  0.4712560000000  0.5002840000000  0.5041970000000 1.0
C      1  0.4878740000000  0.4414290000000  0.4539080000000 1.0
C      1  0.4647130000000  0.4288390000000  0.4989080000000 1.0
C      1  0.5293650000000  0.4382180000000  0.5338070000000 1.0
C      1  0.4804940000000  0.4248450000000  0.5229830000000 1.0
C      1  0.4362220000000  0.4770030000000  0.5476320000000 1.0
C      1  0.4126350000000  0.4865850000000  0.4497870000000 1.0
C      1  0.4197220000000  0.5143020000000  0.4886530000000 1.0
C      1  0.4606120000000  0.5594530000000  0.5138230000000 1.0
C      1  0.4556760000000  0.4586730000000  0.5575670000000 1.0
C      1  0.5038270000000  0.5244050000000  0.4825230000000 1.0
C      1  0.4842500000000  0.4958650000000  0.5781120000000 1.0
C      1  0.4682450000000  0.5395960000000  0.5603670000000 1.0
C      1  0.5394920000000  0.5402200000000  0.5547730000000 1.0
C      1  0.4531360000000  0.4878370000000  0.4223700000000 1.0
C      1  0.5609730000000  0.5339640000000  0.4266630000000 1.0
C      1  0.5348030000000  0.4445230000000  0.4521120000000 1.0
C      1  0.4761920000000  0.5530420000000  0.4626480000000 1.0
C      1  0.4795730000000  0.4904160000000  0.4262190000000 1.0
C      1  0.4662840000000  0.4345210000000  0.4719150000000 1.0
C      1  0.5468940000000  0.4285640000000  0.4924820000000 1.0
C      1  0.4666400000000  0.5368840000000  0.4413750000000 1.0
C      1  0.5088200000000  0.4242870000000  0.5172290000000 1.0
C      1  0.5281380000000  0.5670350000000  0.4684930000000 1.0
C      1  0.5166040000000  0.5303970000000  0.5692890000000 1.0
C      1  0.5430860000000  0.5690310000000  0.5132650000000 1.0
C      1  0.5534950000000  0.4927380000000  0.5509740000000 1.0
C      1  0.4437140000000  0.4443380000000  0.4870830000000 1.0
C      1  0.4813110000000  0.5060700000000  0.4778020000000 1.0
C      1  0.5119160000000  0.5026630000000  0.5740870000000 1.0
C      1  0.5042240000000  0.4699010000000  0.4941620000000 1.0
C      1  0.5069710000000  0.5472110000000  0.4611860000000 1.0
C      1  0.5240230000000  0.5798050000000  0.4939760000000 1.0
C      1  0.5273430000000  0.4687570000000  0.4402930000000 1.0
C      1  0.4950490000000  0.4488030000000  0.5643120000000 1.0
C      1  0.4771740000000  0.4691780000000  0.5742060000000 1.0
C      1  0.5549870000000  0.5582760000000  0.4696780000000 1.0
C      1  0.5272730000000  0.4831890000000  0.4967390000000 1.0
C      1  0.4260910000000  0.4664010000000  0.4952450000000 1.0
C      1  0.4988060000000  0.5859620000000  0.5005660000000 1.0
C      1  0.4347800000000  0.5344900000000  0.4748250000000 1.0
C      1  0.5749510000000  0.5168910000000  0.4717340000000 1.0
C      1  0.4560430000000  0.5520080000000  0.4852410000000 1.0
C      1  0.4337970000000  0.5006190000000  0.4374820000000 1.0
C      1  0.4209000000000  0.5084280000000  0.5162180000000 1.0
C      1  0.4740140000000  0.4375600000000  0.5475480000000 1.0
C      1  0.4903610000000  0.5051480000000  0.5245100000000 1.0
C      1  0.4947010000000  0.5485660000000  0.5624040000000 1.0
C      1  0.5561980000000  0.4439850000000  0.4706790000000 1.0
C      1  0.4175910000000  0.4875680000000  0.4763940000000 1.0
C      1  0.5761930000000  0.5291070000000  0.4982720000000 1.0
C      1  0.5314760000000  0.5626210000000  0.5384090000000 1.0
C      1  0.4852750000000  0.5738750000000  0.5205420000000 1.0
C      1  0.5258120000000  0.5101070000000  0.4952370000000 1.0
C      1  0.5529350000000  0.4413270000000  0.5169140000000 1.0
C      1  0.4867730000000  0.5198040000000  0.4288730000000 1.0
C      1  0.4411660000000  0.5267840000000  0.4478200000000 1.0
C      1  0.5299190000000  0.4822500000000  0.5629290000000 1.0
C      1  0.5625980000000  0.5546420000000  0.4967820000000 1.0
C      1  0.5092690000000  0.5222520000000  0.5133970000000 1.0
C      1  0.5389280000000  0.5176560000000  0.4333880000000 1.0
C      1  0.4964940000000  0.4704320000000  0.4429560000000 1.0
C      1  0.4320640000000  0.5232530000000  0.5376610000000 1.0
C      1  0.5196540000000  0.4210380000000  0.4900540000000 1.0
C      1  0.5748730000000  0.5147930000000  0.5227750000000 1.0
C      1  0.4399750000000  0.5039570000000  0.5573680000000 1.0
END
