TITL C-166708-7384-11 14.675021547016 125000 -1011.71277165539 0 0 144 (C1) n - 1
REM
REM in /rds/project/t2_vol4/rds-t2-cs072/BORA/CARBON/from-Arr/AIRSS/Generating-Clusters/GAP-ML-2020/Only-C1/SD-CG/HFTN-CG
REM
REM
REM
REM
REM
REM ./C.cell (11c1c37f851c82e70ff6c80c92926a4b)
REM AIRSS Version 0.9.1 bugfix July 2018 build 013d7b7c2542+ Fri, 06 Jul 2018 19:26:36 +0100
REM compiler GCC version 9.3.0
REM options -cpp -mtune=generic -march=x86-64 -g -O0
REM seed -260918780 -293772032 1605825836 1065404117 -1060759787 -1081326006 -1260643787 -1029696635 -1768587524 -2136409264 -1249494005 -2025531053 -423131257 1126355624 -474542717 1559688475 1637302441 -2059625877 -717240437 2074949361 1975554439 -1200392931 -991565520 900968268 -700283847 545742216 -1571581047 -1543168047 417032769 -1699138601 -678760120 -1257510445 -825996563
REM
CELL 1.54180   50.00000   50.00000   50.00000   90.00000   90.00000   90.00000
LATT -1
SFAC C  
C      1  0.4983240000000  0.5261580000000  0.5832070000000 1.0
C      1  0.5426660000000  0.4879830000000  0.4898580000000 1.0
C      1  0.5450950000000  0.4565150000000  0.5534130000000 1.0
C      1  0.4839740000000  0.5245440000000  0.5308320000000 1.0
C      1  0.4558370000000  0.4856160000000  0.4710000000000 1.0
C      1  0.4972460000000  0.4190150000000  0.5300790000000 1.0
C      1  0.4576310000000  0.4072230000000  0.4921220000000 1.0
C      1  0.4624960000000  0.4776320000000  0.5187840000000 1.0
C      1  0.4782390000000  0.4627620000000  0.4221580000000 1.0
C      1  0.4972530000000  0.5483500000000  0.5191020000000 1.0
C      1  0.5100470000000  0.4867330000000  0.4532110000000 1.0
C      1  0.4746340000000  0.4718550000000  0.5446650000000 1.0
C      1  0.5739880000000  0.5646950000000  0.5144410000000 1.0
C      1  0.4971240000000  0.5307700000000  0.4031690000000 1.0
C      1  0.5506850000000  0.4573440000000  0.4871130000000 1.0
C      1  0.5344640000000  0.4988530000000  0.4042350000000 1.0
C      1  0.4620090000000  0.4445630000000  0.5531620000000 1.0
C      1  0.5166710000000  0.4772100000000  0.4018870000000 1.0
C      1  0.5467960000000  0.4551730000000  0.4379990000000 1.0
C      1  0.5030370000000  0.4791150000000  0.6016620000000 1.0
C      1  0.5490580000000  0.5926040000000  0.4806050000000 1.0
C      1  0.4537290000000  0.5699000000000  0.4408330000000 1.0
C      1  0.5610470000000  0.4432520000000  0.5319780000000 1.0
C      1  0.5849490000000  0.4593780000000  0.5294650000000 1.0
C      1  0.5004360000000  0.5572480000000  0.5823960000000 1.0
C      1  0.4236660000000  0.4324220000000  0.5146400000000 1.0
C      1  0.5021970000000  0.4610450000000  0.4397740000000 1.0
C      1  0.4198440000000  0.4692250000000  0.5543430000000 1.0
C      1  0.5539150000000  0.5721350000000  0.4610030000000 1.0
C      1  0.5606410000000  0.4803870000000  0.4408490000000 1.0
C      1  0.5863200000000  0.4326900000000  0.4703690000000 1.0
C      1  0.5070690000000  0.5036940000000  0.5293740000000 1.0
C      1  0.4602470000000  0.5502260000000  0.4206930000000 1.0
C      1  0.5226500000000  0.4241470000000  0.4205880000000 1.0
C      1  0.4829990000000  0.4996750000000  0.4635590000000 1.0
C      1  0.5590100000000  0.4992990000000  0.4189140000000 1.0
C      1  0.5948100000000  0.5055200000000  0.5413060000000 1.0
C      1  0.4825510000000  0.5857190000000  0.4817900000000 1.0
C      1  0.5818910000000  0.4614070000000  0.4802950000000 1.0
C      1  0.5831440000000  0.4828030000000  0.4595070000000 1.0
C      1  0.5313680000000  0.4123920000000  0.4945800000000 1.0
C      1  0.5568260000000  0.5103450000000  0.5043670000000 1.0
C      1  0.4180620000000  0.5003580000000  0.5051030000000 1.0
C      1  0.4397310000000  0.5715260000000  0.5131860000000 1.0
C      1  0.4136910000000  0.5257260000000  0.5445080000000 1.0
C      1  0.4877410000000  0.5543220000000  0.4159350000000 1.0
C      1  0.5636180000000  0.5261900000000  0.4282070000000 1.0
C      1  0.5846330000000  0.5491190000000  0.4928310000000 1.0
C      1  0.4875870000000  0.4831040000000  0.4041500000000 1.0
C      1  0.5421590000000  0.4371010000000  0.5082610000000 1.0
C      1  0.4608580000000  0.5170770000000  0.5169450000000 1.0
C      1  0.4773540000000  0.5099860000000  0.4035630000000 1.0
C      1  0.5204150000000  0.4614520000000  0.5377910000000 1.0
C      1  0.5177460000000  0.5020630000000  0.5011340000000 1.0
C      1  0.5240810000000  0.5255850000000  0.4067860000000 1.0
C      1  0.4535110000000  0.5214030000000  0.4163040000000 1.0
C      1  0.5398590000000  0.4141310000000  0.4664350000000 1.0
C      1  0.4868780000000  0.5025040000000  0.5994160000000 1.0
C      1  0.4207680000000  0.4345920000000  0.4859120000000 1.0
C      1  0.5699650000000  0.4140100000000  0.4645150000000 1.0
C      1  0.4392370000000  0.4769180000000  0.4454890000000 1.0
C      1  0.4609370000000  0.4283410000000  0.4506050000000 1.0
C      1  0.3981470000000  0.4980430000000  0.4548210000000 1.0
C      1  0.5555560000000  0.5862810000000  0.5080780000000 1.0
C      1  0.4899920000000  0.4182010000000  0.4588410000000 1.0
C      1  0.5203130000000  0.5463560000000  0.4767960000000 1.0
C      1  0.5066730000000  0.4360770000000  0.5798570000000 1.0
C      1  0.4309380000000  0.5460020000000  0.5552700000000 1.0
C      1  0.4630200000000  0.5872750000000  0.5050400000000 1.0
C      1  0.5240530000000  0.4536810000000  0.4198060000000 1.0
C      1  0.5010800000000  0.5692470000000  0.4369640000000 1.0
C      1  0.4182590000000  0.5471440000000  0.4688850000000 1.0
C      1  0.4357810000000  0.5065250000000  0.4805270000000 1.0
C      1  0.4071640000000  0.4592460000000  0.4804770000000 1.0
C      1  0.4183100000000  0.4991560000000  0.5607280000000 1.0
C      1  0.5057800000000  0.4045520000000  0.5043680000000 1.0
C      1  0.4419570000000  0.5686220000000  0.5414320000000 1.0
C      1  0.5267800000000  0.5569060000000  0.5710420000000 1.0
C      1  0.4795530000000  0.5935800000000  0.5274040000000 1.0
C      1  0.4364250000000  0.5064170000000  0.4336690000000 1.0
C      1  0.4432470000000  0.4966400000000  0.5231940000000 1.0
C      1  0.5726720000000  0.5263620000000  0.5510190000000 1.0
C      1  0.5799130000000  0.5311380000000  0.4504300000000 1.0
C      1  0.5017640000000  0.4872600000000  0.4826760000000 1.0
C      1  0.4201540000000  0.5178900000000  0.4567940000000 1.0
C      1  0.5498700000000  0.4940750000000  0.5819920000000 1.0
C      1  0.4594520000000  0.4916700000000  0.5921640000000 1.0
C      1  0.5595910000000  0.4821120000000  0.5579850000000 1.0
C      1  0.5993580000000  0.4999670000000  0.5131810000000 1.0
C      1  0.5874810000000  0.5190670000000  0.4940430000000 1.0
C      1  0.4700260000000  0.4943490000000  0.5644520000000 1.0
C      1  0.4259010000000  0.5473450000000  0.4990250000000 1.0
C      1  0.5058980000000  0.4199930000000  0.5579390000000 1.0
C      1  0.5370730000000  0.4445200000000  0.4638000000000 1.0
C      1  0.5078690000000  0.5988670000000  0.5197760000000 1.0
C      1  0.4548250000000  0.4530230000000  0.4344170000000 1.0
C      1  0.5307690000000  0.4756820000000  0.5941220000000 1.0
C      1  0.5406140000000  0.5662320000000  0.5462710000000 1.0
C      1  0.4050180000000  0.4735200000000  0.5055070000000 1.0
C      1  0.5325520000000  0.5296730000000  0.4978600000000 1.0
C      1  0.4682940000000  0.4671270000000  0.4934130000000 1.0
C      1  0.4489920000000  0.5321950000000  0.5718390000000 1.0
C      1  0.4122120000000  0.4563240000000  0.5280720000000 1.0
C      1  0.5173810000000  0.4105720000000  0.4430250000000 1.0
C      1  0.5129420000000  0.4460250000000  0.5152540000000 1.0
C      1  0.5015520000000  0.4797730000000  0.5432330000000 1.0
C      1  0.5872250000000  0.4797830000000  0.5503760000000 1.0
C      1  0.4374440000000  0.5075860000000  0.5806640000000 1.0
C      1  0.5394130000000  0.5406680000000  0.4255780000000 1.0
C      1  0.5286020000000  0.5272630000000  0.5716370000000 1.0
C      1  0.5374430000000  0.4928500000000  0.4605990000000 1.0
C      1  0.4428480000000  0.4207050000000  0.4717270000000 1.0
C      1  0.4402030000000  0.4541010000000  0.5691590000000 1.0
C      1  0.5350220000000  0.5894480000000  0.5278960000000 1.0
C      1  0.5542540000000  0.5075570000000  0.5350580000000 1.0
C      1  0.4771330000000  0.5228060000000  0.5610030000000 1.0
C      1  0.4966560000000  0.4589340000000  0.4903290000000 1.0
C      1  0.5055010000000  0.4447210000000  0.4647310000000 1.0
C      1  0.4790790000000  0.5807060000000  0.4520890000000 1.0
C      1  0.4306780000000  0.5660680000000  0.4547560000000 1.0
C      1  0.4667920000000  0.5814850000000  0.5511470000000 1.0
C      1  0.4827750000000  0.5260400000000  0.4563490000000 1.0
C      1  0.4588050000000  0.4626280000000  0.5913370000000 1.0
C      1  0.5889200000000  0.5094810000000  0.4663460000000 1.0
C      1  0.4948870000000  0.5551900000000  0.4899300000000 1.0
C      1  0.4100750000000  0.4739630000000  0.4560890000000 1.0
C      1  0.4512900000000  0.5293180000000  0.4928040000000 1.0
C      1  0.4741840000000  0.5385370000000  0.4781450000000 1.0
C      1  0.5756560000000  0.5547270000000  0.4661780000000 1.0
C      1  0.5285580000000  0.5580380000000  0.4479490000000 1.0
C      1  0.4107490000000  0.5269910000000  0.5164090000000 1.0
C      1  0.5054350000000  0.6030170000000  0.4913140000000 1.0
C      1  0.4480150000000  0.4159710000000  0.5178250000000 1.0
C      1  0.5940340000000  0.4720460000000  0.5060990000000 1.0
C      1  0.5564430000000  0.5206830000000  0.5775700000000 1.0
C      1  0.5258000000000  0.5430320000000  0.5242380000000 1.0
C      1  0.4795290000000  0.5726000000000  0.5736070000000 1.0
C      1  0.5285190000000  0.5189720000000  0.5420210000000 1.0
C      1  0.5275440000000  0.6097490000000  0.4771510000000 1.0
C      1  0.4680530000000  0.4224040000000  0.5361660000000 1.0
C      1  0.4875180000000  0.4554110000000  0.5938740000000 1.0
C      1  0.4847560000000  0.4040470000000  0.4849010000000 1.0
C      1  0.5322710000000  0.4507030000000  0.5805830000000 1.0
C      1  0.5672770000000  0.5539280000000  0.5404720000000 1.0
END
