TITL C-160261-9442-3 -0.0404239843676261 125000 -591.655948837567 0 0 85 (C1) n - 1
REM
REM in /rds/project/t2_vol4/rds-t2-cs072/BORA/CARBON/from-Arr/AIRSS/Generating-Clusters/GAP-ML-2020/Only-C1/SD-CG/HFTN-CG
REM
REM
REM
REM
REM
REM ./C.cell (11c1c37f851c82e70ff6c80c92926a4b)
REM AIRSS Version 0.9.1 bugfix July 2018 build 013d7b7c2542+ Fri, 06 Jul 2018 19:26:36 +0100
REM compiler GCC version 9.3.0
REM options -cpp -mtune=generic -march=x86-64 -g -O0
REM seed 748272243 1402681985 731865974 1321571655 -1385751331 800936481 1217420642 235712783 -343893316 -2038342180 1692663502 -1133267790 -1266230536 -963004928 -116992886 1640253535 -454793371 392116572 -1136451647 -1725373252 1129532894 1784366885 56809347 -1338120666 1356733989 -2071638187 1488047206 588244852 -919062171 2136872048 -1823334977 1286258790 1041939851
REM
CELL 1.54180   50.00000   50.00000   50.00000   90.00000   90.00000   90.00000
LATT -1
SFAC C  
C      1  0.5482750000000  0.4807220000000  0.4293060000000 1.0
C      1  0.5038340000000  0.4881910000000  0.4706700000000 1.0
C      1  0.5128400000000  0.5424360000000  0.4685530000000 1.0
C      1  0.5090760000000  0.5746420000000  0.5311780000000 1.0
C      1  0.5702690000000  0.4913520000000  0.4707040000000 1.0
C      1  0.4166110000000  0.4776240000000  0.5143120000000 1.0
C      1  0.4844220000000  0.5673810000000  0.5421830000000 1.0
C      1  0.5470670000000  0.5580750000000  0.4953620000000 1.0
C      1  0.5616260000000  0.4776220000000  0.5357560000000 1.0
C      1  0.5227290000000  0.5179130000000  0.5776040000000 1.0
C      1  0.4443060000000  0.4409530000000  0.4598430000000 1.0
C      1  0.5463560000000  0.5094520000000  0.4677300000000 1.0
C      1  0.4649100000000  0.4967350000000  0.4934430000000 1.0
C      1  0.5349220000000  0.4439280000000  0.4779230000000 1.0
C      1  0.5266890000000  0.4942980000000  0.4862720000000 1.0
C      1  0.5343970000000  0.5054150000000  0.4377110000000 1.0
C      1  0.5031890000000  0.4300570000000  0.5214540000000 1.0
C      1  0.4170320000000  0.4764040000000  0.4862990000000 1.0
C      1  0.4297580000000  0.4544360000000  0.5247580000000 1.0
C      1  0.5435690000000  0.5401520000000  0.4708350000000 1.0
C      1  0.4773790000000  0.4559320000000  0.4392690000000 1.0
C      1  0.4383810000000  0.4970910000000  0.4488710000000 1.0
C      1  0.4910760000000  0.4770480000000  0.5163190000000 1.0
C      1  0.4630940000000  0.5300830000000  0.5548340000000 1.0
C      1  0.5721300000000  0.4999670000000  0.5212450000000 1.0
C      1  0.5335800000000  0.4655630000000  0.4989310000000 1.0
C      1  0.5154280000000  0.5138870000000  0.5062350000000 1.0
C      1  0.4596670000000  0.5035360000000  0.5642540000000 1.0
C      1  0.5034260000000  0.4660780000000  0.4307070000000 1.0
C      1  0.4284280000000  0.5247110000000  0.4872020000000 1.0
C      1  0.5160190000000  0.5417840000000  0.5626550000000 1.0
C      1  0.5424160000000  0.4777490000000  0.5568460000000 1.0
C      1  0.4706300000000  0.4483720000000  0.5509730000000 1.0
C      1  0.5421960000000  0.5305120000000  0.4254360000000 1.0
C      1  0.5298470000000  0.5574630000000  0.5416590000000 1.0
C      1  0.4295460000000  0.4509170000000  0.4796490000000 1.0
C      1  0.5767660000000  0.5284010000000  0.5579720000000 1.0
C      1  0.4757250000000  0.5044080000000  0.4330730000000 1.0
C      1  0.5713990000000  0.5125970000000  0.5773040000000 1.0
C      1  0.5577750000000  0.4305710000000  0.5070000000000 1.0
C      1  0.5368090000000  0.4193440000000  0.4926490000000 1.0
C      1  0.4293000000000  0.5250070000000  0.5167280000000 1.0
C      1  0.4384070000000  0.4379310000000  0.5037670000000 1.0
C      1  0.5141050000000  0.4572070000000  0.5220920000000 1.0
C      1  0.5616090000000  0.4604330000000  0.5105470000000 1.0
C      1  0.5515430000000  0.5500460000000  0.5224740000000 1.0
C      1  0.4522310000000  0.5372930000000  0.4726480000000 1.0
C      1  0.5306040000000  0.4576260000000  0.4306100000000 1.0
C      1  0.5030960000000  0.4948320000000  0.4409400000000 1.0
C      1  0.5040480000000  0.5818640000000  0.5043880000000 1.0
C      1  0.5293970000000  0.5809870000000  0.4900350000000 1.0
C      1  0.4592890000000  0.4795590000000  0.4359880000000 1.0
C      1  0.5693030000000  0.5282330000000  0.5301350000000 1.0
C      1  0.5074890000000  0.4176780000000  0.4964540000000 1.0
C      1  0.4824100000000  0.4886410000000  0.5751840000000 1.0
C      1  0.4551410000000  0.5203490000000  0.4466960000000 1.0
C      1  0.4235900000000  0.5002280000000  0.5297010000000 1.0
C      1  0.4992670000000  0.5318360000000  0.4908940000000 1.0
C      1  0.5307130000000  0.5756220000000  0.4413200000000 1.0
C      1  0.4768630000000  0.4289220000000  0.5309980000000 1.0
C      1  0.4628100000000  0.4245420000000  0.5064410000000 1.0
C      1  0.4635570000000  0.5654790000000  0.4732320000000 1.0
C      1  0.4400440000000  0.4890560000000  0.5510410000000 1.0
C      1  0.4916840000000  0.4636440000000  0.5631390000000 1.0
C      1  0.4484460000000  0.5409840000000  0.5318890000000 1.0
C      1  0.4709660000000  0.4339140000000  0.4580680000000 1.0
C      1  0.4837070000000  0.4783510000000  0.4889740000000 1.0
C      1  0.4638060000000  0.5643310000000  0.5233930000000 1.0
C      1  0.5659940000000  0.4714960000000  0.4501990000000 1.0
C      1  0.4813460000000  0.4218800000000  0.4834880000000 1.0
C      1  0.5455080000000  0.5007230000000  0.5736100000000 1.0
C      1  0.4790020000000  0.5741520000000  0.4523520000000 1.0
C      1  0.5316290000000  0.5901970000000  0.4638240000000 1.0
C      1  0.5011530000000  0.5039740000000  0.5865550000000 1.0
C      1  0.5017340000000  0.5015230000000  0.5260530000000 1.0
C      1  0.5471620000000  0.5517500000000  0.4412260000000 1.0
C      1  0.5767280000000  0.4843790000000  0.4972630000000 1.0
C      1  0.5472570000000  0.4480790000000  0.4530100000000 1.0
C      1  0.4747030000000  0.5744420000000  0.4988280000000 1.0
C      1  0.5048250000000  0.5652520000000  0.4512090000000 1.0
C      1  0.4225620000000  0.5004660000000  0.4727490000000 1.0
C      1  0.4449270000000  0.4610390000000  0.5472280000000 1.0
C      1  0.4870490000000  0.5459320000000  0.5595900000000 1.0
C      1  0.5183120000000  0.4635130000000  0.5512940000000 1.0
C      1  0.4730920000000  0.5228030000000  0.4887680000000 1.0
END
