TITL C-162435-2508-9 -0.0358105484163197 125000 -770.354000393311 0 0 110 (C1) n - 1
REM
REM in /rds/project/t2_vol4/rds-t2-cs072/BORA/CARBON/from-Arr/AIRSS/Generating-Clusters/GAP-ML-2020/Only-C1/SD-CG/HFTN-CG
REM
REM
REM
REM
REM
REM ./C.cell (11c1c37f851c82e70ff6c80c92926a4b)
REM AIRSS Version 0.9.1 bugfix July 2018 build 013d7b7c2542+ Fri, 06 Jul 2018 19:26:36 +0100
REM compiler GCC version 9.3.0
REM options -cpp -mtune=generic -march=x86-64 -g -O0
REM seed -1711657385 -64524944 633284090 574780977 787658386 1289624014 -2072504085 1524495448 -1973821630 -1458942765 -1411868347 1528361797 -1468017200 -404753004 404487278 1096533812 774490215 1481020186 1420692907 1373518009 1182817083 -876926856 -205190018 1645360753 -338535077 526305630 -449972536 1363761141 27030734 -877695567 -944632792 -1593856972 811219198
REM
CELL 1.54180   50.00000   50.00000   50.00000   90.00000   90.00000   90.00000
LATT -1
SFAC C  
C      1  0.5495800000000  0.5863110000000  0.4959960000000 1.0
C      1  0.4547490000000  0.4298070000000  0.4722500000000 1.0
C      1  0.4155560000000  0.5125950000000  0.5066940000000 1.0
C      1  0.4743310000000  0.5925130000000  0.5083340000000 1.0
C      1  0.5144310000000  0.4146840000000  0.4767570000000 1.0
C      1  0.4435770000000  0.4939310000000  0.4320840000000 1.0
C      1  0.5325800000000  0.4813810000000  0.5587680000000 1.0
C      1  0.4863500000000  0.5805530000000  0.5306720000000 1.0
C      1  0.4857570000000  0.5816990000000  0.4656970000000 1.0
C      1  0.4840340000000  0.5092900000000  0.5823410000000 1.0
C      1  0.4981240000000  0.5350150000000  0.4916140000000 1.0
C      1  0.4865750000000  0.4515130000000  0.5053100000000 1.0
C      1  0.5802050000000  0.5033840000000  0.5192310000000 1.0
C      1  0.5147550000000  0.4725640000000  0.5339010000000 1.0
C      1  0.4246020000000  0.5353020000000  0.4921330000000 1.0
C      1  0.4530170000000  0.4376540000000  0.5483660000000 1.0
C      1  0.4683670000000  0.5419450000000  0.4866770000000 1.0
C      1  0.5288220000000  0.5194000000000  0.5258320000000 1.0
C      1  0.4326620000000  0.5586130000000  0.5101600000000 1.0
C      1  0.5551530000000  0.5301550000000  0.5565760000000 1.0
C      1  0.4626520000000  0.5696030000000  0.4777400000000 1.0
C      1  0.4643540000000  0.4417080000000  0.4328410000000 1.0
C      1  0.4408560000000  0.4439210000000  0.5228190000000 1.0
C      1  0.4719350000000  0.5576180000000  0.5402310000000 1.0
C      1  0.5808660000000  0.5095770000000  0.4895940000000 1.0
C      1  0.5233790000000  0.4321710000000  0.4392330000000 1.0
C      1  0.4813050000000  0.5542650000000  0.4272520000000 1.0
C      1  0.5828140000000  0.5385710000000  0.4901010000000 1.0
C      1  0.5630530000000  0.4440710000000  0.4693620000000 1.0
C      1  0.4594630000000  0.4324480000000  0.5019490000000 1.0
C      1  0.4447340000000  0.4495240000000  0.4527280000000 1.0
C      1  0.5479120000000  0.5080330000000  0.4504580000000 1.0
C      1  0.4964800000000  0.5619190000000  0.4477740000000 1.0
C      1  0.4455770000000  0.4848820000000  0.5616140000000 1.0
C      1  0.5339450000000  0.4809380000000  0.4930650000000 1.0
C      1  0.4927100000000  0.4838940000000  0.5895010000000 1.0
C      1  0.5672430000000  0.4678560000000  0.4539720000000 1.0
C      1  0.5070970000000  0.4943490000000  0.4018710000000 1.0
C      1  0.4250160000000  0.5586010000000  0.5384900000000 1.0
C      1  0.5508820000000  0.4411510000000  0.5398250000000 1.0
C      1  0.5330680000000  0.5040280000000  0.4015750000000 1.0
C      1  0.4764520000000  0.4119430000000  0.5158810000000 1.0
C      1  0.4479640000000  0.5214100000000  0.4399690000000 1.0
C      1  0.5577930000000  0.4676050000000  0.5491610000000 1.0
C      1  0.5010030000000  0.4457210000000  0.5777120000000 1.0
C      1  0.5759280000000  0.4405920000000  0.4937660000000 1.0
C      1  0.5734580000000  0.5276640000000  0.5338530000000 1.0
C      1  0.5784510000000  0.5565280000000  0.4692420000000 1.0
C      1  0.4406530000000  0.5334940000000  0.5699580000000 1.0
C      1  0.5547130000000  0.5571990000000  0.4538100000000 1.0
C      1  0.4747360000000  0.5137150000000  0.5240980000000 1.0
C      1  0.5185130000000  0.5512470000000  0.5742970000000 1.0
C      1  0.5103020000000  0.4312810000000  0.5114070000000 1.0
C      1  0.5167200000000  0.4702180000000  0.5809830000000 1.0
C      1  0.4225790000000  0.4852870000000  0.5439310000000 1.0
C      1  0.5058930000000  0.5259910000000  0.5675280000000 1.0
C      1  0.5317790000000  0.5117740000000  0.5563500000000 1.0
C      1  0.4383620000000  0.4769090000000  0.4539410000000 1.0
C      1  0.4455100000000  0.5250030000000  0.4717830000000 1.0
C      1  0.5224290000000  0.4376280000000  0.5366580000000 1.0
C      1  0.5018980000000  0.4288480000000  0.5558130000000 1.0
C      1  0.5610280000000  0.5782870000000  0.4718310000000 1.0
C      1  0.5695180000000  0.4332410000000  0.5201280000000 1.0
C      1  0.5155630000000  0.5749070000000  0.5252960000000 1.0
C      1  0.4921830000000  0.5069600000000  0.5001670000000 1.0
C      1  0.5015270000000  0.4069440000000  0.5004190000000 1.0
C      1  0.5425930000000  0.5553110000000  0.5619660000000 1.0
C      1  0.5002180000000  0.5065810000000  0.4588750000000 1.0
C      1  0.5112610000000  0.5424250000000  0.5188800000000 1.0
C      1  0.5374820000000  0.5350980000000  0.4550410000000 1.0
C      1  0.5341740000000  0.4368020000000  0.4666680000000 1.0
C      1  0.4693600000000  0.4888780000000  0.5365340000000 1.0
C      1  0.5524400000000  0.4686970000000  0.4288190000000 1.0
C      1  0.4271050000000  0.4879980000000  0.4992950000000 1.0
C      1  0.4769510000000  0.4592190000000  0.5851110000000 1.0
C      1  0.4130620000000  0.5108120000000  0.5351090000000 1.0
C      1  0.5016690000000  0.4163170000000  0.4506750000000 1.0
C      1  0.4924850000000  0.4653710000000  0.4804310000000 1.0
C      1  0.4779610000000  0.4608510000000  0.4169070000000 1.0
C      1  0.4477260000000  0.5590960000000  0.5567510000000 1.0
C      1  0.5235860000000  0.4914620000000  0.4582310000000 1.0
C      1  0.4470990000000  0.4935940000000  0.4772940000000 1.0
C      1  0.4765700000000  0.4212390000000  0.5432600000000 1.0
C      1  0.5414830000000  0.5733060000000  0.5400890000000 1.0
C      1  0.5055440000000  0.4664440000000  0.4104800000000 1.0
C      1  0.5783340000000  0.4777170000000  0.5310070000000 1.0
C      1  0.5287910000000  0.4524330000000  0.4208010000000 1.0
C      1  0.4799720000000  0.5067780000000  0.4069590000000 1.0
C      1  0.4494210000000  0.5807990000000  0.4992990000000 1.0
C      1  0.5709110000000  0.4954980000000  0.4652130000000 1.0
C      1  0.5216920000000  0.5910350000000  0.5014730000000 1.0
C      1  0.4186500000000  0.5333830000000  0.5502560000000 1.0
C      1  0.4264960000000  0.4684150000000  0.5207860000000 1.0
C      1  0.4736900000000  0.4212610000000  0.4511730000000 1.0
C      1  0.4551460000000  0.5103370000000  0.5762220000000 1.0
C      1  0.4687800000000  0.5309470000000  0.4208960000000 1.0
C      1  0.4540600000000  0.4579050000000  0.5692720000000 1.0
C      1  0.4632510000000  0.4853070000000  0.4137000000000 1.0
C      1  0.4809200000000  0.4915880000000  0.4770510000000 1.0
C      1  0.5205080000000  0.4663310000000  0.4735800000000 1.0
C      1  0.5610290000000  0.5729270000000  0.5195010000000 1.0
C      1  0.4866600000000  0.4683150000000  0.5305370000000 1.0
C      1  0.4965990000000  0.5957920000000  0.4879500000000 1.0
C      1  0.4587380000000  0.5397020000000  0.5151150000000 1.0
C      1  0.5189880000000  0.4949130000000  0.5121480000000 1.0
C      1  0.5490580000000  0.4964870000000  0.4221130000000 1.0
C      1  0.5096590000000  0.5361030000000  0.4632130000000 1.0
C      1  0.5877540000000  0.4546900000000  0.5151920000000 1.0
C      1  0.4914080000000  0.5344560000000  0.5406070000000 1.0
C      1  0.5771920000000  0.5495490000000  0.5161490000000 1.0
END
