TITL C-166699-7415-3 -27.6257055940919 125000 -495.38958183467 0 0 72 (C1) n - 1
REM
REM in /rds/project/t2_vol4/rds-t2-cs072/BORA/CARBON/from-Arr/AIRSS/Generating-Clusters/GAP-ML-2020/Only-C1/SD-CG/HFTN-CG
REM
REM
REM
REM
REM
REM ./C.cell (11c1c37f851c82e70ff6c80c92926a4b)
REM AIRSS Version 0.9.1 bugfix July 2018 build 013d7b7c2542+ Fri, 06 Jul 2018 19:26:36 +0100
REM compiler GCC version 9.3.0
REM options -cpp -mtune=generic -march=x86-64 -g -O0
REM seed -533105970 -259816289 2121668593 -1549424642 -1772269529 -715659403 415449874 -238163851 -1009930467 2087685227 107803618 591592651 1035162314 428853400 -1442283154 -734360256 1231346731 1719386978 581882551 -276157864 -1271944795 -1277959872 5894699 2122664816 -1068151784 770225105 1531734228 -330897267 347489777 1168873553 664294777 -816477741 -118287035
REM
CELL 1.54180   50.00000   50.00000   50.00000   90.00000   90.00000   90.00000
LATT -1
SFAC C  
C      1  0.4663910000000  0.5011020000000  0.5661170000000 1.0
C      1  0.4756870000000  0.4326890000000  0.5037710000000 1.0
C      1  0.5265640000000  0.5682730000000  0.4894170000000 1.0
C      1  0.4381710000000  0.5231050000000  0.4439450000000 1.0
C      1  0.5106020000000  0.4604520000000  0.5613830000000 1.0
C      1  0.4579200000000  0.5578910000000  0.5111620000000 1.0
C      1  0.4722480000000  0.5189060000000  0.5432550000000 1.0
C      1  0.4495420000000  0.4948350000000  0.4955910000000 1.0
C      1  0.5196250000000  0.5462140000000  0.5334770000000 1.0
C      1  0.5289230000000  0.4841620000000  0.4299690000000 1.0
C      1  0.5554040000000  0.4897550000000  0.4314130000000 1.0
C      1  0.5208520000000  0.4352440000000  0.5117990000000 1.0
C      1  0.4890140000000  0.4454170000000  0.5500330000000 1.0
C      1  0.5113950000000  0.5378460000000  0.4221580000000 1.0
C      1  0.4988490000000  0.4789010000000  0.4891180000000 1.0
C      1  0.5241480000000  0.5402910000000  0.4487930000000 1.0
C      1  0.4295800000000  0.4963880000000  0.4467000000000 1.0
C      1  0.5749250000000  0.5030150000000  0.5206160000000 1.0
C      1  0.4309560000000  0.4755590000000  0.4610900000000 1.0
C      1  0.4884370000000  0.4988590000000  0.5828930000000 1.0
C      1  0.5622330000000  0.5436110000000  0.5082260000000 1.0
C      1  0.5100100000000  0.5180760000000  0.5745260000000 1.0
C      1  0.4924740000000  0.4801530000000  0.5171600000000 1.0
C      1  0.4394320000000  0.5414260000000  0.4925450000000 1.0
C      1  0.4931030000000  0.4692840000000  0.4433560000000 1.0
C      1  0.4302430000000  0.5274360000000  0.5187750000000 1.0
C      1  0.4523360000000  0.4484660000000  0.5041230000000 1.0
C      1  0.4520630000000  0.4685050000000  0.4812390000000 1.0
C      1  0.5587890000000  0.5130680000000  0.5420150000000 1.0
C      1  0.5303280000000  0.4990670000000  0.5798730000000 1.0
C      1  0.4892570000000  0.4360960000000  0.4792720000000 1.0
C      1  0.5550770000000  0.4646650000000  0.4742890000000 1.0
C      1  0.5021050000000  0.4971010000000  0.4347400000000 1.0
C      1  0.5320000000000  0.4710150000000  0.5437110000000 1.0
C      1  0.5145510000000  0.4952670000000  0.5302250000000 1.0
C      1  0.4495850000000  0.4792040000000  0.5605070000000 1.0
C      1  0.5273050000000  0.5082300000000  0.5063440000000 1.0
C      1  0.4655240000000  0.5292060000000  0.4348610000000 1.0
C      1  0.5087280000000  0.4786030000000  0.5829190000000 1.0
C      1  0.4807440000000  0.4631930000000  0.4697870000000 1.0
C      1  0.5673130000000  0.5151040000000  0.4708170000000 1.0
C      1  0.5099730000000  0.5635790000000  0.5125480000000 1.0
C      1  0.4299670000000  0.5412070000000  0.4664160000000 1.0
C      1  0.5047470000000  0.5177060000000  0.4584730000000 1.0
C      1  0.5520100000000  0.5385090000000  0.4625480000000 1.0
C      1  0.5403220000000  0.4528130000000  0.5213920000000 1.0
C      1  0.4891510000000  0.5207950000000  0.4186660000000 1.0
C      1  0.4833800000000  0.5192230000000  0.5003250000000 1.0
C      1  0.4436150000000  0.4547580000000  0.5295420000000 1.0
C      1  0.5474080000000  0.4927320000000  0.5587360000000 1.0
C      1  0.4776750000000  0.5330560000000  0.4606880000000 1.0
C      1  0.5603540000000  0.4623110000000  0.5026060000000 1.0
C      1  0.5632420000000  0.4887540000000  0.4588690000000 1.0
C      1  0.5750420000000  0.5205280000000  0.4981730000000 1.0
C      1  0.5328640000000  0.4493660000000  0.4651100000000 1.0
C      1  0.4317300000000  0.4802140000000  0.5371410000000 1.0
C      1  0.4949880000000  0.4322600000000  0.5250290000000 1.0
C      1  0.4859580000000  0.5594230000000  0.4720520000000 1.0
C      1  0.5196070000000  0.4594270000000  0.4420510000000 1.0
C      1  0.5126250000000  0.5633530000000  0.4652090000000 1.0
C      1  0.5170480000000  0.4339480000000  0.4831540000000 1.0
C      1  0.4718060000000  0.4992430000000  0.5178540000000 1.0
C      1  0.5033870000000  0.5239020000000  0.5461870000000 1.0
C      1  0.4600290000000  0.5210500000000  0.4827680000000 1.0
C      1  0.4287900000000  0.4992920000000  0.5165210000000 1.0
C      1  0.5478910000000  0.5383930000000  0.5326240000000 1.0
C      1  0.4828810000000  0.5646630000000  0.5007780000000 1.0
C      1  0.5068430000000  0.5071620000000  0.4862590000000 1.0
C      1  0.4618240000000  0.4540140000000  0.5523250000000 1.0
C      1  0.5512680000000  0.5559150000000  0.4857430000000 1.0
C      1  0.5793670000000  0.4772640000000  0.5152700000000 1.0
C      1  0.4517770000000  0.5394580000000  0.5329330000000 1.0
END
