TITL C-166695-7298-6 -41.939307140221 125000 -412.834014559064 0 0 62 (C1) n - 1
REM
REM in /rds/project/t2_vol4/rds-t2-cs072/BORA/CARBON/from-Arr/AIRSS/Generating-Clusters/GAP-ML-2020/Only-C1/SD-CG/HFTN-CG
REM
REM
REM
REM
REM
REM ./C.cell (11c1c37f851c82e70ff6c80c92926a4b)
REM AIRSS Version 0.9.1 bugfix July 2018 build 013d7b7c2542+ Fri, 06 Jul 2018 19:26:36 +0100
REM compiler GCC version 9.3.0
REM options -cpp -mtune=generic -march=x86-64 -g -O0
REM seed 2072991619 1570668057 -1885544194 -1921889876 1763916553 -747082469 70090065 -215958641 -205462584 501537258 1276904196 382578794 1834909068 -109536458 2090582617 1838478154 1919822175 -996417638 -462153274 -1299597983 407135259 -1551105498 -748856865 -857800357 1412857512 -726533979 -1058782959 -1389369334 1370777089 386066303 1351266012 365855156 1217202185
REM
CELL 1.54180   50.00000   50.00000   50.00000   90.00000   90.00000   90.00000
LATT -1
SFAC C  
C      1  0.4546890000000  0.4661270000000  0.4829370000000 1.0
C      1  0.5189770000000  0.4978830000000  0.5568420000000 1.0
C      1  0.5001830000000  0.4918980000000  0.5338190000000 1.0
C      1  0.4949740000000  0.5018130000000  0.4347250000000 1.0
C      1  0.5612410000000  0.4804880000000  0.4982170000000 1.0
C      1  0.5170630000000  0.5732110000000  0.5204680000000 1.0
C      1  0.5395440000000  0.4974990000000  0.5366120000000 1.0
C      1  0.4950200000000  0.5723140000000  0.5004730000000 1.0
C      1  0.5032000000000  0.4402220000000  0.5399760000000 1.0
C      1  0.5017910000000  0.5223890000000  0.5667440000000 1.0
C      1  0.5463120000000  0.4728780000000  0.5232600000000 1.0
C      1  0.5097190000000  0.5668750000000  0.4748700000000 1.0
C      1  0.4999340000000  0.4793530000000  0.5702200000000 1.0
C      1  0.4396600000000  0.5200940000000  0.5134890000000 1.0
C      1  0.5432940000000  0.5670920000000  0.5108700000000 1.0
C      1  0.4331600000000  0.5143220000000  0.4873490000000 1.0
C      1  0.4729650000000  0.5405850000000  0.4745160000000 1.0
C      1  0.5444530000000  0.4794320000000  0.4739870000000 1.0
C      1  0.4486940000000  0.5270860000000  0.4658130000000 1.0
C      1  0.4612660000000  0.5524990000000  0.5446920000000 1.0
C      1  0.5578940000000  0.5451600000000  0.5235840000000 1.0
C      1  0.4539100000000  0.4415910000000  0.4999530000000 1.0
C      1  0.4451780000000  0.4744900000000  0.5417600000000 1.0
C      1  0.4950530000000  0.4469090000000  0.4560150000000 1.0
C      1  0.5399960000000  0.5222590000000  0.5210330000000 1.0
C      1  0.4818850000000  0.5025420000000  0.5722000000000 1.0
C      1  0.5518250000000  0.5366990000000  0.4684840000000 1.0
C      1  0.4998240000000  0.4360790000000  0.4825800000000 1.0
C      1  0.4602190000000  0.4552490000000  0.5520870000000 1.0
C      1  0.5780140000000  0.5034640000000  0.4983610000000 1.0
C      1  0.5019560000000  0.5482350000000  0.5202520000000 1.0
C      1  0.4712810000000  0.4624810000000  0.4564430000000 1.0
C      1  0.5761610000000  0.5295470000000  0.5098860000000 1.0
C      1  0.4765600000000  0.5067780000000  0.5417540000000 1.0
C      1  0.5483470000000  0.4950460000000  0.4482670000000 1.0
C      1  0.5152700000000  0.4586710000000  0.4395930000000 1.0
C      1  0.4569060000000  0.4390230000000  0.5288500000000 1.0
C      1  0.4483010000000  0.5013450000000  0.4521090000000 1.0
C      1  0.5282420000000  0.4502550000000  0.5244590000000 1.0
C      1  0.4893830000000  0.4545390000000  0.5618290000000 1.0
C      1  0.4512850000000  0.5470840000000  0.5188630000000 1.0
C      1  0.4703490000000  0.5565730000000  0.4986140000000 1.0
C      1  0.5378520000000  0.5216190000000  0.4491530000000 1.0
C      1  0.5184240000000  0.5314850000000  0.5016370000000 1.0
C      1  0.4827880000000  0.4250760000000  0.5262050000000 1.0
C      1  0.5092510000000  0.4812600000000  0.4249610000000 1.0
C      1  0.5176500000000  0.4791170000000  0.4850310000000 1.0
C      1  0.5086540000000  0.5250660000000  0.4483690000000 1.0
C      1  0.4705210000000  0.4880410000000  0.4429880000000 1.0
C      1  0.5128370000000  0.4553700000000  0.5000090000000 1.0
C      1  0.4861210000000  0.5373490000000  0.5444940000000 1.0
C      1  0.4360900000000  0.4880550000000  0.4746140000000 1.0
C      1  0.4992940000000  0.5205180000000  0.4808650000000 1.0
C      1  0.5748740000000  0.5268800000000  0.4817460000000 1.0
C      1  0.5414960000000  0.4684320000000  0.4456800000000 1.0
C      1  0.4718520000000  0.4833520000000  0.5012020000000 1.0
C      1  0.5344460000000  0.5538060000000  0.4850270000000 1.0
C      1  0.4791120000000  0.4253450000000  0.4972930000000 1.0
C      1  0.4936970000000  0.4940870000000  0.4839850000000 1.0
C      1  0.4910450000000  0.4693330000000  0.5185760000000 1.0
C      1  0.4546730000000  0.4965100000000  0.5247460000000 1.0
C      1  0.4953440000000  0.5512200000000  0.4565630000000 1.0
END
