TITL C-162428-3150-7 0.104661890210157 125000 -685.869802509629 0 0 98 (C1) n - 1
REM
REM in /rds/project/t2_vol4/rds-t2-cs072/BORA/CARBON/from-Arr/AIRSS/Generating-Clusters/GAP-ML-2020/Only-C1/SD-CG/HFTN-CG
REM
REM
REM
REM
REM
REM ./C.cell (11c1c37f851c82e70ff6c80c92926a4b)
REM AIRSS Version 0.9.1 bugfix July 2018 build 013d7b7c2542+ Fri, 06 Jul 2018 19:26:36 +0100
REM compiler GCC version 9.3.0
REM options -cpp -mtune=generic -march=x86-64 -g -O0
REM seed 1954777921 292141488 831192930 -1349642079 -1726047497 1445336714 -1409970087 -1703846791 -329805025 1120878297 -6471596 -1907709291 -122576282 -1675756755 93089731 1859027684 780996112 1579048428 1405149237 -1487271975 1528113904 -877166139 2128416513 -1781175193 1404915807 -1438171829 1933308666 1597895584 -1527754729 54856436 977765997 -1524488904 1443411573
REM
CELL 1.54180   50.00000   50.00000   50.00000   90.00000   90.00000   90.00000
LATT -1
SFAC C  
C      1  0.5161310000000  0.4988570000000  0.5303200000000 1.0
C      1  0.4848440000000  0.5221580000000  0.4496860000000 1.0
C      1  0.5854980000000  0.5290440000000  0.5240350000000 1.0
C      1  0.4681010000000  0.5169530000000  0.5833140000000 1.0
C      1  0.4964580000000  0.4067950000000  0.4976450000000 1.0
C      1  0.4193690000000  0.5014360000000  0.5097320000000 1.0
C      1  0.4662590000000  0.4995110000000  0.5250090000000 1.0
C      1  0.4762740000000  0.5105100000000  0.4227520000000 1.0
C      1  0.5683330000000  0.5601440000000  0.4859730000000 1.0
C      1  0.4811710000000  0.5516400000000  0.4470630000000 1.0
C      1  0.4735910000000  0.5654480000000  0.4726220000000 1.0
C      1  0.5534090000000  0.5463160000000  0.5550940000000 1.0
C      1  0.5438920000000  0.4459300000000  0.5383310000000 1.0
C      1  0.5880350000000  0.5003950000000  0.5148010000000 1.0
C      1  0.4492470000000  0.5175550000000  0.4324170000000 1.0
C      1  0.5202250000000  0.5329390000000  0.4162760000000 1.0
C      1  0.5077010000000  0.4654230000000  0.4967270000000 1.0
C      1  0.4396420000000  0.4539550000000  0.5167730000000 1.0
C      1  0.5156440000000  0.5252160000000  0.5164070000000 1.0
C      1  0.5396660000000  0.5036520000000  0.4868610000000 1.0
C      1  0.4878740000000  0.4843640000000  0.4820650000000 1.0
C      1  0.4311520000000  0.5442580000000  0.5186300000000 1.0
C      1  0.4372040000000  0.4937030000000  0.4421530000000 1.0
C      1  0.5873250000000  0.4844360000000  0.4901840000000 1.0
C      1  0.5793270000000  0.5354440000000  0.4408320000000 1.0
C      1  0.5330880000000  0.5030820000000  0.5597660000000 1.0
C      1  0.5230560000000  0.4281890000000  0.5299510000000 1.0
C      1  0.5274790000000  0.5730740000000  0.5248600000000 1.0
C      1  0.4200610000000  0.4493960000000  0.4939890000000 1.0
C      1  0.4497350000000  0.4734820000000  0.5798260000000 1.0
C      1  0.5306300000000  0.5339620000000  0.5659330000000 1.0
C      1  0.4175810000000  0.5144370000000  0.4845260000000 1.0
C      1  0.4852280000000  0.4471270000000  0.5652140000000 1.0
C      1  0.4569920000000  0.5479660000000  0.5590410000000 1.0
C      1  0.5273160000000  0.4878620000000  0.4369400000000 1.0
C      1  0.5559560000000  0.4651980000000  0.5191310000000 1.0
C      1  0.4139170000000  0.4679990000000  0.4739150000000 1.0
C      1  0.5202930000000  0.5719190000000  0.4971500000000 1.0
C      1  0.4730430000000  0.4885250000000  0.5860560000000 1.0
C      1  0.5067500000000  0.5500410000000  0.5642820000000 1.0
C      1  0.4550260000000  0.4710730000000  0.4361800000000 1.0
C      1  0.4815150000000  0.5413530000000  0.5730560000000 1.0
C      1  0.5005800000000  0.5524490000000  0.4254870000000 1.0
C      1  0.5298900000000  0.4825240000000  0.5084710000000 1.0
C      1  0.5236920000000  0.4776350000000  0.5741720000000 1.0
C      1  0.4300570000000  0.4460580000000  0.4679390000000 1.0
C      1  0.4515690000000  0.5434070000000  0.4444380000000 1.0
C      1  0.4292230000000  0.4811590000000  0.5608230000000 1.0
C      1  0.4757280000000  0.4322210000000  0.4634880000000 1.0
C      1  0.5504250000000  0.4541330000000  0.4707330000000 1.0
C      1  0.5199630000000  0.4202020000000  0.5018320000000 1.0
C      1  0.4195350000000  0.5207130000000  0.5304680000000 1.0
C      1  0.5534020000000  0.5637950000000  0.5326210000000 1.0
C      1  0.5235060000000  0.5044660000000  0.4638380000000 1.0
C      1  0.4251330000000  0.5092360000000  0.5560670000000 1.0
C      1  0.5048120000000  0.4709200000000  0.4258220000000 1.0
C      1  0.4970250000000  0.5106270000000  0.4732880000000 1.0
C      1  0.4432590000000  0.5253810000000  0.5702840000000 1.0
C      1  0.5374300000000  0.4570730000000  0.5625490000000 1.0
C      1  0.5517440000000  0.4709820000000  0.4475370000000 1.0
C      1  0.5043510000000  0.5680530000000  0.5409920000000 1.0
C      1  0.4932870000000  0.5295370000000  0.4079840000000 1.0
C      1  0.4181010000000  0.4939820000000  0.4636430000000 1.0
C      1  0.4566730000000  0.4492540000000  0.5645300000000 1.0
C      1  0.4782020000000  0.4811710000000  0.4227910000000 1.0
C      1  0.5377710000000  0.5288300000000  0.4991500000000 1.0
C      1  0.5838010000000  0.5493780000000  0.4649270000000 1.0
C      1  0.5911920000000  0.4965270000000  0.4650360000000 1.0
C      1  0.5730250000000  0.4848940000000  0.5329910000000 1.0
C      1  0.5729360000000  0.4894090000000  0.4447320000000 1.0
C      1  0.5378800000000  0.5119240000000  0.4218920000000 1.0
C      1  0.4931750000000  0.5301510000000  0.4982390000000 1.0
C      1  0.5684830000000  0.4622440000000  0.4919390000000 1.0
C      1  0.4661010000000  0.4409890000000  0.5123540000000 1.0
C      1  0.5740670000000  0.5547180000000  0.5139230000000 1.0
C      1  0.4459440000000  0.5545500000000  0.4706780000000 1.0
C      1  0.4746800000000  0.4233330000000  0.4914170000000 1.0
C      1  0.4898140000000  0.4572590000000  0.5205530000000 1.0
C      1  0.4581780000000  0.5515610000000  0.5305530000000 1.0
C      1  0.5731550000000  0.5266220000000  0.5493890000000 1.0
C      1  0.4533840000000  0.4466630000000  0.4518830000000 1.0
C      1  0.5966130000000  0.5246020000000  0.4622960000000 1.0
C      1  0.4704210000000  0.5252210000000  0.5150960000000 1.0
C      1  0.4350400000000  0.4561790000000  0.5458040000000 1.0
C      1  0.4889780000000  0.4854420000000  0.5323770000000 1.0
C      1  0.4816940000000  0.5682470000000  0.5237630000000 1.0
C      1  0.5080170000000  0.4447360000000  0.4318460000000 1.0
C      1  0.4985820000000  0.4377620000000  0.5409520000000 1.0
C      1  0.5622170000000  0.5010430000000  0.5535980000000 1.0
C      1  0.4917690000000  0.5641880000000  0.4958560000000 1.0
C      1  0.4281720000000  0.5411940000000  0.4895310000000 1.0
C      1  0.5229860000000  0.4423510000000  0.4796620000000 1.0
C      1  0.4460630000000  0.4846050000000  0.5094500000000 1.0
C      1  0.5033580000000  0.4353620000000  0.4563350000000 1.0
C      1  0.4606830000000  0.4835350000000  0.4840990000000 1.0
C      1  0.5646130000000  0.5136320000000  0.4307040000000 1.0
C      1  0.4957660000000  0.4710430000000  0.5794140000000 1.0
C      1  0.5398150000000  0.5560600000000  0.4842440000000 1.0
END
