TITL C-162429-1436-11 -0.0668009580307914 125000 -231.77360527437 0 0 35 (C1) n - 1
REM
REM in /rds/project/t2_vol4/rds-t2-cs072/BORA/CARBON/from-Arr/AIRSS/Generating-Clusters/GAP-ML-2020/Only-C1/SD-CG/HFTN-CG
REM
REM
REM
REM
REM
REM ./C.cell (11c1c37f851c82e70ff6c80c92926a4b)
REM AIRSS Version 0.9.1 bugfix July 2018 build 013d7b7c2542+ Fri, 06 Jul 2018 19:26:36 +0100
REM compiler GCC version 9.3.0
REM options -cpp -mtune=generic -march=x86-64 -g -O0
REM seed 803017886 -1395007529 990417191 -1868698630 1858271860 1971878339 1274838999 -1490327040 1559958154 1911576634 -1188001340 1026682798 -1797330592 -1811016013 786892731 537621438 196098193 -1734254817 934133248 78103497 -1328628664 -941451468 1379797145 796354728 1801883632 1038724564 862475827 721411103 1661661810 -1000833460 -1744138780 1793096485 -2086336360
REM
CELL 1.54180   50.00000   50.00000   50.00000   90.00000   90.00000   90.00000
LATT -1
SFAC C  
C      1  0.5239480000000  0.4811390000000  0.4648050000000 1.0
C      1  0.4593120000000  0.5351970000000  0.5234650000000 1.0
C      1  0.4864310000000  0.4647340000000  0.4696260000000 1.0
C      1  0.4881100000000  0.5041950000000  0.4445230000000 1.0
C      1  0.4713210000000  0.4739780000000  0.5131670000000 1.0
C      1  0.5251910000000  0.4429020000000  0.4920740000000 1.0
C      1  0.4614850000000  0.4910190000000  0.5339530000000 1.0
C      1  0.5024620000000  0.4929670000000  0.5635090000000 1.0
C      1  0.5200590000000  0.4513720000000  0.5197340000000 1.0
C      1  0.4640360000000  0.5323420000000  0.4738790000000 1.0
C      1  0.5352080000000  0.4733430000000  0.5296250000000 1.0
C      1  0.5226250000000  0.4946200000000  0.5446110000000 1.0
C      1  0.4809190000000  0.5047090000000  0.5519180000000 1.0
C      1  0.4833110000000  0.5304200000000  0.5393710000000 1.0
C      1  0.5496180000000  0.5152640000000  0.5119700000000 1.0
C      1  0.4455410000000  0.5118440000000  0.5241780000000 1.0
C      1  0.4920080000000  0.5070220000000  0.4882000000000 1.0
C      1  0.5188810000000  0.4960560000000  0.4883220000000 1.0
C      1  0.5614590000000  0.4721280000000  0.4912610000000 1.0
C      1  0.4829100000000  0.5670810000000  0.5000330000000 1.0
C      1  0.5408710000000  0.4611950000000  0.4768530000000 1.0
C      1  0.5010880000000  0.4790370000000  0.4493340000000 1.0
C      1  0.4927060000000  0.5257100000000  0.4649280000000 1.0
C      1  0.5080750000000  0.5383760000000  0.5285610000000 1.0
C      1  0.5363590000000  0.5202610000000  0.4878780000000 1.0
C      1  0.4609780000000  0.5016480000000  0.4427720000000 1.0
C      1  0.4539610000000  0.5049960000000  0.4689040000000 1.0
C      1  0.5167870000000  0.5390750000000  0.4796530000000 1.0
C      1  0.5295830000000  0.5200950000000  0.5319960000000 1.0
C      1  0.4968850000000  0.4448150000000  0.4867890000000 1.0
C      1  0.5043130000000  0.5509500000000  0.5026040000000 1.0
C      1  0.4722680000000  0.4852020000000  0.4855870000000 1.0
C      1  0.5559460000000  0.4855380000000  0.5134800000000 1.0
C      1  0.4645090000000  0.5474860000000  0.4981520000000 1.0
C      1  0.4908360000000  0.4532810000000  0.5142870000000 1.0
END
