TITL C-161211-3213-4 0.126185525589692 125000 -424.030079961722 0 0 63 (C1) n - 1
REM
REM in /rds/project/t2_vol4/rds-t2-cs072/BORA/CARBON/from-Arr/AIRSS/Generating-Clusters/GAP-ML-2020/Only-C1/SD-CG/HFTN-CG
REM
REM
REM
REM
REM
REM ./C.cell (11c1c37f851c82e70ff6c80c92926a4b)
REM AIRSS Version 0.9.1 bugfix July 2018 build 013d7b7c2542+ Fri, 06 Jul 2018 19:26:36 +0100
REM compiler GCC version 9.3.0
REM options -cpp -mtune=generic -march=x86-64 -g -O0
REM seed 87452255 -1604379431 -329410528 998576437 1256140317 -1661657987 -303263230 -1003280923 -702427676 -1463432128 1711783251 1829737775 -1730304823 376716886 -137891022 -1245921410 -1600206904 1894404994 2041953381 -476319181 98246901 -1250194867 1903886028 -1024647552 -162648884 1067841253 1163020934 -1043861885 -1355029473 -703858766 -1386424716 846640728 1205443017
REM
CELL 1.54180   50.00000   50.00000   50.00000   90.00000   90.00000   90.00000
LATT -1
SFAC C  
C      1  0.4633560000000  0.5042960000000  0.4884610000000 1.0
C      1  0.5531700000000  0.4854430000000  0.4675530000000 1.0
C      1  0.4874650000000  0.4256060000000  0.4843350000000 1.0
C      1  0.4366200000000  0.4872510000000  0.5287070000000 1.0
C      1  0.5148230000000  0.4479800000000  0.5151230000000 1.0
C      1  0.4872390000000  0.4856260000000  0.5362940000000 1.0
C      1  0.5761780000000  0.5401520000000  0.4817110000000 1.0
C      1  0.5141670000000  0.4753060000000  0.5281270000000 1.0
C      1  0.5065250000000  0.5783260000000  0.5295430000000 1.0
C      1  0.5051700000000  0.4566670000000  0.4470260000000 1.0
C      1  0.5054710000000  0.5474050000000  0.5643110000000 1.0
C      1  0.4898860000000  0.4354940000000  0.5129520000000 1.0
C      1  0.5123730000000  0.4913730000000  0.5018750000000 1.0
C      1  0.5237610000000  0.5424890000000  0.5093960000000 1.0
C      1  0.5280130000000  0.4788380000000  0.4803230000000 1.0
C      1  0.5064320000000  0.5657360000000  0.5049510000000 1.0
C      1  0.5635240000000  0.5201570000000  0.5258480000000 1.0
C      1  0.4598810000000  0.5202880000000  0.4627200000000 1.0
C      1  0.4733270000000  0.4517980000000  0.5602390000000 1.0
C      1  0.5021150000000  0.5024930000000  0.4392780000000 1.0
C      1  0.5081740000000  0.5194900000000  0.5018370000000 1.0
C      1  0.4742390000000  0.4805780000000  0.5622340000000 1.0
C      1  0.4807500000000  0.5584480000000  0.4877340000000 1.0
C      1  0.5744840000000  0.5191240000000  0.4990630000000 1.0
C      1  0.5261860000000  0.4910320000000  0.4254740000000 1.0
C      1  0.4621620000000  0.5473440000000  0.5062700000000 1.0
C      1  0.4796230000000  0.5229470000000  0.5052680000000 1.0
C      1  0.5218540000000  0.5498210000000  0.4398510000000 1.0
C      1  0.5096860000000  0.4366350000000  0.4700560000000 1.0
C      1  0.4499760000000  0.4968820000000  0.5531470000000 1.0
C      1  0.5420720000000  0.5375750000000  0.5319090000000 1.0
C      1  0.4501420000000  0.4524000000000  0.5181640000000 1.0
C      1  0.5711720000000  0.4917090000000  0.4891220000000 1.0
C      1  0.5008820000000  0.5331530000000  0.4446480000000 1.0
C      1  0.4473120000000  0.5430150000000  0.5326440000000 1.0
C      1  0.4703480000000  0.4397610000000  0.5355810000000 1.0
C      1  0.5056970000000  0.5741930000000  0.5549420000000 1.0
C      1  0.5598930000000  0.4926200000000  0.5346660000000 1.0
C      1  0.5641590000000  0.4774890000000  0.5119390000000 1.0
C      1  0.5022400000000  0.4821570000000  0.4629960000000 1.0
C      1  0.4360810000000  0.5339410000000  0.5102080000000 1.0
C      1  0.4668820000000  0.4560660000000  0.4937290000000 1.0
C      1  0.5346610000000  0.4860750000000  0.5462330000000 1.0
C      1  0.5230170000000  0.5041470000000  0.5643100000000 1.0
C      1  0.4842310000000  0.5270710000000  0.5679280000000 1.0
C      1  0.4782910000000  0.4611700000000  0.4344130000000 1.0
C      1  0.5253240000000  0.4501740000000  0.4886050000000 1.0
C      1  0.4799050000000  0.5418410000000  0.4625560000000 1.0
C      1  0.5493170000000  0.4819970000000  0.4399850000000 1.0
C      1  0.5286760000000  0.5318450000000  0.5573110000000 1.0
C      1  0.4829310000000  0.4812330000000  0.4867130000000 1.0
C      1  0.4610310000000  0.4428540000000  0.4450060000000 1.0
C      1  0.4951940000000  0.5011410000000  0.5722640000000 1.0
C      1  0.5282710000000  0.4646150000000  0.4309600000000 1.0
C      1  0.4604800000000  0.5234820000000  0.5502990000000 1.0
C      1  0.4559010000000  0.5068530000000  0.4386130000000 1.0
C      1  0.4822420000000  0.5130620000000  0.5315240000000 1.0
C      1  0.4643490000000  0.4364240000000  0.4713870000000 1.0
C      1  0.4757600000000  0.4903890000000  0.4306300000000 1.0
C      1  0.5454380000000  0.5565840000000  0.4463050000000 1.0
C      1  0.4257810000000  0.4617490000000  0.5266240000000 1.0
C      1  0.4392770000000  0.5053960000000  0.5059760000000 1.0
C      1  0.5664120000000  0.5527980000000  0.4621060000000 1.0
END
