TITL C-17745-6558-2 156.272775724063 125000 -968.926893354368 0 0 138 (C1) n - 1
REM
REM in /rds/project/t2_vol4/rds-t2-cs072/BORA/CARBON/from-Arr/AIRSS/Generating-Clusters/GAP-ML-2020/Only-C1/SD-CG/HFTN-CG
REM
REM
REM
REM
REM
REM ./C.cell (11c1c37f851c82e70ff6c80c92926a4b)
REM AIRSS Version 0.9.1 bugfix July 2018 build 013d7b7c2542+ Fri, 06 Jul 2018 19:26:36 +0100
REM compiler GCC version 9.3.0
REM options -cpp -mtune=generic -march=x86-64 -g -O0
REM seed 909649852 1047299142 970448417 -729362519 -227371447 790216681 1454277643 -174997257 665655907 -1147996167 1861021688 1634387110 -1279667096 631276191 -268798437 2146215581 1931682045 -1725600700 1156587519 -2073756986 -2083401528 -12716313 -1635702823 -1101003107 1971951922 -1203588984 1129787914 209445472 -1569083700 1059351649 157564553 856484825 -1694375617
REM
CELL 1.54180   50.00000   50.00000   50.00000   90.00000   90.00000   90.00000
LATT -1
SFAC C  
C      1  0.4069390000000  0.5125970000000  0.4666910000000 1.0
C      1  0.5138700000000  0.5203780000000  0.5460310000000 1.0
C      1  0.5733950000000  0.5136010000000  0.4551890000000 1.0
C      1  0.5830000000000  0.4934140000000  0.5450780000000 1.0
C      1  0.4379450000000  0.5120050000000  0.5703970000000 1.0
C      1  0.4163820000000  0.4927040000000  0.4486970000000 1.0
C      1  0.4526830000000  0.4909350000000  0.5585800000000 1.0
C      1  0.4446210000000  0.5461450000000  0.5419220000000 1.0
C      1  0.5347380000000  0.4180600000000  0.4571830000000 1.0
C      1  0.4982800000000  0.5415800000000  0.4929660000000 1.0
C      1  0.5407640000000  0.4136810000000  0.5309900000000 1.0
C      1  0.4692890000000  0.5437920000000  0.4995450000000 1.0
C      1  0.4474020000000  0.4292660000000  0.4591260000000 1.0
C      1  0.5415910000000  0.5854380000000  0.4987620000000 1.0
C      1  0.4138770000000  0.4652050000000  0.4575220000000 1.0
C      1  0.5721190000000  0.5582150000000  0.5336510000000 1.0
C      1  0.5352260000000  0.4844830000000  0.5276030000000 1.0
C      1  0.5906410000000  0.4930900000000  0.5162090000000 1.0
C      1  0.4041470000000  0.4588600000000  0.4831070000000 1.0
C      1  0.4644120000000  0.4169680000000  0.4426290000000 1.0
C      1  0.5106480000000  0.4966500000000  0.5672790000000 1.0
C      1  0.5417910000000  0.5277380000000  0.5403290000000 1.0
C      1  0.5671190000000  0.4251180000000  0.4931050000000 1.0
C      1  0.4913720000000  0.4860140000000  0.4130490000000 1.0
C      1  0.5415180000000  0.4930130000000  0.5726470000000 1.0
C      1  0.4342880000000  0.4500050000000  0.4445690000000 1.0
C      1  0.4644240000000  0.5754200000000  0.5069360000000 1.0
C      1  0.4579440000000  0.4481190000000  0.5373590000000 1.0
C      1  0.5767120000000  0.4492720000000  0.4814130000000 1.0
C      1  0.4744810000000  0.4038570000000  0.5220760000000 1.0
C      1  0.5543780000000  0.5643130000000  0.4605090000000 1.0
C      1  0.4887590000000  0.4574580000000  0.5348080000000 1.0
C      1  0.5539080000000  0.4651690000000  0.5731600000000 1.0
C      1  0.5527240000000  0.4998690000000  0.5450560000000 1.0
C      1  0.4494260000000  0.4086120000000  0.5066080000000 1.0
C      1  0.4152230000000  0.4781740000000  0.5454940000000 1.0
C      1  0.5340780000000  0.5414880000000  0.4599580000000 1.0
C      1  0.5380540000000  0.5132770000000  0.4924990000000 1.0
C      1  0.4683530000000  0.5318320000000  0.5278940000000 1.0
C      1  0.5133320000000  0.5534550000000  0.5160330000000 1.0
C      1  0.4848250000000  0.4382840000000  0.4866300000000 1.0
C      1  0.4894520000000  0.5881510000000  0.5556390000000 1.0
C      1  0.5234380000000  0.4643840000000  0.4932380000000 1.0
C      1  0.5649640000000  0.4265850000000  0.5218230000000 1.0
C      1  0.4983830000000  0.5606110000000  0.5647550000000 1.0
C      1  0.4957800000000  0.4999490000000  0.4738970000000 1.0
C      1  0.4961720000000  0.4687260000000  0.5982280000000 1.0
C      1  0.5245220000000  0.4534670000000  0.4232150000000 1.0
C      1  0.5020550000000  0.5998370000000  0.5334500000000 1.0
C      1  0.5696910000000  0.5325330000000  0.5745510000000 1.0
C      1  0.4921240000000  0.5215230000000  0.4549270000000 1.0
C      1  0.5760620000000  0.4654950000000  0.5540850000000 1.0
C      1  0.5454350000000  0.4823650000000  0.5018040000000 1.0
C      1  0.4975050000000  0.4955690000000  0.5940360000000 1.0
C      1  0.4655180000000  0.4998390000000  0.5318380000000 1.0
C      1  0.4982300000000  0.4343500000000  0.5560650000000 1.0
C      1  0.5338650000000  0.4895060000000  0.4487690000000 1.0
C      1  0.4854530000000  0.4602180000000  0.4675690000000 1.0
C      1  0.5274650000000  0.5116240000000  0.4092100000000 1.0
C      1  0.5492760000000  0.5175080000000  0.5877860000000 1.0
C      1  0.4518720000000  0.4848070000000  0.5091410000000 1.0
C      1  0.4512410000000  0.5285650000000  0.4788910000000 1.0
C      1  0.4986620000000  0.5239590000000  0.5945360000000 1.0
C      1  0.5129690000000  0.4751240000000  0.4683280000000 1.0
C      1  0.5102650000000  0.5003200000000  0.5248480000000 1.0
C      1  0.5113700000000  0.5554730000000  0.4189760000000 1.0
C      1  0.5537190000000  0.5503070000000  0.5580860000000 1.0
C      1  0.4162440000000  0.4441060000000  0.5082890000000 1.0
C      1  0.5637670000000  0.4835210000000  0.4482970000000 1.0
C      1  0.4905520000000  0.5948890000000  0.5079190000000 1.0
C      1  0.5016310000000  0.4519500000000  0.5074930000000 1.0
C      1  0.4487550000000  0.4663350000000  0.4257700000000 1.0
C      1  0.4499410000000  0.4985490000000  0.4852370000000 1.0
C      1  0.4716630000000  0.4843400000000  0.4764000000000 1.0
C      1  0.4902500000000  0.4190710000000  0.4346340000000 1.0
C      1  0.5854340000000  0.5293090000000  0.4799600000000 1.0
C      1  0.5718740000000  0.5309780000000  0.4312640000000 1.0
C      1  0.5207650000000  0.4846210000000  0.4206820000000 1.0
C      1  0.4562970000000  0.4332540000000  0.4896600000000 1.0
C      1  0.4886160000000  0.5979070000000  0.4789770000000 1.0
C      1  0.5602380000000  0.5634140000000  0.5070020000000 1.0
C      1  0.4231030000000  0.4149340000000  0.5112210000000 1.0
C      1  0.5064800000000  0.5449160000000  0.4638270000000 1.0
C      1  0.5274090000000  0.5561010000000  0.5746820000000 1.0
C      1  0.5403110000000  0.5383900000000  0.5128720000000 1.0
C      1  0.5763760000000  0.4694140000000  0.5048210000000 1.0
C      1  0.5663120000000  0.4568310000000  0.4552180000000 1.0
C      1  0.4612150000000  0.5885260000000  0.4795370000000 1.0
C      1  0.5922990000000  0.5196300000000  0.5064220000000 1.0
C      1  0.3937280000000  0.4793360000000  0.5001990000000 1.0
C      1  0.4901160000000  0.4863400000000  0.5407580000000 1.0
C      1  0.4560380000000  0.5149600000000  0.4261940000000 1.0
C      1  0.4940440000000  0.4086670000000  0.4792790000000 1.0
C      1  0.4732090000000  0.4218280000000  0.5441720000000 1.0
C      1  0.4973920000000  0.5675330000000  0.4434050000000 1.0
C      1  0.4090010000000  0.5289500000000  0.5062800000000 1.0
C      1  0.4236110000000  0.5634430000000  0.4653370000000 1.0
C      1  0.4188570000000  0.5302950000000  0.5327580000000 1.0
C      1  0.5893250000000  0.5357680000000  0.5312320000000 1.0
C      1  0.5500060000000  0.5274340000000  0.4124650000000 1.0
C      1  0.3968170000000  0.5062690000000  0.4928150000000 1.0
C      1  0.5881630000000  0.5199470000000  0.5553170000000 1.0
C      1  0.4474350000000  0.5754400000000  0.4584640000000 1.0
C      1  0.4019520000000  0.4657940000000  0.5245940000000 1.0
C      1  0.5347550000000  0.4441270000000  0.5735050000000 1.0
C      1  0.5274690000000  0.4033280000000  0.5071940000000 1.0
C      1  0.4529380000000  0.5367920000000  0.5703060000000 1.0
C      1  0.4798220000000  0.5416510000000  0.5803470000000 1.0
C      1  0.5734170000000  0.5551630000000  0.4819560000000 1.0
C      1  0.5090880000000  0.5891990000000  0.4608100000000 1.0
C      1  0.5064560000000  0.4489560000000  0.5818600000000 1.0
C      1  0.4679210000000  0.5611030000000  0.4440260000000 1.0
C      1  0.4960180000000  0.5430860000000  0.5392190000000 1.0
C      1  0.4978710000000  0.4426730000000  0.4205120000000 1.0
C      1  0.4399830000000  0.4660980000000  0.5538610000000 1.0
C      1  0.5364920000000  0.5860030000000  0.4711340000000 1.0
C      1  0.5400070000000  0.5549750000000  0.4160670000000 1.0
C      1  0.5080970000000  0.4097350000000  0.4548870000000 1.0
C      1  0.4171220000000  0.5077830000000  0.5511130000000 1.0
C      1  0.4636060000000  0.5315890000000  0.4496570000000 1.0
C      1  0.5630020000000  0.5591960000000  0.4334410000000 1.0
C      1  0.4456560000000  0.4541740000000  0.5101720000000 1.0
C      1  0.5261910000000  0.5343520000000  0.5923160000000 1.0
C      1  0.5186810000000  0.5836220000000  0.5164830000000 1.0
C      1  0.4805100000000  0.5118790000000  0.4112600000000 1.0
C      1  0.5433730000000  0.5158870000000  0.4636800000000 1.0
C      1  0.4217530000000  0.5378310000000  0.4785610000000 1.0
C      1  0.4385620000000  0.4931490000000  0.4295680000000 1.0
C      1  0.5757870000000  0.4513410000000  0.5297420000000 1.0
C      1  0.4508950000000  0.5746850000000  0.5345550000000 1.0
C      1  0.4617250000000  0.5898390000000  0.5545740000000 1.0
C      1  0.4766380000000  0.4628650000000  0.4169350000000 1.0
C      1  0.5439590000000  0.4415480000000  0.4424870000000 1.0
C      1  0.5038530000000  0.5290010000000  0.4100340000000 1.0
C      1  0.5086160000000  0.5130430000000  0.4968570000000 1.0
C      1  0.4991670000000  0.3980430000000  0.5050860000000 1.0
C      1  0.5442790000000  0.4110810000000  0.4838310000000 1.0
C      1  0.5269050000000  0.4248650000000  0.5535310000000 1.0
END
