TITL C-173944-9406-6 -0.14814503157577 125000 -256.067917038972 0 0 39 (C1) n - 1
REM
REM in /rds/project/t2_vol4/rds-t2-cs072/BORA/CARBON/from-Arr/AIRSS/Generating-Clusters/GAP-ML-2020/Only-C1/SD-CG/HFTN-CG
REM
REM
REM
REM
REM
REM ./C.cell (11c1c37f851c82e70ff6c80c92926a4b)
REM AIRSS Version 0.9.1 bugfix July 2018 build 013d7b7c2542+ Fri, 06 Jul 2018 19:26:36 +0100
REM compiler GCC version 9.3.0
REM options -cpp -mtune=generic -march=x86-64 -g -O0
REM seed 2146369714 -1851295973 -734925044 -324937318 -1497298170 -878381046 -59353826 -511826811 240442308 -992235046 -386187267 844661270 242116809 922818967 -288206941 266576337 -332694499 -1627377069 -1785348899 -2053549015 1187428934 636739292 2058313473 -1527481248 1773294712 964402260 419958412 -2037307322 -1789605532 -1127378225 1356163405 66311749 1000842849
REM
CELL 1.54180   50.00000   50.00000   50.00000   90.00000   90.00000   90.00000
LATT -1
SFAC C  
C      1  0.5067000000000  0.5303790000000  0.4401680000000 1.0
C      1  0.5202900000000  0.4794050000000  0.4665520000000 1.0
C      1  0.5286900000000  0.5367200000000  0.5193170000000 1.0
C      1  0.4924710000000  0.4455230000000  0.5121810000000 1.0
C      1  0.4680020000000  0.4804620000000  0.4678350000000 1.0
C      1  0.5071160000000  0.5487300000000  0.4623930000000 1.0
C      1  0.4819580000000  0.4544840000000  0.4668160000000 1.0
C      1  0.4698620000000  0.4799990000000  0.5389210000000 1.0
C      1  0.4884210000000  0.4585790000000  0.5376870000000 1.0
C      1  0.4833860000000  0.5533640000000  0.5106660000000 1.0
C      1  0.4872840000000  0.5436670000000  0.4811690000000 1.0
C      1  0.5173540000000  0.4486220000000  0.4979920000000 1.0
C      1  0.4954000000000  0.4961530000000  0.4707200000000 1.0
C      1  0.4925500000000  0.5162980000000  0.4916100000000 1.0
C      1  0.5457350000000  0.4887740000000  0.4757110000000 1.0
C      1  0.5036710000000  0.5448630000000  0.5295900000000 1.0
C      1  0.5183310000000  0.4908800000000  0.5181890000000 1.0
C      1  0.4598210000000  0.5307090000000  0.4694110000000 1.0
C      1  0.5340780000000  0.4682850000000  0.5103930000000 1.0
C      1  0.5111570000000  0.4531870000000  0.4701830000000 1.0
C      1  0.4424870000000  0.5393130000000  0.4882210000000 1.0
C      1  0.5626910000000  0.5025780000000  0.5182400000000 1.0
C      1  0.5066450000000  0.4607840000000  0.5589190000000 1.0
C      1  0.4622970000000  0.5073480000000  0.4531230000000 1.0
C      1  0.4713510000000  0.4466050000000  0.4929100000000 1.0
C      1  0.5009870000000  0.5218020000000  0.5467390000000 1.0
C      1  0.5572210000000  0.4815230000000  0.5010260000000 1.0
C      1  0.5241070000000  0.5029460000000  0.5466630000000 1.0
C      1  0.5471140000000  0.5177340000000  0.5338740000000 1.0
C      1  0.5288190000000  0.5321220000000  0.4583950000000 1.0
C      1  0.4779990000000  0.5076440000000  0.5415210000000 1.0
C      1  0.4560260000000  0.4862740000000  0.5147990000000 1.0
C      1  0.4892680000000  0.5098980000000  0.4448880000000 1.0
C      1  0.4551580000000  0.4703750000000  0.4926190000000 1.0
C      1  0.5199980000000  0.5150960000000  0.5016730000000 1.0
C      1  0.4694270000000  0.5126710000000  0.5133930000000 1.0
C      1  0.5215030000000  0.4806640000000  0.5654010000000 1.0
C      1  0.5373830000000  0.5153660000000  0.4780510000000 1.0
C      1  0.4572420000000  0.5401740000000  0.5120410000000 1.0
END
