TITL C-17761-6619-8 -19.2637039855624 125000 -919.856141542097 0 0 131 (C1) n - 1
REM
REM in /rds/project/t2_vol4/rds-t2-cs072/BORA/CARBON/from-Arr/AIRSS/Generating-Clusters/GAP-ML-2020/Only-C1/SD-CG/HFTN-CG
REM
REM
REM
REM
REM
REM ./C.cell (11c1c37f851c82e70ff6c80c92926a4b)
REM AIRSS Version 0.9.1 bugfix July 2018 build 013d7b7c2542+ Fri, 06 Jul 2018 19:26:36 +0100
REM compiler GCC version 9.3.0
REM options -cpp -mtune=generic -march=x86-64 -g -O0
REM seed 2027291081 1503064595 -68896528 856168017 1396673380 152175746 218278741 -1063352359 24861871 644871669 -732787726 1173266787 696473060 143812676 960590504 321064058 464127036 1048286061 1664419330 -2058249665 454657361 -1322859167 -1661279474 -834306471 -1506045807 607153809 1070674049 -850492679 2052726927 -1638606195 -196666041 1991038814 -899403965
REM
CELL 1.54180   50.00000   50.00000   50.00000   90.00000   90.00000   90.00000
LATT -1
SFAC C  
C      1  0.4908130000000  0.5229970000000  0.5176920000000 1.0
C      1  0.5324040000000  0.4880690000000  0.4055210000000 1.0
C      1  0.5415000000000  0.4886580000000  0.5824530000000 1.0
C      1  0.5372540000000  0.4978680000000  0.5521310000000 1.0
C      1  0.5038180000000  0.4566140000000  0.5264080000000 1.0
C      1  0.3977150000000  0.5359250000000  0.4849460000000 1.0
C      1  0.4196150000000  0.4670200000000  0.4517080000000 1.0
C      1  0.5487400000000  0.5252780000000  0.4279620000000 1.0
C      1  0.4988650000000  0.4208690000000  0.4246670000000 1.0
C      1  0.4606380000000  0.4336420000000  0.4997510000000 1.0
C      1  0.5378090000000  0.4107790000000  0.4932950000000 1.0
C      1  0.5857930000000  0.4951850000000  0.4647330000000 1.0
C      1  0.5287800000000  0.5841500000000  0.5053620000000 1.0
C      1  0.5453890000000  0.4213260000000  0.5175400000000 1.0
C      1  0.4819940000000  0.5414420000000  0.4986000000000 1.0
C      1  0.5750940000000  0.4558930000000  0.5315510000000 1.0
C      1  0.4185280000000  0.5238700000000  0.4667900000000 1.0
C      1  0.5873610000000  0.5048850000000  0.5356130000000 1.0
C      1  0.5715660000000  0.4439890000000  0.4861200000000 1.0
C      1  0.5165260000000  0.5287920000000  0.5278530000000 1.0
C      1  0.5718190000000  0.4870290000000  0.4392830000000 1.0
C      1  0.4396260000000  0.5328840000000  0.4212430000000 1.0
C      1  0.5478280000000  0.4802340000000  0.4768770000000 1.0
C      1  0.5068210000000  0.4419310000000  0.4057540000000 1.0
C      1  0.4806670000000  0.5624110000000  0.4393200000000 1.0
C      1  0.4717430000000  0.4204090000000  0.5244090000000 1.0
C      1  0.5373890000000  0.4379880000000  0.5601940000000 1.0
C      1  0.5096150000000  0.4048790000000  0.4954810000000 1.0
C      1  0.4682550000000  0.5686480000000  0.5653650000000 1.0
C      1  0.4542030000000  0.4898720000000  0.4261140000000 1.0
C      1  0.4936230000000  0.4707470000000  0.4539990000000 1.0
C      1  0.4740850000000  0.4826370000000  0.5001590000000 1.0
C      1  0.5111410000000  0.5083140000000  0.4711050000000 1.0
C      1  0.4260200000000  0.5456340000000  0.5271160000000 1.0
C      1  0.5834660000000  0.4975280000000  0.5631250000000 1.0
C      1  0.5744980000000  0.5201580000000  0.5770390000000 1.0
C      1  0.4290360000000  0.5066960000000  0.5647870000000 1.0
C      1  0.5771540000000  0.5493640000000  0.4841480000000 1.0
C      1  0.4843240000000  0.5043040000000  0.4005370000000 1.0
C      1  0.5119460000000  0.4128560000000  0.4477990000000 1.0
C      1  0.5382080000000  0.4264060000000  0.4490040000000 1.0
C      1  0.5624110000000  0.4529600000000  0.5569070000000 1.0
C      1  0.5517560000000  0.5584740000000  0.5672100000000 1.0
C      1  0.4717310000000  0.4302000000000  0.4249620000000 1.0
C      1  0.4427850000000  0.5232020000000  0.5146040000000 1.0
C      1  0.4618840000000  0.5169830000000  0.4155680000000 1.0
C      1  0.4837850000000  0.4545830000000  0.4992170000000 1.0
C      1  0.4582980000000  0.5279040000000  0.4871120000000 1.0
C      1  0.5663490000000  0.4760300000000  0.5722370000000 1.0
C      1  0.4563340000000  0.5463970000000  0.4387580000000 1.0
C      1  0.4452750000000  0.4554900000000  0.4532130000000 1.0
C      1  0.4269530000000  0.4796170000000  0.5540290000000 1.0
C      1  0.5528310000000  0.4249040000000  0.4729630000000 1.0
C      1  0.4401470000000  0.5727550000000  0.5244730000000 1.0
C      1  0.5232520000000  0.5330850000000  0.4183750000000 1.0
C      1  0.4444180000000  0.5442590000000  0.4664370000000 1.0
C      1  0.5464140000000  0.4751400000000  0.4482370000000 1.0
C      1  0.4294530000000  0.5348030000000  0.5560670000000 1.0
C      1  0.4238440000000  0.4895570000000  0.4336220000000 1.0
C      1  0.5742860000000  0.5425160000000  0.5598420000000 1.0
C      1  0.4614500000000  0.5290830000000  0.5895870000000 1.0
C      1  0.4217600000000  0.4662460000000  0.4799360000000 1.0
C      1  0.4581310000000  0.4969770000000  0.4788840000000 1.0
C      1  0.5200760000000  0.4779340000000  0.5132430000000 1.0
C      1  0.5383430000000  0.5178250000000  0.5101230000000 1.0
C      1  0.5495900000000  0.5176040000000  0.5899940000000 1.0
C      1  0.4662680000000  0.4360760000000  0.5475110000000 1.0
C      1  0.5557220000000  0.4990750000000  0.4193630000000 1.0
C      1  0.4964690000000  0.5069890000000  0.5717820000000 1.0
C      1  0.5419580000000  0.4502320000000  0.4338220000000 1.0
C      1  0.4650600000000  0.4802180000000  0.4536720000000 1.0
C      1  0.5024030000000  0.5345750000000  0.4624670000000 1.0
C      1  0.5756180000000  0.4754140000000  0.4871680000000 1.0
C      1  0.4920260000000  0.5927080000000  0.4772610000000 1.0
C      1  0.4510820000000  0.5730180000000  0.4753290000000 1.0
C      1  0.4014630000000  0.5430210000000  0.5090900000000 1.0
C      1  0.5357260000000  0.5436690000000  0.5863830000000 1.0
C      1  0.4478720000000  0.5046310000000  0.5864180000000 1.0
C      1  0.4969510000000  0.5701160000000  0.5693080000000 1.0
C      1  0.4183760000000  0.5169450000000  0.4377970000000 1.0
C      1  0.4821440000000  0.5937440000000  0.5040520000000 1.0
C      1  0.4416290000000  0.4625520000000  0.5729330000000 1.0
C      1  0.4946650000000  0.4073140000000  0.4713610000000 1.0
C      1  0.5161020000000  0.5147850000000  0.5521900000000 1.0
C      1  0.5026000000000  0.4557030000000  0.4763700000000 1.0
C      1  0.5549330000000  0.5289260000000  0.4570400000000 1.0
C      1  0.5173820000000  0.5789550000000  0.4783870000000 1.0
C      1  0.5287010000000  0.4588940000000  0.4100640000000 1.0
C      1  0.5816660000000  0.5347550000000  0.5334290000000 1.0
C      1  0.4486890000000  0.4365950000000  0.5679980000000 1.0
C      1  0.5689180000000  0.4366070000000  0.5131120000000 1.0
C      1  0.5128210000000  0.5102310000000  0.4030500000000 1.0
C      1  0.5253990000000  0.4448340000000  0.5841660000000 1.0
C      1  0.4821020000000  0.4640320000000  0.5459190000000 1.0
C      1  0.5751430000000  0.4824880000000  0.5178840000000 1.0
C      1  0.4339920000000  0.4534340000000  0.5029690000000 1.0
C      1  0.4996540000000  0.4120590000000  0.5212160000000 1.0
C      1  0.4732940000000  0.5809800000000  0.4595020000000 1.0
C      1  0.5389060000000  0.5103790000000  0.4799470000000 1.0
C      1  0.5512230000000  0.5736380000000  0.5203750000000 1.0
C      1  0.4894600000000  0.5276870000000  0.5892680000000 1.0
C      1  0.5268650000000  0.4648200000000  0.4889560000000 1.0
C      1  0.5106340000000  0.5511980000000  0.4382940000000 1.0
C      1  0.5732720000000  0.5540640000000  0.5125500000000 1.0
C      1  0.5556170000000  0.5570620000000  0.4647530000000 1.0
C      1  0.5136550000000  0.4891650000000  0.4485750000000 1.0
C      1  0.4261920000000  0.4994050000000  0.5106410000000 1.0
C      1  0.5219340000000  0.4302210000000  0.5338040000000 1.0
C      1  0.5058000000000  0.5898670000000  0.5215280000000 1.0
C      1  0.4493540000000  0.5479930000000  0.5723210000000 1.0
C      1  0.5823070000000  0.5235190000000  0.4690100000000 1.0
C      1  0.5029390000000  0.5516280000000  0.4840760000000 1.0
C      1  0.4659840000000  0.5133850000000  0.5315980000000 1.0
C      1  0.4546610000000  0.5835190000000  0.5024380000000 1.0
C      1  0.5169090000000  0.4704830000000  0.5875880000000 1.0
C      1  0.4608390000000  0.4794820000000  0.5866090000000 1.0
C      1  0.4988330000000  0.4980550000000  0.4996790000000 1.0
C      1  0.5409590000000  0.5748420000000  0.5473450000000 1.0
C      1  0.4557810000000  0.5794450000000  0.5446490000000 1.0
C      1  0.4644430000000  0.4837060000000  0.5287460000000 1.0
C      1  0.5079570000000  0.5501100000000  0.5864870000000 1.0
C      1  0.4677830000000  0.4181640000000  0.4734770000000 1.0
C      1  0.4270700000000  0.4955230000000  0.4829500000000 1.0
C      1  0.4573030000000  0.4299090000000  0.4496410000000 1.0
C      1  0.5322310000000  0.5693170000000  0.4551230000000 1.0
C      1  0.4715520000000  0.4778940000000  0.4040520000000 1.0
C      1  0.4342280000000  0.4754530000000  0.5248060000000 1.0
C      1  0.5129840000000  0.5820350000000  0.5485710000000 1.0
C      1  0.4892940000000  0.4784850000000  0.5747820000000 1.0
C      1  0.4789500000000  0.4510540000000  0.4047090000000 1.0
C      1  0.5440270000000  0.4922120000000  0.5244820000000 1.0
END
