TITL C-176667-8383-8 -0.0184603278276461 125000 -658.388351338158 0 0 94 (C1) n - 1
REM
REM in /rds/project/t2_vol4/rds-t2-cs072/BORA/CARBON/from-Arr/AIRSS/Generating-Clusters/GAP-ML-2020/Only-C1/SD-CG/HFTN-CG
REM
REM
REM
REM
REM
REM ./C.cell (11c1c37f851c82e70ff6c80c92926a4b)
REM AIRSS Version 0.9.1 bugfix July 2018 build 013d7b7c2542+ Fri, 06 Jul 2018 19:26:36 +0100
REM compiler GCC version 9.3.0
REM options -cpp -mtune=generic -march=x86-64 -g -O0
REM seed -1151229338 440577201 1068320824 2087452995 -1436264619 1796133493 -1100195545 -1998702716 -19490853 -734619158 860032822 -1778567669 1895682200 -779732970 -671737899 807613090 1435684478 2144703993 2027819148 -1685554668 628149554 -1544622341 -2113591071 -1106544369 -1949792180 34452443 848142651 817204050 167723958 -898652485 -266569902 -2144987747 -1915404708
REM
CELL 1.54180   50.00000   50.00000   50.00000   90.00000   90.00000   90.00000
LATT -1
SFAC C  
C      1  0.4302240000000  0.5028930000000  0.5322070000000 1.0
C      1  0.4294940000000  0.5466940000000  0.5138550000000 1.0
C      1  0.4470600000000  0.5445890000000  0.4673270000000 1.0
C      1  0.4719650000000  0.4796510000000  0.4354910000000 1.0
C      1  0.4948640000000  0.4145580000000  0.4683390000000 1.0
C      1  0.5500400000000  0.5068200000000  0.5613040000000 1.0
C      1  0.5207480000000  0.4688950000000  0.4275130000000 1.0
C      1  0.5477400000000  0.5376630000000  0.4630260000000 1.0
C      1  0.5787310000000  0.5140240000000  0.5257490000000 1.0
C      1  0.5501070000000  0.4755180000000  0.4616850000000 1.0
C      1  0.4701110000000  0.5803780000000  0.4624110000000 1.0
C      1  0.5109090000000  0.4911840000000  0.4131320000000 1.0
C      1  0.5582080000000  0.5590340000000  0.5078120000000 1.0
C      1  0.5289490000000  0.4266150000000  0.5335100000000 1.0
C      1  0.4760670000000  0.4986830000000  0.5706870000000 1.0
C      1  0.4388710000000  0.4492610000000  0.4822500000000 1.0
C      1  0.5670910000000  0.4928410000000  0.5415970000000 1.0
C      1  0.4467630000000  0.4500120000000  0.5315910000000 1.0
C      1  0.5601070000000  0.4590180000000  0.5057970000000 1.0
C      1  0.5603410000000  0.4650640000000  0.5338090000000 1.0
C      1  0.5038510000000  0.5629360000000  0.5579590000000 1.0
C      1  0.5495270000000  0.4373260000000  0.4903410000000 1.0
C      1  0.4636930000000  0.5777510000000  0.4918850000000 1.0
C      1  0.4893900000000  0.4702380000000  0.4912890000000 1.0
C      1  0.5100150000000  0.5738420000000  0.5026210000000 1.0
C      1  0.4797580000000  0.5275910000000  0.5236830000000 1.0
C      1  0.4815730000000  0.5735080000000  0.5417200000000 1.0
C      1  0.4952570000000  0.5529290000000  0.4332400000000 1.0
C      1  0.5159620000000  0.4987920000000  0.5262780000000 1.0
C      1  0.4355130000000  0.5214670000000  0.5525180000000 1.0
C      1  0.5444190000000  0.4471590000000  0.4627640000000 1.0
C      1  0.4673080000000  0.5440070000000  0.5753820000000 1.0
C      1  0.4313600000000  0.5017250000000  0.4754390000000 1.0
C      1  0.5046290000000  0.5226970000000  0.5377990000000 1.0
C      1  0.4877650000000  0.4324990000000  0.5597520000000 1.0
C      1  0.5248040000000  0.4860320000000  0.4510030000000 1.0
C      1  0.4440730000000  0.4350700000000  0.5077680000000 1.0
C      1  0.5044950000000  0.5281850000000  0.4446240000000 1.0
C      1  0.5243750000000  0.5111000000000  0.4320500000000 1.0
C      1  0.4554070000000  0.5604230000000  0.4458930000000 1.0
C      1  0.5543450000000  0.4830290000000  0.4908450000000 1.0
C      1  0.4417800000000  0.4771160000000  0.4836050000000 1.0
C      1  0.5407840000000  0.4496820000000  0.5468650000000 1.0
C      1  0.4082580000000  0.5117450000000  0.4861100000000 1.0
C      1  0.5016320000000  0.4753770000000  0.5361790000000 1.0
C      1  0.4981700000000  0.4341940000000  0.4469570000000 1.0
C      1  0.4707830000000  0.5218260000000  0.4126570000000 1.0
C      1  0.4588000000000  0.5178020000000  0.4720750000000 1.0
C      1  0.4656260000000  0.4483750000000  0.5523660000000 1.0
C      1  0.5304410000000  0.5012960000000  0.5033680000000 1.0
C      1  0.5189960000000  0.5368740000000  0.4695420000000 1.0
C      1  0.4814480000000  0.4963320000000  0.4137350000000 1.0
C      1  0.4891040000000  0.4099440000000  0.5150390000000 1.0
C      1  0.5331390000000  0.4200380000000  0.5055250000000 1.0
C      1  0.5262880000000  0.4954030000000  0.5718310000000 1.0
C      1  0.4673650000000  0.4157310000000  0.4741710000000 1.0
C      1  0.5201650000000  0.4668290000000  0.5621730000000 1.0
C      1  0.4839870000000  0.5791220000000  0.5132400000000 1.0
C      1  0.5017330000000  0.4184630000000  0.5393870000000 1.0
C      1  0.5518300000000  0.5226020000000  0.4386490000000 1.0
C      1  0.4371820000000  0.5479930000000  0.5411010000000 1.0
C      1  0.4648170000000  0.4848720000000  0.5016710000000 1.0
C      1  0.4691850000000  0.5471500000000  0.4229960000000 1.0
C      1  0.5720570000000  0.5391750000000  0.5381630000000 1.0
C      1  0.5490150000000  0.5348710000000  0.5543650000000 1.0
C      1  0.4731570000000  0.4513400000000  0.4426880000000 1.0
C      1  0.4420320000000  0.5592620000000  0.4920660000000 1.0
C      1  0.4197710000000  0.5194120000000  0.5100020000000 1.0
C      1  0.5013970000000  0.4588720000000  0.5125690000000 1.0
C      1  0.5785440000000  0.5625440000000  0.5265270000000 1.0
C      1  0.5249520000000  0.5489220000000  0.5427240000000 1.0
C      1  0.5105750000000  0.5647440000000  0.4757260000000 1.0
C      1  0.4773590000000  0.5145680000000  0.4989110000000 1.0
C      1  0.4955810000000  0.5739410000000  0.4540730000000 1.0
C      1  0.4948810000000  0.5420660000000  0.5768160000000 1.0
C      1  0.5030420000000  0.4492250000000  0.5754320000000 1.0
C      1  0.5086580000000  0.4098000000000  0.4941620000000 1.0
C      1  0.5094690000000  0.5123540000000  0.4875460000000 1.0
C      1  0.5013970000000  0.4896240000000  0.4707330000000 1.0
C      1  0.5792180000000  0.4966760000000  0.4814770000000 1.0
C      1  0.5750600000000  0.4935770000000  0.4535970000000 1.0
C      1  0.4555590000000  0.5183940000000  0.5722950000000 1.0
C      1  0.5315120000000  0.5642470000000  0.5181710000000 1.0
C      1  0.5238420000000  0.4443330000000  0.4416440000000 1.0
C      1  0.5648080000000  0.5408400000000  0.4859390000000 1.0
C      1  0.5776960000000  0.5121430000000  0.4336470000000 1.0
C      1  0.4632550000000  0.4142090000000  0.5026770000000 1.0
C      1  0.4507460000000  0.4808130000000  0.5287890000000 1.0
C      1  0.4730900000000  0.4783150000000  0.5504390000000 1.0
C      1  0.5021780000000  0.5128710000000  0.5699110000000 1.0
C      1  0.4545810000000  0.4377750000000  0.4611410000000 1.0
C      1  0.4803860000000  0.5039020000000  0.4538710000000 1.0
C      1  0.5803750000000  0.5192770000000  0.4966800000000 1.0
C      1  0.4583850000000  0.5614380000000  0.5540380000000 1.0
END
