TITL C-176643-4532-5 13.3106656062093 125000 -371.329672713046 0 0 55 (C1) n - 1
REM
REM in /rds/project/t2_vol4/rds-t2-cs072/BORA/CARBON/from-Arr/AIRSS/Generating-Clusters/GAP-ML-2020/Only-C1/SD-CG/HFTN-CG
REM
REM
REM
REM
REM
REM ./C.cell (11c1c37f851c82e70ff6c80c92926a4b)
REM AIRSS Version 0.9.1 bugfix July 2018 build 013d7b7c2542+ Fri, 06 Jul 2018 19:26:36 +0100
REM compiler GCC version 9.3.0
REM options -cpp -mtune=generic -march=x86-64 -g -O0
REM seed 1858177419 -378406139 -640221554 -1541610037 -1159709582 1505313082 -1688797067 -1700254417 77904705 -1511368304 463867799 1537924008 1315260607 -1143729933 -1489905555 1998227711 1301064214 -1625532625 -1162381234 -1416330471 1945357211 1957443532 -807815558 -1930989088 880511611 -1541048653 -1807628044 -1811485474 1952287629 -493014658 414596911 -1463795863 2142380822
REM
CELL 1.54180   50.00000   50.00000   50.00000   90.00000   90.00000   90.00000
LATT -1
SFAC C  
C      1  0.5662190000000  0.5387130000000  0.5386120000000 1.0
C      1  0.4884430000000  0.5097960000000  0.5300050000000 1.0
C      1  0.4623110000000  0.5594220000000  0.5180800000000 1.0
C      1  0.5020990000000  0.5494910000000  0.4382610000000 1.0
C      1  0.4615280000000  0.5002450000000  0.5372730000000 1.0
C      1  0.4393050000000  0.5382540000000  0.5125920000000 1.0
C      1  0.5526090000000  0.5051010000000  0.4743860000000 1.0
C      1  0.4680480000000  0.5199100000000  0.4569140000000 1.0
C      1  0.5508680000000  0.5289240000000  0.4912750000000 1.0
C      1  0.4379740000000  0.4713820000000  0.4429160000000 1.0
C      1  0.5655440000000  0.5231000000000  0.5152140000000 1.0
C      1  0.5363650000000  0.4655870000000  0.4586290000000 1.0
C      1  0.5510510000000  0.4873670000000  0.5582180000000 1.0
C      1  0.5073660000000  0.4884860000000  0.5228680000000 1.0
C      1  0.4332570000000  0.5240630000000  0.4896590000000 1.0
C      1  0.5081350000000  0.4983450000000  0.4416820000000 1.0
C      1  0.4925680000000  0.5229880000000  0.4402180000000 1.0
C      1  0.5485500000000  0.4588440000000  0.4838660000000 1.0
C      1  0.4396400000000  0.4944040000000  0.4883940000000 1.0
C      1  0.5050390000000  0.5676790000000  0.4564670000000 1.0
C      1  0.4623220000000  0.4638660000000  0.4534240000000 1.0
C      1  0.5401750000000  0.5416420000000  0.5451870000000 1.0
C      1  0.5251380000000  0.5430250000000  0.4980240000000 1.0
C      1  0.4819210000000  0.4351630000000  0.4909490000000 1.0
C      1  0.4879390000000  0.4819310000000  0.4811710000000 1.0
C      1  0.4693040000000  0.5462170000000  0.5434080000000 1.0
C      1  0.4655230000000  0.4569870000000  0.4828930000000 1.0
C      1  0.5293290000000  0.5029600000000  0.5687680000000 1.0
C      1  0.5736330000000  0.4848430000000  0.5434660000000 1.0
C      1  0.5285070000000  0.4407630000000  0.4970990000000 1.0
C      1  0.5192240000000  0.5480690000000  0.5266820000000 1.0
C      1  0.5040780000000  0.5615880000000  0.4834980000000 1.0
C      1  0.5154060000000  0.4398680000000  0.5228350000000 1.0
C      1  0.4785510000000  0.4554830000000  0.5370720000000 1.0
C      1  0.4971210000000  0.5347290000000  0.5447520000000 1.0
C      1  0.4487890000000  0.5252430000000  0.5372170000000 1.0
C      1  0.4397580000000  0.5225100000000  0.4591240000000 1.0
C      1  0.5711660000000  0.4944540000000  0.5169950000000 1.0
C      1  0.5083780000000  0.4643720000000  0.5407810000000 1.0
C      1  0.5114810000000  0.4525740000000  0.4551970000000 1.0
C      1  0.5351510000000  0.4931910000000  0.4529630000000 1.0
C      1  0.4578430000000  0.4731230000000  0.5286520000000 1.0
C      1  0.5245300000000  0.4758020000000  0.5626480000000 1.0
C      1  0.4804930000000  0.5528920000000  0.4975420000000 1.0
C      1  0.5123910000000  0.4894570000000  0.4952970000000 1.0
C      1  0.5098590000000  0.5188940000000  0.4907310000000 1.0
C      1  0.4708960000000  0.5051040000000  0.4829140000000 1.0
C      1  0.4869610000000  0.4345880000000  0.5189160000000 1.0
C      1  0.4473220000000  0.4696970000000  0.5023460000000 1.0
C      1  0.4918300000000  0.4734320000000  0.4502480000000 1.0
C      1  0.5077250000000  0.4362410000000  0.4777280000000 1.0
C      1  0.5206900000000  0.5294340000000  0.5636760000000 1.0
C      1  0.4338140000000  0.4928700000000  0.4591560000000 1.0
C      1  0.5619340000000  0.4834530000000  0.4916600000000 1.0
C      1  0.4839010000000  0.5234320000000  0.5014510000000 1.0
END
