TITL C-173956-9507-1 186.847410429115 125000 -792.616813687385 0 0 114 (C1) n - 1
REM
REM in /rds/project/t2_vol4/rds-t2-cs072/BORA/CARBON/from-Arr/AIRSS/Generating-Clusters/GAP-ML-2020/Only-C1/SD-CG/HFTN-CG
REM
REM
REM
REM
REM
REM ./C.cell (11c1c37f851c82e70ff6c80c92926a4b)
REM AIRSS Version 0.9.1 bugfix July 2018 build 013d7b7c2542+ Fri, 06 Jul 2018 19:26:36 +0100
REM compiler GCC version 9.3.0
REM options -cpp -mtune=generic -march=x86-64 -g -O0
REM seed 705931880 -1904593820 -1862870310 -512530764 -2120187173 -1459974007 -466072858 -189944392 -1294408221 -196086465 1470582077 -982750630 1260939261 551199926 -2115939732 999393081 -351045142 366241540 1935560646 -1671656451 628816714 2009188390 2123255712 -929400751 1560204575 1321991080 -316732432 2106219927 -1299054847 -1484887573 847491407 1645654572 -174778688
REM
CELL 1.54180   50.00000   50.00000   50.00000   90.00000   90.00000   90.00000
LATT -1
SFAC C  
C      1  0.5204750000000  0.5108390000000  0.5687720000000 1.0
C      1  0.4759390000000  0.4143090000000  0.4855750000000 1.0
C      1  0.5606020000000  0.4866660000000  0.5709270000000 1.0
C      1  0.4395660000000  0.5034260000000  0.5700510000000 1.0
C      1  0.4407200000000  0.5391060000000  0.4313040000000 1.0
C      1  0.4237310000000  0.5510370000000  0.5068870000000 1.0
C      1  0.4520120000000  0.4924600000000  0.5283830000000 1.0
C      1  0.5015390000000  0.5827750000000  0.5385280000000 1.0
C      1  0.4956610000000  0.5312550000000  0.4411170000000 1.0
C      1  0.5312720000000  0.5109130000000  0.4685760000000 1.0
C      1  0.5868700000000  0.4869910000000  0.4961880000000 1.0
C      1  0.5097060000000  0.5929110000000  0.4924300000000 1.0
C      1  0.4497310000000  0.5121210000000  0.4304080000000 1.0
C      1  0.5153470000000  0.4674400000000  0.5320900000000 1.0
C      1  0.4686280000000  0.4929120000000  0.5725090000000 1.0
C      1  0.4329590000000  0.4899820000000  0.4847140000000 1.0
C      1  0.5131980000000  0.4642200000000  0.4147020000000 1.0
C      1  0.5105840000000  0.4368820000000  0.5510950000000 1.0
C      1  0.4587790000000  0.4358630000000  0.5258250000000 1.0
C      1  0.5499920000000  0.5141380000000  0.5609050000000 1.0
C      1  0.5284200000000  0.4914720000000  0.4233470000000 1.0
C      1  0.4431720000000  0.4844470000000  0.4289870000000 1.0
C      1  0.4536660000000  0.4756800000000  0.5011730000000 1.0
C      1  0.4873410000000  0.4646740000000  0.4082680000000 1.0
C      1  0.4503670000000  0.5151340000000  0.4782490000000 1.0
C      1  0.5396190000000  0.4677340000000  0.5756720000000 1.0
C      1  0.5242660000000  0.5055170000000  0.4973550000000 1.0
C      1  0.4094680000000  0.5069700000000  0.5286900000000 1.0
C      1  0.4879690000000  0.4464230000000  0.5664870000000 1.0
C      1  0.5646760000000  0.5533940000000  0.5286110000000 1.0
C      1  0.5279570000000  0.4628740000000  0.5079680000000 1.0
C      1  0.4813890000000  0.5326360000000  0.5448570000000 1.0
C      1  0.5065080000000  0.5761940000000  0.4465550000000 1.0
C      1  0.4935560000000  0.4975660000000  0.5015300000000 1.0
C      1  0.5098690000000  0.5552350000000  0.5739580000000 1.0
C      1  0.5177700000000  0.4884730000000  0.4518640000000 1.0
C      1  0.4600620000000  0.5644420000000  0.4833430000000 1.0
C      1  0.5712120000000  0.4350970000000  0.4979210000000 1.0
C      1  0.5837200000000  0.4591540000000  0.5080240000000 1.0
C      1  0.5590930000000  0.4359760000000  0.5428960000000 1.0
C      1  0.5548900000000  0.4557900000000  0.4570950000000 1.0
C      1  0.4600590000000  0.5610710000000  0.4326580000000 1.0
C      1  0.4709140000000  0.4384150000000  0.4445050000000 1.0
C      1  0.5615010000000  0.5184980000000  0.4668830000000 1.0
C      1  0.5001440000000  0.5923420000000  0.4668120000000 1.0
C      1  0.5235980000000  0.4053650000000  0.4840020000000 1.0
C      1  0.5280300000000  0.4106410000000  0.5124830000000 1.0
C      1  0.4712420000000  0.4802820000000  0.5454810000000 1.0
C      1  0.4202210000000  0.4723810000000  0.4386350000000 1.0
C      1  0.5351960000000  0.5619430000000  0.5636410000000 1.0
C      1  0.5315820000000  0.5591710000000  0.4499250000000 1.0
C      1  0.4609490000000  0.5213940000000  0.5249930000000 1.0
C      1  0.4964610000000  0.4891100000000  0.5308090000000 1.0
C      1  0.4142920000000  0.5346390000000  0.5288680000000 1.0
C      1  0.5300270000000  0.5804430000000  0.5422830000000 1.0
C      1  0.4358720000000  0.4436240000000  0.4785330000000 1.0
C      1  0.4906200000000  0.5616570000000  0.5543190000000 1.0
C      1  0.4845340000000  0.4756600000000  0.4845770000000 1.0
C      1  0.4274730000000  0.4933220000000  0.5463050000000 1.0
C      1  0.5541560000000  0.4221300000000  0.5186870000000 1.0
C      1  0.4352650000000  0.5425360000000  0.4808950000000 1.0
C      1  0.4965190000000  0.4264760000000  0.4450660000000 1.0
C      1  0.5360900000000  0.5423320000000  0.4257240000000 1.0
C      1  0.4384780000000  0.4497940000000  0.5077640000000 1.0
C      1  0.4124530000000  0.4620770000000  0.5149450000000 1.0
C      1  0.5789810000000  0.4952060000000  0.4696530000000 1.0
C      1  0.5391180000000  0.5828010000000  0.4946650000000 1.0
C      1  0.4490910000000  0.5729650000000  0.4563600000000 1.0
C      1  0.5053830000000  0.4179650000000  0.5279860000000 1.0
C      1  0.5083380000000  0.5461510000000  0.4918830000000 1.0
C      1  0.4892530000000  0.5904490000000  0.5146200000000 1.0
C      1  0.5060710000000  0.5171580000000  0.5387940000000 1.0
C      1  0.4666060000000  0.4506410000000  0.5483610000000 1.0
C      1  0.4715660000000  0.5127880000000  0.4505200000000 1.0
C      1  0.4811840000000  0.5456560000000  0.4906140000000 1.0
C      1  0.5761220000000  0.4797820000000  0.5490380000000 1.0
C      1  0.5499690000000  0.5657450000000  0.4735300000000 1.0
C      1  0.5028110000000  0.5301420000000  0.5829330000000 1.0
C      1  0.5097620000000  0.4585550000000  0.4861680000000 1.0
C      1  0.5381690000000  0.4423580000000  0.5610740000000 1.0
C      1  0.5483810000000  0.5763560000000  0.5210040000000 1.0
C      1  0.4099480000000  0.4882470000000  0.5064760000000 1.0
C      1  0.4459080000000  0.5309600000000  0.5689050000000 1.0
C      1  0.5660000000000  0.5432730000000  0.4811110000000 1.0
C      1  0.5791410000000  0.4559820000000  0.5362420000000 1.0
C      1  0.5438570000000  0.4125140000000  0.4678560000000 1.0
C      1  0.4991020000000  0.4107030000000  0.4700630000000 1.0
C      1  0.5159620000000  0.4828750000000  0.5794630000000 1.0
C      1  0.5818880000000  0.5099550000000  0.5142840000000 1.0
C      1  0.4789690000000  0.4188340000000  0.5146410000000 1.0
C      1  0.4340420000000  0.5474390000000  0.5476750000000 1.0
C      1  0.5567770000000  0.4881040000000  0.4258030000000 1.0
C      1  0.5413750000000  0.4871710000000  0.5113300000000 1.0
C      1  0.4703170000000  0.4676550000000  0.4329830000000 1.0
C      1  0.4753430000000  0.5223720000000  0.5725930000000 1.0
C      1  0.4417020000000  0.5667700000000  0.5254620000000 1.0
C      1  0.5698020000000  0.4781020000000  0.4480770000000 1.0
C      1  0.4873320000000  0.5579720000000  0.4348600000000 1.0
C      1  0.5197950000000  0.5214450000000  0.4211330000000 1.0
C      1  0.4255330000000  0.4674250000000  0.4655380000000 1.0
C      1  0.5625770000000  0.4321090000000  0.4709720000000 1.0
C      1  0.5257400000000  0.4610650000000  0.4596430000000 1.0
C      1  0.4625290000000  0.5787840000000  0.5094320000000 1.0
C      1  0.5187080000000  0.5287030000000  0.5130640000000 1.0
C      1  0.5553250000000  0.5431150000000  0.5551200000000 1.0
C      1  0.4277000000000  0.5522640000000  0.4543060000000 1.0
C      1  0.5617870000000  0.4999470000000  0.5327130000000 1.0
C      1  0.5759600000000  0.5373070000000  0.5075390000000 1.0
C      1  0.4901650000000  0.4719950000000  0.5807080000000 1.0
C      1  0.4854530000000  0.4865250000000  0.4551600000000 1.0
C      1  0.4720180000000  0.5195970000000  0.4985470000000 1.0
C      1  0.4573360000000  0.4289840000000  0.4681280000000 1.0
C      1  0.5158490000000  0.5360810000000  0.4639290000000 1.0
C      1  0.5172760000000  0.4445760000000  0.4364130000000 1.0
END
