TITL C-176656-5689-7 169.074701833609 125000 -558.413019460342 0 0 81 (C1) n - 1
REM
REM in /rds/project/t2_vol4/rds-t2-cs072/BORA/CARBON/from-Arr/AIRSS/Generating-Clusters/GAP-ML-2020/Only-C1/SD-CG/HFTN-CG
REM
REM
REM
REM
REM
REM ./C.cell (11c1c37f851c82e70ff6c80c92926a4b)
REM AIRSS Version 0.9.1 bugfix July 2018 build 013d7b7c2542+ Fri, 06 Jul 2018 19:26:36 +0100
REM compiler GCC version 9.3.0
REM options -cpp -mtune=generic -march=x86-64 -g -O0
REM seed 126347185 -1986720047 636661417 771415449 -840864721 -14547007 -987857529 -876864158 -367324347 -262597710 -465388109 456116176 299647118 1297854620 -626343633 -1355903241 621099596 1001257538 236855615 1742017604 2009655381 -1765101679 256600433 527781148 -1463680253 -1827867 -835229719 -1903369712 303770405 230420024 -1881467536 2100415721 -63862652
REM
CELL 1.54180   50.00000   50.00000   50.00000   90.00000   90.00000   90.00000
LATT -1
SFAC C  
C      1  0.5547120000000  0.5328630000000  0.4616620000000 1.0
C      1  0.5011880000000  0.4713690000000  0.5326940000000 1.0
C      1  0.5517930000000  0.4624780000000  0.5599650000000 1.0
C      1  0.4746920000000  0.5390090000000  0.5620030000000 1.0
C      1  0.5050460000000  0.4743200000000  0.5822770000000 1.0
C      1  0.5439380000000  0.4895550000000  0.4485360000000 1.0
C      1  0.4819190000000  0.4963400000000  0.4183350000000 1.0
C      1  0.4790790000000  0.5116680000000  0.4797430000000 1.0
C      1  0.4586670000000  0.5541580000000  0.4532430000000 1.0
C      1  0.4851770000000  0.4733020000000  0.5599640000000 1.0
C      1  0.5501480000000  0.4442730000000  0.5122280000000 1.0
C      1  0.4585520000000  0.4888140000000  0.5574610000000 1.0
C      1  0.5711910000000  0.4912330000000  0.4895830000000 1.0
C      1  0.5017690000000  0.4917430000000  0.4746790000000 1.0
C      1  0.5638490000000  0.4625430000000  0.4920610000000 1.0
C      1  0.5749860000000  0.5093950000000  0.5121410000000 1.0
C      1  0.5105610000000  0.5390590000000  0.5190450000000 1.0
C      1  0.4460930000000  0.4652520000000  0.4342930000000 1.0
C      1  0.5035910000000  0.4304430000000  0.4879070000000 1.0
C      1  0.5671760000000  0.5365270000000  0.5088390000000 1.0
C      1  0.4869260000000  0.4312870000000  0.5355090000000 1.0
C      1  0.5566670000000  0.5481580000000  0.5325140000000 1.0
C      1  0.5396220000000  0.5724240000000  0.4880320000000 1.0
C      1  0.5018350000000  0.5792880000000  0.4761740000000 1.0
C      1  0.4544530000000  0.5516090000000  0.5221120000000 1.0
C      1  0.5180520000000  0.5250180000000  0.5848250000000 1.0
C      1  0.5166710000000  0.4998410000000  0.4460340000000 1.0
C      1  0.4542330000000  0.4902220000000  0.4238480000000 1.0
C      1  0.5614670000000  0.5045690000000  0.4646590000000 1.0
C      1  0.4461930000000  0.5120740000000  0.4667980000000 1.0
C      1  0.5329720000000  0.5467960000000  0.4473110000000 1.0
C      1  0.5384320000000  0.4615270000000  0.4491840000000 1.0
C      1  0.5714000000000  0.4805970000000  0.5542360000000 1.0
C      1  0.4705930000000  0.4475130000000  0.5523820000000 1.0
C      1  0.4764360000000  0.5583640000000  0.5390770000000 1.0
C      1  0.4597220000000  0.4417630000000  0.4282990000000 1.0
C      1  0.5091480000000  0.5291510000000  0.4439330000000 1.0
C      1  0.5213980000000  0.5012910000000  0.4946430000000 1.0
C      1  0.4790150000000  0.5605380000000  0.4740820000000 1.0
C      1  0.5029620000000  0.4805500000000  0.4289270000000 1.0
C      1  0.4616540000000  0.5368660000000  0.4313540000000 1.0
C      1  0.4301200000000  0.4846170000000  0.5050430000000 1.0
C      1  0.4477270000000  0.4631580000000  0.5162370000000 1.0
C      1  0.4557910000000  0.5553170000000  0.4945610000000 1.0
C      1  0.5482530000000  0.4490390000000  0.4716810000000 1.0
C      1  0.5289500000000  0.5529740000000  0.5408940000000 1.0
C      1  0.5259410000000  0.5709390000000  0.4625890000000 1.0
C      1  0.4868250000000  0.5253800000000  0.4242620000000 1.0
C      1  0.5116920000000  0.4556520000000  0.4413390000000 1.0
C      1  0.4684230000000  0.4341910000000  0.4534240000000 1.0
C      1  0.4457880000000  0.5133300000000  0.4372040000000 1.0
C      1  0.4811520000000  0.4277190000000  0.5079400000000 1.0
C      1  0.5412660000000  0.4438060000000  0.5396860000000 1.0
C      1  0.4961940000000  0.5352390000000  0.4729090000000 1.0
C      1  0.4281130000000  0.5090440000000  0.5169000000000 1.0
C      1  0.5319910000000  0.4344850000000  0.4912710000000 1.0
C      1  0.4974030000000  0.5150810000000  0.5259300000000 1.0
C      1  0.5169520000000  0.4943470000000  0.5227280000000 1.0
C      1  0.5729710000000  0.5045280000000  0.5416500000000 1.0
C      1  0.5215000000000  0.4960800000000  0.5894970000000 1.0
C      1  0.4766670000000  0.5047830000000  0.5084670000000 1.0
C      1  0.4891270000000  0.4675860000000  0.4827530000000 1.0
C      1  0.5201460000000  0.5313390000000  0.4923080000000 1.0
C      1  0.4403940000000  0.5274580000000  0.5323520000000 1.0
C      1  0.4548750000000  0.4384070000000  0.5002910000000 1.0
C      1  0.5143860000000  0.5797060000000  0.5025450000000 1.0
C      1  0.5606910000000  0.5288530000000  0.5534920000000 1.0
C      1  0.5352770000000  0.5372750000000  0.5652040000000 1.0
C      1  0.4416170000000  0.5417110000000  0.4732320000000 1.0
C      1  0.4945580000000  0.4420830000000  0.4625290000000 1.0
C      1  0.5128310000000  0.4437360000000  0.5394580000000 1.0
C      1  0.4483320000000  0.4407760000000  0.4736430000000 1.0
C      1  0.5331110000000  0.4719960000000  0.5804460000000 1.0
C      1  0.4927250000000  0.5364170000000  0.5819400000000 1.0
C      1  0.4356790000000  0.4640710000000  0.4621340000000 1.0
C      1  0.5512200000000  0.5453360000000  0.4875760000000 1.0
C      1  0.4546200000000  0.5170610000000  0.5555110000000 1.0
C      1  0.4787940000000  0.4748520000000  0.5105910000000 1.0
C      1  0.4319000000000  0.4876170000000  0.4768560000000 1.0
C      1  0.4482320000000  0.4638000000000  0.5452270000000 1.0
C      1  0.5037890000000  0.5664200000000  0.5271050000000 1.0
END
