TITL C-17741-6559-4 98.8477335829434 125000 -160.329942638343 0 0 25 (C1) n - 1
REM
REM in /rds/project/t2_vol4/rds-t2-cs072/BORA/CARBON/from-Arr/AIRSS/Generating-Clusters/GAP-ML-2020/Only-C1/SD-CG/HFTN-CG
REM
REM
REM
REM
REM
REM ./C.cell (11c1c37f851c82e70ff6c80c92926a4b)
REM AIRSS Version 0.9.1 bugfix July 2018 build 013d7b7c2542+ Fri, 06 Jul 2018 19:26:36 +0100
REM compiler GCC version 9.3.0
REM options -cpp -mtune=generic -march=x86-64 -g -O0
REM seed 1621360327 589342617 -513965102 -443795810 -1875088864 -189749562 -967470413 910981374 -658982564 294032796 1141307677 -1970870638 -1775440721 -705358316 -1909463996 1371433507 698503901 -1341008684 1022489147 857646251 432625169 -394413570 -879852627 -85273839 186180599 721125600 -92826638 -874662200 402789154 -1730599091 1130258716 -1965410983 382907301
REM
CELL 1.54180   50.00000   50.00000   50.00000   90.00000   90.00000   90.00000
LATT -1
SFAC C  
C      1  0.4849920000000  0.4538240000000  0.4932140000000 1.0
C      1  0.5373560000000  0.4831480000000  0.4822830000000 1.0
C      1  0.4959560000000  0.5116080000000  0.4974260000000 1.0
C      1  0.4561470000000  0.5413530000000  0.4892380000000 1.0
C      1  0.5123510000000  0.5252940000000  0.4776270000000 1.0
C      1  0.5283730000000  0.5053330000000  0.4655830000000 1.0
C      1  0.5273450000000  0.4607800000000  0.4676070000000 1.0
C      1  0.4522540000000  0.5173960000000  0.4781430000000 1.0
C      1  0.5084780000000  0.5077510000000  0.5657750000000 1.0
C      1  0.4936890000000  0.4352360000000  0.5086260000000 1.0
C      1  0.5127760000000  0.4986040000000  0.5169470000000 1.0
C      1  0.4811760000000  0.4731720000000  0.4746580000000 1.0
C      1  0.5195760000000  0.4885030000000  0.4438640000000 1.0
C      1  0.4592910000000  0.5411060000000  0.5195780000000 1.0
C      1  0.4835090000000  0.5586140000000  0.5162680000000 1.0
C      1  0.5332540000000  0.4812210000000  0.5104580000000 1.0
C      1  0.5029150000000  0.4692340000000  0.4549070000000 1.0
C      1  0.5019530000000  0.5499530000000  0.4727770000000 1.0
C      1  0.4856350000000  0.5298250000000  0.5223990000000 1.0
C      1  0.4798230000000  0.5574240000000  0.4861310000000 1.0
C      1  0.5027310000000  0.5123230000000  0.5394800000000 1.0
C      1  0.4732920000000  0.4996720000000  0.4823780000000 1.0
C      1  0.5359600000000  0.4561050000000  0.5242740000000 1.0
C      1  0.5135450000000  0.5033630000000  0.5901840000000 1.0
C      1  0.5176210000000  0.4391580000000  0.5201740000000 1.0
END
