TITL C-176672-8800-5 0.0239752382065706 125000 -382.776846002954 0 0 57 (C1) n - 1
REM
REM in /rds/project/t2_vol4/rds-t2-cs072/BORA/CARBON/from-Arr/AIRSS/Generating-Clusters/GAP-ML-2020/Only-C1/SD-CG/HFTN-CG
REM
REM
REM
REM
REM
REM ./C.cell (11c1c37f851c82e70ff6c80c92926a4b)
REM AIRSS Version 0.9.1 bugfix July 2018 build 013d7b7c2542+ Fri, 06 Jul 2018 19:26:36 +0100
REM compiler GCC version 9.3.0
REM options -cpp -mtune=generic -march=x86-64 -g -O0
REM seed 571124120 611451235 577979181 552480528 1968419977 1783321005 533021687 -1700621327 399945832 380067643 -1861082646 271402325 -642378550 629626764 874820988 1206626314 -1831205906 -2096362069 2011579162 423393435 1546069034 536257751 835724948 -1681626402 -1926898656 1265982109 2125270569 -462557302 184794687 388819013 128640382 -167617948 -183550306
REM
CELL 1.54180   50.00000   50.00000   50.00000   90.00000   90.00000   90.00000
LATT -1
SFAC C  
C      1  0.4444570000000  0.5388590000000  0.4853740000000 1.0
C      1  0.4691520000000  0.4448680000000  0.5316950000000 1.0
C      1  0.4624310000000  0.5160750000000  0.4411470000000 1.0
C      1  0.5432330000000  0.5065680000000  0.4755190000000 1.0
C      1  0.5022430000000  0.5198690000000  0.5049140000000 1.0
C      1  0.4935910000000  0.4474590000000  0.4802890000000 1.0
C      1  0.4968710000000  0.5172050000000  0.4771630000000 1.0
C      1  0.4758110000000  0.4912870000000  0.4437830000000 1.0
C      1  0.5078060000000  0.4736980000000  0.4760410000000 1.0
C      1  0.5082480000000  0.5419260000000  0.5442850000000 1.0
C      1  0.5490100000000  0.5333850000000  0.4865530000000 1.0
C      1  0.4341360000000  0.5244540000000  0.5080780000000 1.0
C      1  0.5157900000000  0.4308180000000  0.5208340000000 1.0
C      1  0.4522660000000  0.4945190000000  0.4808680000000 1.0
C      1  0.5252500000000  0.4428150000000  0.5468410000000 1.0
C      1  0.4800140000000  0.5411590000000  0.5459490000000 1.0
C      1  0.4823230000000  0.4925670000000  0.4742310000000 1.0
C      1  0.4749280000000  0.5405760000000  0.4361290000000 1.0
C      1  0.5454890000000  0.5371670000000  0.5144620000000 1.0
C      1  0.5206900000000  0.5115900000000  0.4569740000000 1.0
C      1  0.4859810000000  0.5658000000000  0.4812500000000 1.0
C      1  0.4437260000000  0.4526850000000  0.5273560000000 1.0
C      1  0.4920290000000  0.4446190000000  0.5101000000000 1.0
C      1  0.5295380000000  0.4842260000000  0.4937140000000 1.0
C      1  0.4575960000000  0.5219120000000  0.5506240000000 1.0
C      1  0.5088040000000  0.4664610000000  0.5498940000000 1.0
C      1  0.5229960000000  0.5395790000000  0.4477240000000 1.0
C      1  0.5542080000000  0.4929270000000  0.5389580000000 1.0
C      1  0.4388670000000  0.4966110000000  0.5058310000000 1.0
C      1  0.4826850000000  0.4458220000000  0.4557550000000 1.0
C      1  0.4909350000000  0.4693720000000  0.4371520000000 1.0
C      1  0.5321230000000  0.5518230000000  0.4725090000000 1.0
C      1  0.5524130000000  0.4454100000000  0.5373390000000 1.0
C      1  0.5128990000000  0.5624950000000  0.4906630000000 1.0
C      1  0.5418260000000  0.4372060000000  0.5107280000000 1.0
C      1  0.5619370000000  0.4883320000000  0.4593250000000 1.0
C      1  0.5448690000000  0.4699140000000  0.4477330000000 1.0
C      1  0.5633480000000  0.4699900000000  0.5257620000000 1.0
C      1  0.5519100000000  0.5218940000000  0.5370540000000 1.0
C      1  0.5618580000000  0.4628670000000  0.4697370000000 1.0
C      1  0.4635210000000  0.5550300000000  0.5254530000000 1.0
C      1  0.4414080000000  0.5369050000000  0.5319110000000 1.0
C      1  0.5268540000000  0.5224170000000  0.5541870000000 1.0
C      1  0.5174350000000  0.4795400000000  0.4483880000000 1.0
C      1  0.5006290000000  0.5513310000000  0.4359640000000 1.0
C      1  0.4815890000000  0.5620640000000  0.4534810000000 1.0
C      1  0.4977260000000  0.4723790000000  0.5226180000000 1.0
C      1  0.5509350000000  0.4632520000000  0.4981940000000 1.0
C      1  0.4519990000000  0.4935410000000  0.5532980000000 1.0
C      1  0.5249390000000  0.4939230000000  0.5466120000000 1.0
C      1  0.4399430000000  0.4804180000000  0.5291800000000 1.0
C      1  0.4809970000000  0.4585330000000  0.5559750000000 1.0
C      1  0.5177250000000  0.5468860000000  0.5159540000000 1.0
C      1  0.5139260000000  0.4956180000000  0.5159650000000 1.0
C      1  0.4470910000000  0.5186530000000  0.4654370000000 1.0
C      1  0.4641980000000  0.5573470000000  0.4970230000000 1.0
C      1  0.4647980000000  0.4753530000000  0.5700220000000 1.0
END
