TITL C-173942-9562-3 -0.00159166658707029 125000 -43.7962931103242 0 0 7 (C2v) n - 1
REM
REM in /rds/project/t2_vol4/rds-t2-cs072/BORA/CARBON/from-Arr/AIRSS/Generating-Clusters/GAP-ML-2020/Only-C1/SD-CG/HFTN-CG
REM
REM
REM
REM
REM
REM ./C.cell (11c1c37f851c82e70ff6c80c92926a4b)
REM AIRSS Version 0.9.1 bugfix July 2018 build 013d7b7c2542+ Fri, 06 Jul 2018 19:26:36 +0100
REM compiler GCC version 9.3.0
REM options -cpp -mtune=generic -march=x86-64 -g -O0
REM seed -1685954927 1737420180 -270715078 -1203437067 -1314414924 -76849556 -1008434358 1460984960 -1194303387 -1803157812 2036984988 -309513406 1910799269 357426149 425757210 -2019041312 -177692794 376102286 -820967593 1624655650 -568905556 421250211 -1420608463 -362857470 2103444505 -1625163419 1438488655 89917403 -671855624 -1733762479 1082742318 565630447 828744660
REM
CELL 1.54180   50.00000   50.00000   50.00000   90.00000   90.00000   90.00000
LATT -1
SFAC C  
C      1  0.4839220000000  0.4859370000000  0.4987960000000 1.0
C      1  0.5475800000000  0.5279500000000  0.4955050000000 1.0
C      1  0.4645430000000  0.4689860000000  0.4973450000000 1.0
C      1  0.4455460000000  0.4523710000000  0.4959230000000 1.0
C      1  0.5025330000000  0.5022160000000  0.5001900000000 1.0
C      1  0.5224800000000  0.5196630000000  0.5016830000000 1.0
C      1  0.5333960000000  0.5428780000000  0.5105580000000 1.0
END
