TITL C-173963-9324-2 16.2879292744414 125000 -582.17649400106 0 0 86 (C1) n - 1
REM
REM in /rds/project/t2_vol4/rds-t2-cs072/BORA/CARBON/from-Arr/AIRSS/Generating-Clusters/GAP-ML-2020/Only-C1/SD-CG/HFTN-CG
REM
REM
REM
REM
REM
REM ./C.cell (11c1c37f851c82e70ff6c80c92926a4b)
REM AIRSS Version 0.9.1 bugfix July 2018 build 013d7b7c2542+ Fri, 06 Jul 2018 19:26:36 +0100
REM compiler GCC version 9.3.0
REM options -cpp -mtune=generic -march=x86-64 -g -O0
REM seed 488156063 -1759389036 775645412 -988807970 1252048006 2131562612 871994412 -1960700855 -1624104735 -62534765 -1454973570 870331198 2128730673 590661731 1780212618 -1279693373 90321609 1644488930 -629697763 1388142537 1552701259 -333695584 -484583362 -157155220 654338451 1063994856 -1376190647 1060768154 671650051 -1574663067 1004848113 -1341688035 1139588119
REM
CELL 1.54180   50.00000   50.00000   50.00000   90.00000   90.00000   90.00000
LATT -1
SFAC C  
C      1  0.5090150000000  0.4593330000000  0.5111070000000 1.0
C      1  0.4726370000000  0.5128660000000  0.4947470000000 1.0
C      1  0.4326340000000  0.5417110000000  0.4814460000000 1.0
C      1  0.4827510000000  0.5127310000000  0.4307930000000 1.0
C      1  0.4999820000000  0.5407920000000  0.5588690000000 1.0
C      1  0.4695040000000  0.5760120000000  0.4587390000000 1.0
C      1  0.5745830000000  0.4862770000000  0.5189220000000 1.0
C      1  0.4221380000000  0.4784230000000  0.5165340000000 1.0
C      1  0.5475000000000  0.4999640000000  0.5613880000000 1.0
C      1  0.5575590000000  0.5549490000000  0.4978420000000 1.0
C      1  0.5452160000000  0.5296350000000  0.5552270000000 1.0
C      1  0.5600260000000  0.4665790000000  0.4508470000000 1.0
C      1  0.4744480000000  0.4849220000000  0.4284530000000 1.0
C      1  0.4674320000000  0.4819740000000  0.4964070000000 1.0
C      1  0.4616360000000  0.4706550000000  0.4507550000000 1.0
C      1  0.5237360000000  0.4910270000000  0.4889170000000 1.0
C      1  0.4669000000000  0.5743640000000  0.4863000000000 1.0
C      1  0.4760220000000  0.4430820000000  0.4598390000000 1.0
C      1  0.5695460000000  0.5072260000000  0.5006710000000 1.0
C      1  0.4484950000000  0.5066940000000  0.5584390000000 1.0
C      1  0.4885830000000  0.5441040000000  0.5312230000000 1.0
C      1  0.5366960000000  0.5239050000000  0.5269480000000 1.0
C      1  0.4626320000000  0.4260050000000  0.4785460000000 1.0
C      1  0.5619670000000  0.5312560000000  0.5128200000000 1.0
C      1  0.4414070000000  0.5202970000000  0.5338890000000 1.0
C      1  0.5317310000000  0.4265320000000  0.4980930000000 1.0
C      1  0.5206350000000  0.4605090000000  0.5685830000000 1.0
C      1  0.5602320000000  0.4601870000000  0.5131820000000 1.0
C      1  0.4628880000000  0.5192380000000  0.5775900000000 1.0
C      1  0.4457150000000  0.4382780000000  0.4965040000000 1.0
C      1  0.5301660000000  0.4866260000000  0.5798270000000 1.0
C      1  0.5244810000000  0.5703110000000  0.5319090000000 1.0
C      1  0.4940100000000  0.4740180000000  0.5662260000000 1.0
C      1  0.5510090000000  0.4929160000000  0.4479150000000 1.0
C      1  0.4448980000000  0.4762250000000  0.5586640000000 1.0
C      1  0.5572360000000  0.4385640000000  0.4946200000000 1.0
C      1  0.5525650000000  0.5726500000000  0.4510200000000 1.0
C      1  0.5107530000000  0.5305590000000  0.5125270000000 1.0
C      1  0.4852820000000  0.5287880000000  0.4741790000000 1.0
C      1  0.5287840000000  0.4954370000000  0.5356090000000 1.0
C      1  0.5036020000000  0.4969900000000  0.5830110000000 1.0
C      1  0.5035210000000  0.4369980000000  0.4487970000000 1.0
C      1  0.5473200000000  0.5056270000000  0.4758910000000 1.0
C      1  0.5302190000000  0.5010950000000  0.4279530000000 1.0
C      1  0.4679260000000  0.5315440000000  0.4471160000000 1.0
C      1  0.4370770000000  0.4779680000000  0.4655860000000 1.0
C      1  0.5107550000000  0.4509810000000  0.4254820000000 1.0
C      1  0.5098520000000  0.4651160000000  0.4803480000000 1.0
C      1  0.4912570000000  0.5813290000000  0.4990920000000 1.0
C      1  0.5158110000000  0.4333490000000  0.5237410000000 1.0
C      1  0.5113110000000  0.5412270000000  0.4844350000000 1.0
C      1  0.4280440000000  0.5043080000000  0.4655140000000 1.0
C      1  0.4405010000000  0.5291840000000  0.4563590000000 1.0
C      1  0.4993510000000  0.4921440000000  0.5413540000000 1.0
C      1  0.5377810000000  0.5325590000000  0.4732380000000 1.0
C      1  0.4624950000000  0.5343050000000  0.5183220000000 1.0
C      1  0.4903040000000  0.5226750000000  0.5792430000000 1.0
C      1  0.5191500000000  0.4775680000000  0.4151470000000 1.0
C      1  0.5153570000000  0.5721180000000  0.4845870000000 1.0
C      1  0.4674270000000  0.4233940000000  0.5073370000000 1.0
C      1  0.5095860000000  0.5229830000000  0.4292540000000 1.0
C      1  0.5269930000000  0.5500310000000  0.5541550000000 1.0
C      1  0.5570960000000  0.5537960000000  0.4697510000000 1.0
C      1  0.5255050000000  0.5710320000000  0.4536510000000 1.0
C      1  0.4498300000000  0.5551550000000  0.4987270000000 1.0
C      1  0.4808540000000  0.5575280000000  0.4429370000000 1.0
C      1  0.5667880000000  0.4836960000000  0.5471240000000 1.0
C      1  0.5236810000000  0.4387790000000  0.4703750000000 1.0
C      1  0.4235470000000  0.5072280000000  0.5157130000000 1.0
C      1  0.4928050000000  0.4697920000000  0.4131180000000 1.0
C      1  0.5574490000000  0.4555330000000  0.5422460000000 1.0
C      1  0.5332050000000  0.4766660000000  0.5133070000000 1.0
C      1  0.4883230000000  0.4794480000000  0.5181120000000 1.0
C      1  0.4815330000000  0.4690670000000  0.4740160000000 1.0
C      1  0.4243750000000  0.4690310000000  0.5420750000000 1.0
C      1  0.4748100000000  0.4350730000000  0.5517890000000 1.0
C      1  0.4686280000000  0.4592120000000  0.5637250000000 1.0
C      1  0.5324030000000  0.4446290000000  0.5484830000000 1.0
C      1  0.5083310000000  0.5518180000000  0.4379860000000 1.0
C      1  0.4379430000000  0.4668930000000  0.4938970000000 1.0
C      1  0.5528470000000  0.4456810000000  0.4659870000000 1.0
C      1  0.4967780000000  0.5727880000000  0.5251870000000 1.0
C      1  0.5006120000000  0.5045270000000  0.5032160000000 1.0
C      1  0.5365900000000  0.5715610000000  0.5067350000000 1.0
C      1  0.4866080000000  0.4244390000000  0.5293140000000 1.0
C      1  0.4203920000000  0.5175180000000  0.4904490000000 1.0
END
