TITL C-17744-6616-6 -0.106095094662362 125000 -255.092143505428 0 0 39 (C1) n - 1
REM
REM in /rds/project/t2_vol4/rds-t2-cs072/BORA/CARBON/from-Arr/AIRSS/Generating-Clusters/GAP-ML-2020/Only-C1/SD-CG/HFTN-CG
REM
REM
REM
REM
REM
REM ./C.cell (11c1c37f851c82e70ff6c80c92926a4b)
REM AIRSS Version 0.9.1 bugfix July 2018 build 013d7b7c2542+ Fri, 06 Jul 2018 19:26:36 +0100
REM compiler GCC version 9.3.0
REM options -cpp -mtune=generic -march=x86-64 -g -O0
REM seed 904470130 542515286 604654417 -1899041416 -932387946 -368466463 1343951631 -516542755 -1801284539 -1810386314 -1157611993 -1813816263 -627183059 -1227268431 -419056899 -1038356976 -1100773763 -1613662298 588525193 1713147326 -2011416406 89063871 -1041557711 -1533762035 -342069970 264640255 1736751279 1719487646 1899706067 -1718974887 -1892769021 -1844210879 -256196604
REM
CELL 1.54180   50.00000   50.00000   50.00000   90.00000   90.00000   90.00000
LATT -1
SFAC C  
C      1  0.4940660000000  0.5325430000000  0.4642960000000 1.0
C      1  0.5176340000000  0.5453440000000  0.5520190000000 1.0
C      1  0.4746380000000  0.5237480000000  0.5208300000000 1.0
C      1  0.5390730000000  0.5244920000000  0.4850420000000 1.0
C      1  0.5627770000000  0.4983610000000  0.5161880000000 1.0
C      1  0.4633780000000  0.4532580000000  0.5029030000000 1.0
C      1  0.5546070000000  0.4849740000000  0.4689780000000 1.0
C      1  0.5104310000000  0.5199730000000  0.4861820000000 1.0
C      1  0.5389670000000  0.4680670000000  0.4530620000000 1.0
C      1  0.5001670000000  0.5162160000000  0.4426260000000 1.0
C      1  0.4729470000000  0.5034290000000  0.5451500000000 1.0
C      1  0.4604430000000  0.4758570000000  0.5420480000000 1.0
C      1  0.4638810000000  0.4796410000000  0.4551490000000 1.0
C      1  0.4440400000000  0.5224620000000  0.4713590000000 1.0
C      1  0.5498420000000  0.5232820000000  0.5113160000000 1.0
C      1  0.4461280000000  0.4610520000000  0.5251130000000 1.0
C      1  0.5007940000000  0.4901290000000  0.4805630000000 1.0
C      1  0.4917330000000  0.5443110000000  0.5575020000000 1.0
C      1  0.5238600000000  0.5002140000000  0.5439820000000 1.0
C      1  0.4894050000000  0.4651070000000  0.5394610000000 1.0
C      1  0.5275040000000  0.5082790000000  0.4406220000000 1.0
C      1  0.4607230000000  0.5171780000000  0.4959110000000 1.0
C      1  0.5195080000000  0.4797950000000  0.4381250000000 1.0
C      1  0.5590260000000  0.4784260000000  0.4952740000000 1.0
C      1  0.4684400000000  0.5350530000000  0.4726200000000 1.0
C      1  0.5106870000000  0.4671450000000  0.4984790000000 1.0
C      1  0.5024220000000  0.5264400000000  0.5127660000000 1.0
C      1  0.4685880000000  0.5459160000000  0.5414610000000 1.0
C      1  0.5431660000000  0.4831240000000  0.5328730000000 1.0
C      1  0.4470900000000  0.5013350000000  0.4541110000000 1.0
C      1  0.4596910000000  0.4693840000000  0.4813110000000 1.0
C      1  0.5367480000000  0.4668660000000  0.5099860000000 1.0
C      1  0.4735650000000  0.4922660000000  0.4919270000000 1.0
C      1  0.4911070000000  0.4544690000000  0.5139170000000 1.0
C      1  0.4993220000000  0.4898650000000  0.5489800000000 1.0
C      1  0.5246670000000  0.5268630000000  0.5314310000000 1.0
C      1  0.5477010000000  0.5122160000000  0.4606550000000 1.0
C      1  0.4686770000000  0.5255930000000  0.5640860000000 1.0
C      1  0.4925560000000  0.4873250000000  0.4516940000000 1.0
END
