TITL C-17752-6544-6 -0.0566028194061213 125000 -393.553893629035 0 0 58 (C1) n - 1
REM
REM in /rds/project/t2_vol4/rds-t2-cs072/BORA/CARBON/from-Arr/AIRSS/Generating-Clusters/GAP-ML-2020/Only-C1/SD-CG/HFTN-CG
REM
REM
REM
REM
REM
REM ./C.cell (11c1c37f851c82e70ff6c80c92926a4b)
REM AIRSS Version 0.9.1 bugfix July 2018 build 013d7b7c2542+ Fri, 06 Jul 2018 19:26:36 +0100
REM compiler GCC version 9.3.0
REM options -cpp -mtune=generic -march=x86-64 -g -O0
REM seed -166693155 -1579425836 -1464940710 -136856383 1106561305 596733848 159000180 1717762883 1701122351 412629755 -635145667 1110369579 -1553931219 1634433336 -475223010 1752495341 -1650696373 -165187127 -1279711732 1913512316 675701649 676795543 322307497 664728169 -264711453 -1894693045 1167480306 -724709935 -1603519273 633924388 -1769286605 -590111475 -777429003
REM
CELL 1.54180   50.00000   50.00000   50.00000   90.00000   90.00000   90.00000
LATT -1
SFAC C  
C      1  0.4632640000000  0.5601530000000  0.5075090000000 1.0
C      1  0.4516420000000  0.4721520000000  0.4852730000000 1.0
C      1  0.5175330000000  0.4981050000000  0.4524980000000 1.0
C      1  0.4879480000000  0.5265160000000  0.5494020000000 1.0
C      1  0.5076170000000  0.4894470000000  0.5171310000000 1.0
C      1  0.5241120000000  0.5069920000000  0.5785290000000 1.0
C      1  0.4937290000000  0.5415750000000  0.4410750000000 1.0
C      1  0.4455100000000  0.4692450000000  0.5132060000000 1.0
C      1  0.4598550000000  0.4522720000000  0.5302720000000 1.0
C      1  0.5181010000000  0.5273380000000  0.4491930000000 1.0
C      1  0.5721670000000  0.5209580000000  0.4785780000000 1.0
C      1  0.5324280000000  0.5473780000000  0.4633470000000 1.0
C      1  0.4658470000000  0.5005760000000  0.4378340000000 1.0
C      1  0.4988930000000  0.5760310000000  0.4938030000000 1.0
C      1  0.5404790000000  0.5549480000000  0.5025070000000 1.0
C      1  0.4658240000000  0.4403930000000  0.4469690000000 1.0
C      1  0.4897210000000  0.5650570000000  0.5194060000000 1.0
C      1  0.5123710000000  0.4449590000000  0.4357000000000 1.0
C      1  0.5516360000000  0.5250450000000  0.5377280000000 1.0
C      1  0.5109790000000  0.4578030000000  0.5500740000000 1.0
C      1  0.4736310000000  0.5577910000000  0.4568870000000 1.0
C      1  0.5660450000000  0.5001510000000  0.4971310000000 1.0
C      1  0.4903000000000  0.4776150000000  0.5590150000000 1.0
C      1  0.5436370000000  0.4592650000000  0.5142010000000 1.0
C      1  0.4436510000000  0.5121310000000  0.4557080000000 1.0
C      1  0.5244000000000  0.4393830000000  0.5088500000000 1.0
C      1  0.4732460000000  0.5706190000000  0.4814090000000 1.0
C      1  0.4938880000000  0.5262980000000  0.4889590000000 1.0
C      1  0.4727140000000  0.5268110000000  0.4292130000000 1.0
C      1  0.4880250000000  0.4853650000000  0.4499790000000 1.0
C      1  0.5214720000000  0.4507290000000  0.4611790000000 1.0
C      1  0.4505130000000  0.5369670000000  0.5169450000000 1.0
C      1  0.5482180000000  0.5111330000000  0.5618360000000 1.0
C      1  0.4989200000000  0.5048410000000  0.5647710000000 1.0
C      1  0.5048980000000  0.4394220000000  0.5299970000000 1.0
C      1  0.4391410000000  0.5121410000000  0.5060170000000 1.0
C      1  0.5221890000000  0.5664190000000  0.4834500000000 1.0
C      1  0.4796140000000  0.4366090000000  0.5182710000000 1.0
C      1  0.5384030000000  0.4662920000000  0.5431220000000 1.0
C      1  0.5548500000000  0.5409100000000  0.4807560000000 1.0
C      1  0.5342680000000  0.4819100000000  0.5869300000000 1.0
C      1  0.4879080000000  0.4558190000000  0.4397770000000 1.0
C      1  0.5516590000000  0.4806450000000  0.5637040000000 1.0
C      1  0.4382440000000  0.4989940000000  0.4801330000000 1.0
C      1  0.5112770000000  0.4360700000000  0.4840460000000 1.0
C      1  0.4812540000000  0.4818700000000  0.4784240000000 1.0
C      1  0.4651200000000  0.4742630000000  0.5475840000000 1.0
C      1  0.4951000000000  0.5002370000000  0.4966680000000 1.0
C      1  0.4825720000000  0.4345960000000  0.4900390000000 1.0
C      1  0.4530350000000  0.5385890000000  0.4489190000000 1.0
C      1  0.4614560000000  0.4446470000000  0.4734190000000 1.0
C      1  0.5323340000000  0.5443230000000  0.5271110000000 1.0
C      1  0.5336840000000  0.4772970000000  0.4664140000000 1.0
C      1  0.5701440000000  0.5110270000000  0.5224300000000 1.0
C      1  0.4484790000000  0.4953670000000  0.5308800000000 1.0
C      1  0.5042480000000  0.5468890000000  0.5354390000000 1.0
C      1  0.5503310000000  0.4768830000000  0.4908490000000 1.0
C      1  0.4614740000000  0.5227410000000  0.5395050000000 1.0
END
