TITL C-17764-6626-3 -17.0385181219648 125000 -576.617556839037 0 0 84 (C1) n - 1
REM
REM in /rds/project/t2_vol4/rds-t2-cs072/BORA/CARBON/from-Arr/AIRSS/Generating-Clusters/GAP-ML-2020/Only-C1/SD-CG/HFTN-CG
REM
REM
REM
REM
REM
REM ./C.cell (11c1c37f851c82e70ff6c80c92926a4b)
REM AIRSS Version 0.9.1 bugfix July 2018 build 013d7b7c2542+ Fri, 06 Jul 2018 19:26:36 +0100
REM compiler GCC version 9.3.0
REM options -cpp -mtune=generic -march=x86-64 -g -O0
REM seed 1430079932 411702140 773863239 756417324 -1505217862 477058583 350772883 1216681675 -1664263967 1924396654 -1730023074 1658569596 229287874 -1564151642 1843647289 769190623 -1943715690 -1556486698 -733620500 -777860106 641993273 -511514319 1237410723 1651016741 -1301736128 -341504113 -213128329 2111961695 557010815 1013826138 1117478896 -1208791353 -400570169
REM
CELL 1.54180   50.00000   50.00000   50.00000   90.00000   90.00000   90.00000
LATT -1
SFAC C  
C      1  0.5438660000000  0.5533670000000  0.4811420000000 1.0
C      1  0.4245230000000  0.5356050000000  0.5306280000000 1.0
C      1  0.5022180000000  0.5656060000000  0.4631170000000 1.0
C      1  0.5479850000000  0.4539020000000  0.5369560000000 1.0
C      1  0.4355400000000  0.5077870000000  0.4703910000000 1.0
C      1  0.4401330000000  0.4821160000000  0.4539060000000 1.0
C      1  0.5298610000000  0.4575540000000  0.5590410000000 1.0
C      1  0.4863520000000  0.5696970000000  0.5290260000000 1.0
C      1  0.4799040000000  0.5031410000000  0.4313340000000 1.0
C      1  0.4168390000000  0.4751440000000  0.5049420000000 1.0
C      1  0.4900820000000  0.5457350000000  0.5690770000000 1.0
C      1  0.4725320000000  0.4389750000000  0.5133680000000 1.0
C      1  0.5251570000000  0.5677170000000  0.5394910000000 1.0
C      1  0.5499900000000  0.5035360000000  0.5620990000000 1.0
C      1  0.4469560000000  0.4359210000000  0.5059430000000 1.0
C      1  0.4381530000000  0.5241880000000  0.5536650000000 1.0
C      1  0.5638860000000  0.5026380000000  0.5375520000000 1.0
C      1  0.4613240000000  0.4561910000000  0.5640030000000 1.0
C      1  0.4525800000000  0.4815700000000  0.5679200000000 1.0
C      1  0.4157030000000  0.4899310000000  0.5305840000000 1.0
C      1  0.5084990000000  0.5257370000000  0.4951740000000 1.0
C      1  0.5409290000000  0.4846610000000  0.5017090000000 1.0
C      1  0.5384970000000  0.5504720000000  0.4523160000000 1.0
C      1  0.5775320000000  0.5221000000000  0.4780660000000 1.0
C      1  0.5403710000000  0.4419210000000  0.4754030000000 1.0
C      1  0.5245530000000  0.4416700000000  0.5208670000000 1.0
C      1  0.5160000000000  0.5575960000000  0.4906690000000 1.0
C      1  0.4310580000000  0.5370620000000  0.4656040000000 1.0
C      1  0.4347420000000  0.5548950000000  0.4868500000000 1.0
C      1  0.5617260000000  0.4835530000000  0.4564990000000 1.0
C      1  0.5039610000000  0.4915300000000  0.4210980000000 1.0
C      1  0.5123370000000  0.4844850000000  0.4685190000000 1.0
C      1  0.5086450000000  0.4425610000000  0.5459610000000 1.0
C      1  0.4998270000000  0.5671680000000  0.5540710000000 1.0
C      1  0.4830630000000  0.5210450000000  0.4552330000000 1.0
C      1  0.5651430000000  0.4411040000000  0.4908010000000 1.0
C      1  0.4712100000000  0.4860300000000  0.4921530000000 1.0
C      1  0.5465070000000  0.4780910000000  0.4300810000000 1.0
C      1  0.5039690000000  0.5022570000000  0.5768660000000 1.0
C      1  0.4811950000000  0.4528020000000  0.5416000000000 1.0
C      1  0.4515840000000  0.5566390000000  0.4640550000000 1.0
C      1  0.5302550000000  0.5007290000000  0.4261130000000 1.0
C      1  0.4618910000000  0.4817340000000  0.4362060000000 1.0
C      1  0.4776080000000  0.4577860000000  0.4384620000000 1.0
C      1  0.5119390000000  0.5287590000000  0.5781780000000 1.0
C      1  0.5780760000000  0.4628030000000  0.5000810000000 1.0
C      1  0.5857530000000  0.4791120000000  0.4775580000000 1.0
C      1  0.5615080000000  0.4763110000000  0.5222630000000 1.0
C      1  0.4426990000000  0.4570160000000  0.4681090000000 1.0
C      1  0.4966680000000  0.4727180000000  0.4899540000000 1.0
C      1  0.4169980000000  0.5008140000000  0.4914190000000 1.0
C      1  0.4655980000000  0.5116890000000  0.4780560000000 1.0
C      1  0.5348900000000  0.5213200000000  0.4482070000000 1.0
C      1  0.5979180000000  0.5028200000000  0.4812770000000 1.0
C      1  0.4287930000000  0.4518060000000  0.4932400000000 1.0
C      1  0.4311240000000  0.4962680000000  0.5550080000000 1.0
C      1  0.5172430000000  0.4706240000000  0.5123870000000 1.0
C      1  0.5384700000000  0.4345390000000  0.4469350000000 1.0
C      1  0.5102610000000  0.5138710000000  0.4674200000000 1.0
C      1  0.5385630000000  0.5301840000000  0.5667330000000 1.0
C      1  0.5302680000000  0.4537560000000  0.4298620000000 1.0
C      1  0.5139390000000  0.4918060000000  0.5338230000000 1.0
C      1  0.4889610000000  0.4424550000000  0.4886110000000 1.0
C      1  0.4716750000000  0.4987020000000  0.5170530000000 1.0
C      1  0.4691890000000  0.4454600000000  0.4632030000000 1.0
C      1  0.5394000000000  0.4744000000000  0.4741880000000 1.0
C      1  0.4670410000000  0.5301240000000  0.5562780000000 1.0
C      1  0.4856770000000  0.4871520000000  0.5383430000000 1.0
C      1  0.5434880000000  0.5461950000000  0.5438120000000 1.0
C      1  0.5264610000000  0.4860010000000  0.5637150000000 1.0
C      1  0.4770480000000  0.5008450000000  0.5638010000000 1.0
C      1  0.5279540000000  0.5111080000000  0.5127630000000 1.0
C      1  0.4791940000000  0.5241910000000  0.5047420000000 1.0
C      1  0.4681530000000  0.5465940000000  0.5244170000000 1.0
C      1  0.5533750000000  0.5278660000000  0.5223200000000 1.0
C      1  0.4781140000000  0.5511950000000  0.4567710000000 1.0
C      1  0.5628360000000  0.5388300000000  0.4959610000000 1.0
C      1  0.5606270000000  0.5122150000000  0.4571910000000 1.0
C      1  0.5109420000000  0.5731460000000  0.5143770000000 1.0
C      1  0.4118740000000  0.5149150000000  0.5162080000000 1.0
C      1  0.5180970000000  0.4328700000000  0.4937350000000 1.0
C      1  0.5026890000000  0.4628260000000  0.4245100000000 1.0
C      1  0.4402150000000  0.5519360000000  0.5145260000000 1.0
C      1  0.5216000000000  0.5708050000000  0.4443970000000 1.0
END
