TITL C-173943-9966-1 0.0580112136359036 125000 -809.256541453768 0 0 118 (C1) n - 1
REM
REM in /rds/project/t2_vol4/rds-t2-cs072/BORA/CARBON/from-Arr/AIRSS/Generating-Clusters/GAP-ML-2020/Only-C1/SD-CG/HFTN-CG
REM
REM
REM
REM
REM
REM ./C.cell (11c1c37f851c82e70ff6c80c92926a4b)
REM AIRSS Version 0.9.1 bugfix July 2018 build 013d7b7c2542+ Fri, 06 Jul 2018 19:26:36 +0100
REM compiler GCC version 9.3.0
REM options -cpp -mtune=generic -march=x86-64 -g -O0
REM seed 1352272945 1643721362 -1513822718 1679216821 1426174967 1662321059 780291374 1212347343 283156135 -857943705 1878274878 1758298588 -425201606 -202950645 -1610351589 1156023290 -1449736897 2037892703 -832287050 1699538695 1838430217 1780079626 -790555057 -1725520073 -2033926666 321260953 -1387427133 -572860990 394443014 -250402384 1135819393 1268891740 -485341395
REM
CELL 1.54180   50.00000   50.00000   50.00000   90.00000   90.00000   90.00000
LATT -1
SFAC C  
C      1  0.5255320000000  0.5854950000000  0.4797420000000 1.0
C      1  0.5174710000000  0.4711830000000  0.4360440000000 1.0
C      1  0.4482840000000  0.5565350000000  0.5382160000000 1.0
C      1  0.4724940000000  0.4688710000000  0.5473040000000 1.0
C      1  0.5286720000000  0.4849310000000  0.5729120000000 1.0
C      1  0.5991250000000  0.5152860000000  0.5339560000000 1.0
C      1  0.4623770000000  0.5036390000000  0.5820790000000 1.0
C      1  0.4315730000000  0.5582420000000  0.4733760000000 1.0
C      1  0.5426690000000  0.4288170000000  0.5206090000000 1.0
C      1  0.5871670000000  0.5144790000000  0.4853300000000 1.0
C      1  0.4968630000000  0.4473160000000  0.5531960000000 1.0
C      1  0.4635580000000  0.4090670000000  0.4735000000000 1.0
C      1  0.4211300000000  0.5016010000000  0.4455940000000 1.0
C      1  0.5798400000000  0.4741290000000  0.5183830000000 1.0
C      1  0.4514980000000  0.5670420000000  0.4539730000000 1.0
C      1  0.4886150000000  0.5009950000000  0.6013870000000 1.0
C      1  0.4664280000000  0.5205410000000  0.4808920000000 1.0
C      1  0.5651490000000  0.5030170000000  0.4683640000000 1.0
C      1  0.5088130000000  0.5352770000000  0.5714300000000 1.0
C      1  0.4902980000000  0.3989610000000  0.4757300000000 1.0
C      1  0.4533750000000  0.5306030000000  0.5740790000000 1.0
C      1  0.4718180000000  0.4935770000000  0.4360760000000 1.0
C      1  0.4510740000000  0.4677860000000  0.4718370000000 1.0
C      1  0.5452790000000  0.5276120000000  0.4729560000000 1.0
C      1  0.5009570000000  0.5250630000000  0.5979450000000 1.0
C      1  0.4604850000000  0.5118080000000  0.5094420000000 1.0
C      1  0.5706650000000  0.5527790000000  0.5353600000000 1.0
C      1  0.4894030000000  0.5174350000000  0.5205870000000 1.0
C      1  0.4731540000000  0.5428630000000  0.4211010000000 1.0
C      1  0.5429810000000  0.5545230000000  0.5431360000000 1.0
C      1  0.5844940000000  0.5440150000000  0.4851370000000 1.0
C      1  0.5563230000000  0.4923160000000  0.4179650000000 1.0
C      1  0.4907920000000  0.5411870000000  0.4783760000000 1.0
C      1  0.4579690000000  0.4266750000000  0.4511240000000 1.0
C      1  0.5659630000000  0.4700520000000  0.5456600000000 1.0
C      1  0.5610540000000  0.4299180000000  0.4977840000000 1.0
C      1  0.4822340000000  0.4924810000000  0.5625320000000 1.0
C      1  0.4002280000000  0.5180050000000  0.4983030000000 1.0
C      1  0.4377520000000  0.5288310000000  0.4703360000000 1.0
C      1  0.4373960000000  0.4918120000000  0.5681700000000 1.0
C      1  0.4971470000000  0.5899320000000  0.4754950000000 1.0
C      1  0.5382160000000  0.5377140000000  0.5649310000000 1.0
C      1  0.5046520000000  0.4261960000000  0.4324170000000 1.0
C      1  0.5006670000000  0.4692200000000  0.5103920000000 1.0
C      1  0.4273140000000  0.4537330000000  0.5325040000000 1.0
C      1  0.4844220000000  0.5168910000000  0.4228150000000 1.0
C      1  0.5187990000000  0.4264230000000  0.4771570000000 1.0
C      1  0.4892850000000  0.4522970000000  0.5813470000000 1.0
C      1  0.5133180000000  0.5207120000000  0.4295700000000 1.0
C      1  0.5019190000000  0.5811220000000  0.5477580000000 1.0
C      1  0.4137750000000  0.5079590000000  0.4748730000000 1.0
C      1  0.4056350000000  0.4906790000000  0.4987790000000 1.0
C      1  0.5292790000000  0.4960540000000  0.4220000000000 1.0
C      1  0.4915500000000  0.5612280000000  0.4322460000000 1.0
C      1  0.4467780000000  0.4236900000000  0.4938040000000 1.0
C      1  0.4372290000000  0.5297240000000  0.5295800000000 1.0
C      1  0.5505890000000  0.4783260000000  0.5090070000000 1.0
C      1  0.5524200000000  0.4777710000000  0.4797910000000 1.0
C      1  0.5555740000000  0.4889080000000  0.5647570000000 1.0
C      1  0.5815850000000  0.5300670000000  0.5492150000000 1.0
C      1  0.5062840000000  0.4570190000000  0.4824330000000 1.0
C      1  0.5363960000000  0.5685050000000  0.4355950000000 1.0
C      1  0.5523350000000  0.4380690000000  0.4462030000000 1.0
C      1  0.5604160000000  0.5185120000000  0.5657390000000 1.0
C      1  0.4329820000000  0.5180600000000  0.5576330000000 1.0
C      1  0.5090750000000  0.4060370000000  0.4967390000000 1.0
C      1  0.4867500000000  0.5977660000000  0.5022790000000 1.0
C      1  0.5162240000000  0.4147960000000  0.5220790000000 1.0
C      1  0.5281530000000  0.5802120000000  0.5076650000000 1.0
C      1  0.5727410000000  0.4581370000000  0.4479950000000 1.0
C      1  0.5156320000000  0.4654410000000  0.5378900000000 1.0
C      1  0.4687040000000  0.4346270000000  0.5210260000000 1.0
C      1  0.5248040000000  0.4757020000000  0.4678290000000 1.0
C      1  0.5621030000000  0.5520010000000  0.4690840000000 1.0
C      1  0.4807700000000  0.4658030000000  0.4674960000000 1.0
C      1  0.5475770000000  0.4253660000000  0.4722910000000 1.0
C      1  0.5159820000000  0.5262510000000  0.4632570000000 1.0
C      1  0.5014030000000  0.4793240000000  0.5848350000000 1.0
C      1  0.4402190000000  0.4644550000000  0.5578340000000 1.0
C      1  0.4236220000000  0.4738400000000  0.5125940000000 1.0
C      1  0.4984300000000  0.5424980000000  0.5083400000000 1.0
C      1  0.4617260000000  0.4515410000000  0.5713020000000 1.0
C      1  0.4430230000000  0.5764150000000  0.5180280000000 1.0
C      1  0.5216800000000  0.4938560000000  0.5458050000000 1.0
C      1  0.5428830000000  0.4555690000000  0.5318290000000 1.0
C      1  0.4472080000000  0.5490710000000  0.4315270000000 1.0
C      1  0.5178920000000  0.5518420000000  0.4260920000000 1.0
C      1  0.4868670000000  0.4674000000000  0.4374700000000 1.0
C      1  0.5698480000000  0.4862330000000  0.4405920000000 1.0
C      1  0.5938970000000  0.5002100000000  0.5113330000000 1.0
C      1  0.5442450000000  0.5297480000000  0.5043580000000 1.0
C      1  0.5699810000000  0.5482540000000  0.5081110000000 1.0
C      1  0.4409400000000  0.4403630000000  0.4704450000000 1.0
C      1  0.4722270000000  0.4646220000000  0.5180170000000 1.0
C      1  0.5349880000000  0.5022230000000  0.5173670000000 1.0
C      1  0.4409410000000  0.4300100000000  0.5215120000000 1.0
C      1  0.5278620000000  0.4439320000000  0.4313190000000 1.0
C      1  0.5068490000000  0.4096820000000  0.4544050000000 1.0
C      1  0.5790180000000  0.4608930000000  0.4748930000000 1.0
C      1  0.5821870000000  0.4492710000000  0.4996720000000 1.0
C      1  0.5456180000000  0.5740070000000  0.4611320000000 1.0
C      1  0.5076730000000  0.4986680000000  0.5046040000000 1.0
C      1  0.5066250000000  0.5922780000000  0.5230480000000 1.0
C      1  0.4931890000000  0.5605410000000  0.5626500000000 1.0
C      1  0.5094740000000  0.5005420000000  0.4747660000000 1.0
C      1  0.4324410000000  0.5272390000000  0.4406100000000 1.0
C      1  0.4442130000000  0.4843930000000  0.4463560000000 1.0
C      1  0.4607360000000  0.5957800000000  0.5102220000000 1.0
C      1  0.4787370000000  0.4395770000000  0.4338320000000 1.0
C      1  0.4511830000000  0.4804960000000  0.5030280000000 1.0
C      1  0.4986960000000  0.5120900000000  0.5491940000000 1.0
C      1  0.4814960000000  0.4969290000000  0.4671480000000 1.0
C      1  0.4137540000000  0.5389610000000  0.5123430000000 1.0
C      1  0.4930930000000  0.4252400000000  0.5353250000000 1.0
C      1  0.4648730000000  0.5530330000000  0.5611930000000 1.0
C      1  0.4821700000000  0.5688340000000  0.4594280000000 1.0
C      1  0.5265440000000  0.5512870000000  0.5159060000000 1.0
C      1  0.4235170000000  0.5631420000000  0.4999430000000 1.0
END
