TITL C-173941-9352-5 0.154553237950569 125000 -722.797499572781 0 0 102 (C1) n - 1
REM
REM in /rds/project/t2_vol4/rds-t2-cs072/BORA/CARBON/from-Arr/AIRSS/Generating-Clusters/GAP-ML-2020/Only-C1/SD-CG/HFTN-CG
REM
REM
REM
REM
REM
REM ./C.cell (11c1c37f851c82e70ff6c80c92926a4b)
REM AIRSS Version 0.9.1 bugfix July 2018 build 013d7b7c2542+ Fri, 06 Jul 2018 19:26:36 +0100
REM compiler GCC version 9.3.0
REM options -cpp -mtune=generic -march=x86-64 -g -O0
REM seed 685631125 228674663 -220230560 1127579181 761409249 859912004 53245271 -617167371 1914463736 272522812 90825745 -710697971 -1140331258 866753188 -1528792386 2118072433 1380864229 -776564216 -316151351 788243126 -1895822756 -1694667437 1036637609 31302930 1575290214 -1117231667 160905363 -2145562946 -1722927884 -1964337760 636987841 1113514058 1528460311
REM
CELL 1.54180   50.00000   50.00000   50.00000   90.00000   90.00000   90.00000
LATT -1
SFAC C  
C      1  0.4962050000000  0.5339130000000  0.5716930000000 1.0
C      1  0.5062850000000  0.5107640000000  0.4671090000000 1.0
C      1  0.4873090000000  0.5883490000000  0.4684160000000 1.0
C      1  0.5108900000000  0.4146550000000  0.4937160000000 1.0
C      1  0.4650280000000  0.4215560000000  0.5152080000000 1.0
C      1  0.4820280000000  0.4388550000000  0.4472540000000 1.0
C      1  0.5266540000000  0.4598930000000  0.4353150000000 1.0
C      1  0.5933980000000  0.5017640000000  0.4945840000000 1.0
C      1  0.4127540000000  0.5068330000000  0.4944940000000 1.0
C      1  0.4234660000000  0.4654290000000  0.5180810000000 1.0
C      1  0.4455090000000  0.5646620000000  0.5297300000000 1.0
C      1  0.5774740000000  0.4666660000000  0.5280370000000 1.0
C      1  0.4178700000000  0.4383630000000  0.5200110000000 1.0
C      1  0.4729420000000  0.4902450000000  0.5746810000000 1.0
C      1  0.4281220000000  0.5200060000000  0.5148370000000 1.0
C      1  0.4645870000000  0.5495220000000  0.4323280000000 1.0
C      1  0.5507980000000  0.4274780000000  0.4718050000000 1.0
C      1  0.4410680000000  0.5017280000000  0.4358270000000 1.0
C      1  0.5466800000000  0.4382730000000  0.5486510000000 1.0
C      1  0.4655350000000  0.5672570000000  0.5498200000000 1.0
C      1  0.5876250000000  0.5301030000000  0.4944530000000 1.0
C      1  0.5096480000000  0.4716220000000  0.5336150000000 1.0
C      1  0.5807070000000  0.5379220000000  0.5206010000000 1.0
C      1  0.4827770000000  0.4758070000000  0.4165500000000 1.0
C      1  0.4325860000000  0.5392620000000  0.5347830000000 1.0
C      1  0.4365570000000  0.5404880000000  0.4666900000000 1.0
C      1  0.4603580000000  0.5800850000000  0.4720720000000 1.0
C      1  0.4512820000000  0.4985870000000  0.5580330000000 1.0
C      1  0.4873750000000  0.5823070000000  0.5397420000000 1.0
C      1  0.5106360000000  0.5049150000000  0.4180200000000 1.0
C      1  0.5512590000000  0.4735830000000  0.4432770000000 1.0
C      1  0.5012770000000  0.5157740000000  0.5208200000000 1.0
C      1  0.5047910000000  0.5484660000000  0.4903370000000 1.0
C      1  0.5174810000000  0.5209190000000  0.4971400000000 1.0
C      1  0.4920880000000  0.4866240000000  0.4696760000000 1.0
C      1  0.5594980000000  0.4648670000000  0.5509900000000 1.0
C      1  0.4466350000000  0.5262240000000  0.5574210000000 1.0
C      1  0.5581610000000  0.5541720000000  0.5266240000000 1.0
C      1  0.5356020000000  0.4793060000000  0.4973810000000 1.0
C      1  0.5219710000000  0.4219970000000  0.5455890000000 1.0
C      1  0.5188280000000  0.5498100000000  0.5599110000000 1.0
C      1  0.4480180000000  0.5627880000000  0.4530350000000 1.0
C      1  0.5539410000000  0.4279730000000  0.5217870000000 1.0
C      1  0.4480710000000  0.4759420000000  0.5356320000000 1.0
C      1  0.4822020000000  0.4169010000000  0.4927650000000 1.0
C      1  0.5224080000000  0.5763620000000  0.4931860000000 1.0
C      1  0.4587850000000  0.5766290000000  0.5043280000000 1.0
C      1  0.5119770000000  0.4680620000000  0.5066340000000 1.0
C      1  0.5496230000000  0.4893710000000  0.5646260000000 1.0
C      1  0.5250350000000  0.5147730000000  0.4406340000000 1.0
C      1  0.4626440000000  0.5306200000000  0.4807400000000 1.0
C      1  0.5725820000000  0.4670640000000  0.4618870000000 1.0
C      1  0.4608470000000  0.5205160000000  0.4248140000000 1.0
C      1  0.4867200000000  0.4759760000000  0.4939320000000 1.0
C      1  0.4118360000000  0.5236030000000  0.4721480000000 1.0
C      1  0.5184890000000  0.4614770000000  0.5855170000000 1.0
C      1  0.4685050000000  0.4275310000000  0.4693890000000 1.0
C      1  0.4569260000000  0.5120780000000  0.5048410000000 1.0
C      1  0.4399680000000  0.4315360000000  0.5049790000000 1.0
C      1  0.4807120000000  0.5934280000000  0.5141140000000 1.0
C      1  0.4322350000000  0.4639750000000  0.4687350000000 1.0
C      1  0.4436320000000  0.4390650000000  0.4774960000000 1.0
C      1  0.4968730000000  0.4266990000000  0.5568040000000 1.0
C      1  0.4998380000000  0.5950250000000  0.4935740000000 1.0
C      1  0.5742260000000  0.5385860000000  0.4707390000000 1.0
C      1  0.5721430000000  0.4452910000000  0.5089940000000 1.0
C      1  0.4441650000000  0.4740180000000  0.4444100000000 1.0
C      1  0.5814090000000  0.5145560000000  0.5370460000000 1.0
C      1  0.5247130000000  0.4870740000000  0.5803000000000 1.0
C      1  0.5241130000000  0.4242800000000  0.4696640000000 1.0
C      1  0.4722440000000  0.4294290000000  0.5416320000000 1.0
C      1  0.4770570000000  0.5499070000000  0.5009240000000 1.0
C      1  0.4236500000000  0.5187570000000  0.4489920000000 1.0
C      1  0.4969250000000  0.4472270000000  0.5774860000000 1.0
C      1  0.5560850000000  0.5603240000000  0.4750490000000 1.0
C      1  0.5282010000000  0.4153690000000  0.5174930000000 1.0
C      1  0.4769930000000  0.5284250000000  0.5205650000000 1.0
C      1  0.5701640000000  0.4445840000000  0.4797840000000 1.0
C      1  0.4672410000000  0.4599340000000  0.4337450000000 1.0
C      1  0.5492250000000  0.5680940000000  0.5030190000000 1.0
C      1  0.4694010000000  0.5436030000000  0.5660360000000 1.0
C      1  0.5113670000000  0.4758130000000  0.4178570000000 1.0
C      1  0.5062270000000  0.5747300000000  0.4496280000000 1.0
C      1  0.5510530000000  0.5026570000000  0.4408070000000 1.0
C      1  0.4994190000000  0.5044210000000  0.5711870000000 1.0
C      1  0.4915890000000  0.5523630000000  0.4404250000000 1.0
C      1  0.5893420000000  0.4917150000000  0.5216140000000 1.0
C      1  0.5405700000000  0.5051910000000  0.4992670000000 1.0
C      1  0.5111400000000  0.4389380000000  0.4486290000000 1.0
C      1  0.4643410000000  0.4844560000000  0.5092660000000 1.0
C      1  0.5856990000000  0.4917320000000  0.4690530000000 1.0
C      1  0.4891810000000  0.5339750000000  0.4654570000000 1.0
C      1  0.4594560000000  0.4527020000000  0.5518420000000 1.0
C      1  0.4191750000000  0.4783780000000  0.4916960000000 1.0
C      1  0.5110370000000  0.5713730000000  0.5452790000000 1.0
C      1  0.4733490000000  0.4622890000000  0.5743900000000 1.0
C      1  0.5310810000000  0.5714860000000  0.4642130000000 1.0
C      1  0.5056020000000  0.4969070000000  0.5409350000000 1.0
C      1  0.5591810000000  0.5150020000000  0.5550200000000 1.0
C      1  0.5726430000000  0.5138680000000  0.4552030000000 1.0
C      1  0.4816580000000  0.5051970000000  0.4150560000000 1.0
C      1  0.5453270000000  0.5409050000000  0.5503770000000 1.0
END
