TITL C-17764-6626-5 21.0094999993772 125000 -371.251244999875 0 0 56 (C1) n - 1
REM
REM in /rds/project/t2_vol4/rds-t2-cs072/BORA/CARBON/from-Arr/AIRSS/Generating-Clusters/GAP-ML-2020/Only-C1/SD-CG/HFTN-CG
REM
REM
REM
REM
REM
REM ./C.cell (11c1c37f851c82e70ff6c80c92926a4b)
REM AIRSS Version 0.9.1 bugfix July 2018 build 013d7b7c2542+ Fri, 06 Jul 2018 19:26:36 +0100
REM compiler GCC version 9.3.0
REM options -cpp -mtune=generic -march=x86-64 -g -O0
REM seed -601932817 1267175687 1088508406 509054208 462590815 -1384214023 1847348275 -415507202 -417123062 713378890 -490485209 -2069953228 931255914 858254280 360407493 -737744723 -1072926158 -1341217666 1273491246 660079657 924805452 2050408795 2055766743 -100421643 -63705510 889428096 1337620937 2008085610 -580837712 -2072237934 307873209 -1110563357 1679359153
REM
CELL 1.54180   50.00000   50.00000   50.00000   90.00000   90.00000   90.00000
LATT -1
SFAC C  
C      1  0.4944490000000  0.4684820000000  0.4342660000000 1.0
C      1  0.5248780000000  0.4843440000000  0.5577900000000 1.0
C      1  0.5286460000000  0.5649400000000  0.5078990000000 1.0
C      1  0.5111670000000  0.5264510000000  0.4467680000000 1.0
C      1  0.5529100000000  0.4547270000000  0.5138420000000 1.0
C      1  0.4754610000000  0.4543710000000  0.4514350000000 1.0
C      1  0.4836520000000  0.4742190000000  0.5351480000000 1.0
C      1  0.5173550000000  0.4526840000000  0.4707980000000 1.0
C      1  0.4955300000000  0.4469470000000  0.5423960000000 1.0
C      1  0.4525580000000  0.4682960000000  0.4588590000000 1.0
C      1  0.4441860000000  0.5726160000000  0.5034790000000 1.0
C      1  0.4846400000000  0.4297280000000  0.5230700000000 1.0
C      1  0.4955570000000  0.5213790000000  0.4903840000000 1.0
C      1  0.5207370000000  0.5056340000000  0.4289310000000 1.0
C      1  0.4662480000000  0.4929700000000  0.5489760000000 1.0
C      1  0.5251440000000  0.5516650000000  0.5341310000000 1.0
C      1  0.5625690000000  0.4898320000000  0.4479550000000 1.0
C      1  0.5218030000000  0.4528910000000  0.5533160000000 1.0
C      1  0.4786720000000  0.4421970000000  0.4990300000000 1.0
C      1  0.4720480000000  0.5697310000000  0.5060070000000 1.0
C      1  0.4831360000000  0.5092840000000  0.5677840000000 1.0
C      1  0.4538870000000  0.5382230000000  0.4765410000000 1.0
C      1  0.5319970000000  0.4988010000000  0.4811080000000 1.0
C      1  0.5569960000000  0.5287230000000  0.5089140000000 1.0
C      1  0.5211790000000  0.5261050000000  0.4758410000000 1.0
C      1  0.5078470000000  0.4826610000000  0.4684960000000 1.0
C      1  0.5387200000000  0.5455280000000  0.4905620000000 1.0
C      1  0.5675190000000  0.5030050000000  0.5013330000000 1.0
C      1  0.5541390000000  0.4809120000000  0.5473290000000 1.0
C      1  0.4466130000000  0.5028890000000  0.5296260000000 1.0
C      1  0.5634570000000  0.4830040000000  0.5206040000000 1.0
C      1  0.4765230000000  0.5670830000000  0.5337480000000 1.0
C      1  0.4725290000000  0.4720690000000  0.5070610000000 1.0
C      1  0.4994540000000  0.5542370000000  0.5468170000000 1.0
C      1  0.5192330000000  0.4840710000000  0.5056410000000 1.0
C      1  0.4575170000000  0.5199900000000  0.4543600000000 1.0
C      1  0.5096700000000  0.4888160000000  0.5325890000000 1.0
C      1  0.5468450000000  0.4511430000000  0.5415860000000 1.0
C      1  0.4413740000000  0.5314190000000  0.5280530000000 1.0
C      1  0.5082920000000  0.4987830000000  0.5753090000000 1.0
C      1  0.4458820000000  0.4844860000000  0.5069530000000 1.0
C      1  0.4445610000000  0.4945800000000  0.4565050000000 1.0
C      1  0.5219040000000  0.4609880000000  0.4414640000000 1.0
C      1  0.4371320000000  0.5462350000000  0.5008490000000 1.0
C      1  0.5595720000000  0.4946680000000  0.4742730000000 1.0
C      1  0.4578870000000  0.5468060000000  0.5456400000000 1.0
C      1  0.4920620000000  0.4913020000000  0.4919040000000 1.0
C      1  0.4823820000000  0.5184230000000  0.4410960000000 1.0
C      1  0.4905220000000  0.4411100000000  0.4724270000000 1.0
C      1  0.5301530000000  0.4573800000000  0.4975670000000 1.0
C      1  0.4803740000000  0.5360000000000  0.5600830000000 1.0
C      1  0.5456810000000  0.5314770000000  0.5333770000000 1.0
C      1  0.4372310000000  0.4810350000000  0.4801830000000 1.0
C      1  0.5388990000000  0.4845060000000  0.4344990000000 1.0
C      1  0.4777850000000  0.5446400000000  0.4894530000000 1.0
C      1  0.4928370000000  0.4955160000000  0.4259470000000 1.0
END
