TITL C-173939-2912-5 7.28107161426652 125000 -256.109968350375 0 0 39 (C1) n - 1
REM
REM in /rds/project/t2_vol4/rds-t2-cs072/BORA/CARBON/from-Arr/AIRSS/Generating-Clusters/GAP-ML-2020/Only-C1/SD-CG/HFTN-CG
REM
REM
REM
REM
REM
REM ./C.cell (11c1c37f851c82e70ff6c80c92926a4b)
REM AIRSS Version 0.9.1 bugfix July 2018 build 013d7b7c2542+ Fri, 06 Jul 2018 19:26:36 +0100
REM compiler GCC version 9.3.0
REM options -cpp -mtune=generic -march=x86-64 -g -O0
REM seed -799174610 1063534441 886445013 1458490121 1619027096 288524362 -312148893 1149762511 1670066005 -1105569881 1698715573 -654032251 174151212 197159364 546467932 244192233 631797069 -680328639 -484441559 1052476264 -2107062313 757105338 -935938989 -206934106 1649862907 934548324 1224239737 946779935 368001827 -604560694 -1612279453 629286943 -400636818
REM
CELL 1.54180   50.00000   50.00000   50.00000   90.00000   90.00000   90.00000
LATT -1
SFAC C  
C      1  0.5369000000000  0.5171870000000  0.5472670000000 1.0
C      1  0.5051670000000  0.4328640000000  0.5223200000000 1.0
C      1  0.5148160000000  0.5354810000000  0.5391880000000 1.0
C      1  0.4738870000000  0.4588190000000  0.4975320000000 1.0
C      1  0.4842070000000  0.4670120000000  0.5468270000000 1.0
C      1  0.4496060000000  0.5434730000000  0.5306270000000 1.0
C      1  0.4642840000000  0.5501840000000  0.5104710000000 1.0
C      1  0.5156600000000  0.5699830000000  0.5016460000000 1.0
C      1  0.5278650000000  0.4945420000000  0.5590560000000 1.0
C      1  0.4605300000000  0.4962830000000  0.4654130000000 1.0
C      1  0.5285160000000  0.4487000000000  0.4486200000000 1.0
C      1  0.4704920000000  0.4986500000000  0.5162680000000 1.0
C      1  0.5075710000000  0.5259330000000  0.5122380000000 1.0
C      1  0.5364430000000  0.4692470000000  0.4651370000000 1.0
C      1  0.4670030000000  0.4713750000000  0.5227820000000 1.0
C      1  0.4934820000000  0.5260870000000  0.4471830000000 1.0
C      1  0.5031540000000  0.4967570000000  0.4794980000000 1.0
C      1  0.4956590000000  0.5446710000000  0.4694810000000 1.0
C      1  0.5390620000000  0.4962120000000  0.4542920000000 1.0
C      1  0.4948170000000  0.4415440000000  0.5450010000000 1.0
C      1  0.4655040000000  0.5215010000000  0.5363090000000 1.0
C      1  0.4751780000000  0.5070330000000  0.4886810000000 1.0
C      1  0.4768990000000  0.4512180000000  0.4499590000000 1.0
C      1  0.4880490000000  0.5204930000000  0.5538950000000 1.0
C      1  0.5184650000000  0.5604180000000  0.5255640000000 1.0
C      1  0.5009100000000  0.4979490000000  0.5234950000000 1.0
C      1  0.4840610000000  0.5346200000000  0.4942120000000 1.0
C      1  0.5201000000000  0.4708410000000  0.4893760000000 1.0
C      1  0.4989040000000  0.4931850000000  0.5536100000000 1.0
C      1  0.5016930000000  0.4488870000000  0.4994950000000 1.0
C      1  0.5438560000000  0.4931040000000  0.5357260000000 1.0
C      1  0.5451110000000  0.5146450000000  0.4719560000000 1.0
C      1  0.5089930000000  0.5681450000000  0.4759720000000 1.0
C      1  0.5024460000000  0.4483060000000  0.4480490000000 1.0
C      1  0.5096600000000  0.5031170000000  0.4522930000000 1.0
C      1  0.5285380000000  0.4888080000000  0.5113610000000 1.0
C      1  0.5261550000000  0.5128630000000  0.4935140000000 1.0
C      1  0.4668730000000  0.4676490000000  0.4703790000000 1.0
C      1  0.4694830000000  0.5122130000000  0.4453070000000 1.0
END
