TITL C-173951-9600-1 100.168303578496 125000 -321.399236409286 0 0 48 (C1) n - 1
REM
REM in /rds/project/t2_vol4/rds-t2-cs072/BORA/CARBON/from-Arr/AIRSS/Generating-Clusters/GAP-ML-2020/Only-C1/SD-CG/HFTN-CG
REM
REM
REM
REM
REM
REM ./C.cell (11c1c37f851c82e70ff6c80c92926a4b)
REM AIRSS Version 0.9.1 bugfix July 2018 build 013d7b7c2542+ Fri, 06 Jul 2018 19:26:36 +0100
REM compiler GCC version 9.3.0
REM options -cpp -mtune=generic -march=x86-64 -g -O0
REM seed -1627219992 -745278711 -1356818740 725597718 1206496826 1663449969 1499105191 1757203877 -2095564364 -1070946436 -1284837182 2141285623 -1266516648 14113873 -1879082952 -841548563 1665970254 -1552943979 897930279 989712552 735936233 87933002 -1647798429 -2134208 961472875 1768708091 273840898 -986331742 1790334991 643974093 -1137003816 -570888443 -2051664475
REM
CELL 1.54180   50.00000   50.00000   50.00000   90.00000   90.00000   90.00000
LATT -1
SFAC C  
C      1  0.5329200000000  0.5206590000000  0.4446680000000 1.0
C      1  0.5339010000000  0.4656170000000  0.5327410000000 1.0
C      1  0.4960270000000  0.4857340000000  0.5041970000000 1.0
C      1  0.4725130000000  0.4947560000000  0.5536600000000 1.0
C      1  0.4717540000000  0.5428240000000  0.4712040000000 1.0
C      1  0.5580010000000  0.5102510000000  0.5245820000000 1.0
C      1  0.5204620000000  0.4465720000000  0.5185370000000 1.0
C      1  0.5447390000000  0.4920070000000  0.4821140000000 1.0
C      1  0.5250150000000  0.5416370000000  0.5318300000000 1.0
C      1  0.4448480000000  0.5344120000000  0.4972880000000 1.0
C      1  0.5577990000000  0.5079490000000  0.4468020000000 1.0
C      1  0.4954730000000  0.5254530000000  0.4750210000000 1.0
C      1  0.4819550000000  0.4674770000000  0.5478580000000 1.0
C      1  0.5545680000000  0.4823830000000  0.4572410000000 1.0
C      1  0.4603670000000  0.4531080000000  0.5351970000000 1.0
C      1  0.5190760000000  0.4759740000000  0.4282860000000 1.0
C      1  0.4665660000000  0.4331010000000  0.5167950000000 1.0
C      1  0.4411780000000  0.4728180000000  0.5274550000000 1.0
C      1  0.4913590000000  0.5163640000000  0.5549480000000 1.0
C      1  0.5096750000000  0.4403980000000  0.4920020000000 1.0
C      1  0.5155290000000  0.4843200000000  0.4811600000000 1.0
C      1  0.5529380000000  0.5150540000000  0.4976470000000 1.0
C      1  0.4968120000000  0.5321330000000  0.5287480000000 1.0
C      1  0.5309200000000  0.5573810000000  0.5088810000000 1.0
C      1  0.4481800000000  0.5004680000000  0.4597490000000 1.0
C      1  0.4498390000000  0.4987800000000  0.5373300000000 1.0
C      1  0.4458160000000  0.4822340000000  0.4998820000000 1.0
C      1  0.5077790000000  0.5720040000000  0.5061330000000 1.0
C      1  0.4853920000000  0.5589200000000  0.5158230000000 1.0
C      1  0.5377510000000  0.5054940000000  0.5607840000000 1.0
C      1  0.5333840000000  0.4632210000000  0.4484180000000 1.0
C      1  0.5230370000000  0.5346240000000  0.4673100000000 1.0
C      1  0.5500460000000  0.4864690000000  0.5402450000000 1.0
C      1  0.5044630000000  0.4698330000000  0.5291340000000 1.0
C      1  0.4652980000000  0.5548940000000  0.4968700000000 1.0
C      1  0.4725860000000  0.4716010000000  0.4895020000000 1.0
C      1  0.5415190000000  0.5401660000000  0.4887880000000 1.0
C      1  0.5127880000000  0.5014160000000  0.4359560000000 1.0
C      1  0.4876110000000  0.5140300000000  0.5053250000000 1.0
C      1  0.4302430000000  0.4881650000000  0.4771300000000 1.0
C      1  0.4797280000000  0.4424470000000  0.4950240000000 1.0
C      1  0.5456640000000  0.5280150000000  0.5437700000000 1.0
C      1  0.4725710000000  0.4856180000000  0.4632470000000 1.0
C      1  0.4482800000000  0.5270940000000  0.4686710000000 1.0
C      1  0.5130410000000  0.5086670000000  0.5697250000000 1.0
C      1  0.4554470000000  0.5113870000000  0.5109290000000 1.0
C      1  0.4968280000000  0.4996580000000  0.4598850000000 1.0
C      1  0.5183190000000  0.4564140000000  0.4715100000000 1.0
END
