TITL C-176664-6959-7 0.037306898713755 125000 -443.294489506881 0 0 66 (C1) n - 1
REM
REM in /rds/project/t2_vol4/rds-t2-cs072/BORA/CARBON/from-Arr/AIRSS/Generating-Clusters/GAP-ML-2020/Only-C1/SD-CG/HFTN-CG
REM
REM
REM
REM
REM
REM ./C.cell (11c1c37f851c82e70ff6c80c92926a4b)
REM AIRSS Version 0.9.1 bugfix July 2018 build 013d7b7c2542+ Fri, 06 Jul 2018 19:26:36 +0100
REM compiler GCC version 9.3.0
REM options -cpp -mtune=generic -march=x86-64 -g -O0
REM seed 1761068743 348775386 616053963 535199220 -145494382 1151665230 -36465413 -410012123 -98607123 -276716842 -1331070916 1015256746 -1083278085 964599831 1529017771 1971851992 -1225493722 -1905211901 -286486730 1705764962 2121434996 -913151633 525881968 497449804 -154736312 1269167461 1090978306 423374612 921370279 728694974 -876011462 -830802831 -484998088
REM
CELL 1.54180   50.00000   50.00000   50.00000   90.00000   90.00000   90.00000
LATT -1
SFAC C  
C      1  0.5114680000000  0.5087390000000  0.4722670000000 1.0
C      1  0.4442680000000  0.5219960000000  0.5487880000000 1.0
C      1  0.5423440000000  0.4751190000000  0.5080460000000 1.0
C      1  0.5585980000000  0.4769180000000  0.4566390000000 1.0
C      1  0.4482120000000  0.4943060000000  0.5563830000000 1.0
C      1  0.5395300000000  0.4620570000000  0.5544790000000 1.0
C      1  0.4691810000000  0.5718460000000  0.4838530000000 1.0
C      1  0.4343880000000  0.4899190000000  0.5069640000000 1.0
C      1  0.5301530000000  0.4549840000000  0.5296030000000 1.0
C      1  0.4358460000000  0.4767610000000  0.4837110000000 1.0
C      1  0.4861210000000  0.4717710000000  0.5547120000000 1.0
C      1  0.4700920000000  0.5394780000000  0.4489150000000 1.0
C      1  0.5446810000000  0.5265800000000  0.4491000000000 1.0
C      1  0.4969940000000  0.4305360000000  0.5044950000000 1.0
C      1  0.4606700000000  0.5631170000000  0.5103140000000 1.0
C      1  0.5118850000000  0.5079310000000  0.5338760000000 1.0
C      1  0.4951190000000  0.5635560000000  0.4764360000000 1.0
C      1  0.5422250000000  0.4875130000000  0.5620350000000 1.0
C      1  0.5172940000000  0.4410740000000  0.4433240000000 1.0
C      1  0.5144020000000  0.5268540000000  0.4456980000000 1.0
C      1  0.5482590000000  0.5370300000000  0.4758870000000 1.0
C      1  0.4522920000000  0.4694320000000  0.4627760000000 1.0
C      1  0.5685540000000  0.4809460000000  0.5216880000000 1.0
C      1  0.5328540000000  0.5062040000000  0.5145890000000 1.0
C      1  0.4991050000000  0.5082800000000  0.4294260000000 1.0
C      1  0.4804520000000  0.5238960000000  0.5004070000000 1.0
C      1  0.4703210000000  0.5340440000000  0.5447570000000 1.0
C      1  0.5263720000000  0.5252110000000  0.4919650000000 1.0
C      1  0.5101750000000  0.4825030000000  0.4354100000000 1.0
C      1  0.4592650000000  0.4493370000000  0.5264400000000 1.0
C      1  0.5494550000000  0.5607980000000  0.5156180000000 1.0
C      1  0.5652640000000  0.4927310000000  0.5459060000000 1.0
C      1  0.5171500000000  0.4823900000000  0.4643860000000 1.0
C      1  0.4322890000000  0.5195090000000  0.5106070000000 1.0
C      1  0.5044640000000  0.5595610000000  0.5238710000000 1.0
C      1  0.5552990000000  0.5017870000000  0.4428900000000 1.0
C      1  0.4692020000000  0.4460920000000  0.4700620000000 1.0
C      1  0.4791210000000  0.4865540000000  0.5283740000000 1.0
C      1  0.4851870000000  0.4769360000000  0.5019010000000 1.0
C      1  0.4820180000000  0.4462520000000  0.5444050000000 1.0
C      1  0.4847810000000  0.5146930000000  0.5279080000000 1.0
C      1  0.4652720000000  0.4945580000000  0.4598170000000 1.0
C      1  0.5203890000000  0.5078780000000  0.5618560000000 1.0
C      1  0.4545570000000  0.5508450000000  0.4699410000000 1.0
C      1  0.5496800000000  0.4760800000000  0.4304810000000 1.0
C      1  0.5096770000000  0.4254040000000  0.4809380000000 1.0
C      1  0.5062330000000  0.4391940000000  0.5293600000000 1.0
C      1  0.5603190000000  0.5552890000000  0.4929070000000 1.0
C      1  0.4723110000000  0.5123770000000  0.4389120000000 1.0
C      1  0.4771440000000  0.5593990000000  0.5320950000000 1.0
C      1  0.4924000000000  0.4344030000000  0.4582430000000 1.0
C      1  0.5246700000000  0.4613020000000  0.4248470000000 1.0
C      1  0.4213040000000  0.5288890000000  0.5349230000000 1.0
C      1  0.4521770000000  0.5367920000000  0.4972980000000 1.0
C      1  0.4481640000000  0.4772140000000  0.5311830000000 1.0
C      1  0.4969280000000  0.5496740000000  0.4513730000000 1.0
C      1  0.5320380000000  0.4387510000000  0.4685760000000 1.0
C      1  0.5393690000000  0.4667470000000  0.4775940000000 1.0
C      1  0.4850920000000  0.4997330000000  0.4830510000000 1.0
C      1  0.4724090000000  0.4900720000000  0.5722220000000 1.0
C      1  0.5300020000000  0.5555910000000  0.5358030000000 1.0
C      1  0.5037240000000  0.5452520000000  0.4979020000000 1.0
C      1  0.4737570000000  0.4482720000000  0.4992170000000 1.0
C      1  0.5361800000000  0.5319520000000  0.5507680000000 1.0
C      1  0.5551950000000  0.5163270000000  0.5345730000000 1.0
C      1  0.4956550000000  0.5027610000000  0.5772040000000 1.0
END
