TITL C-176643-4532-1 -22.4557769546943 125000 -117.585561812657 0 0 19 (C1) n - 1
REM
REM in /rds/project/t2_vol4/rds-t2-cs072/BORA/CARBON/from-Arr/AIRSS/Generating-Clusters/GAP-ML-2020/Only-C1/SD-CG/HFTN-CG
REM
REM
REM
REM
REM
REM ./C.cell (11c1c37f851c82e70ff6c80c92926a4b)
REM AIRSS Version 0.9.1 bugfix July 2018 build 013d7b7c2542+ Fri, 06 Jul 2018 19:26:36 +0100
REM compiler GCC version 9.3.0
REM options -cpp -mtune=generic -march=x86-64 -g -O0
REM seed 1261400635 -768938898 1090256566 -1409146004 1063795114 338504865 -1824234621 -1344628425 -484246933 -1216248095 1390914707 -1059925452 -975430457 404298210 101304457 1839092244 -545957884 -2028387281 -1480891388 1397270234 -1961717170 -152228401 -1921709348 1158408726 -1585756225 -1886124639 288472059 -1966966501 452932555 1660285960 -511226044 136739353 -247651848
REM
CELL 1.54180   50.00000   50.00000   50.00000   90.00000   90.00000   90.00000
LATT -1
SFAC C  
C      1  0.4814250000000  0.4800880000000  0.4760900000000 1.0
C      1  0.5319870000000  0.4935780000000  0.5218740000000 1.0
C      1  0.4806080000000  0.5304830000000  0.5202550000000 1.0
C      1  0.5212240000000  0.4767440000000  0.4997360000000 1.0
C      1  0.4942930000000  0.5287250000000  0.4713930000000 1.0
C      1  0.5283320000000  0.5303940000000  0.5059240000000 1.0
C      1  0.4617500000000  0.5449630000000  0.5315340000000 1.0
C      1  0.5270890000000  0.4709910000000  0.4735720000000 1.0
C      1  0.5115030000000  0.4908040000000  0.5413270000000 1.0
C      1  0.5474310000000  0.5180460000000  0.5183040000000 1.0
C      1  0.5071060000000  0.4859010000000  0.4620160000000 1.0
C      1  0.5071580000000  0.5119690000000  0.4523120000000 1.0
C      1  0.4864140000000  0.4543610000000  0.5246580000000 1.0
C      1  0.5018600000000  0.5332680000000  0.4979350000000 1.0
C      1  0.4909790000000  0.4778350000000  0.5036830000000 1.0
C      1  0.4584540000000  0.4926780000000  0.4664690000000 1.0
C      1  0.5028890000000  0.4619530000000  0.5431870000000 1.0
C      1  0.4895780000000  0.5013830000000  0.5253130000000 1.0
C      1  0.4699210000000  0.5158360000000  0.4644190000000 1.0
END
