TITL C-17762-6598-10 0.00185271518320403 125000 -400.590653541414 0 0 58 (C1) n - 1
REM
REM in /rds/project/t2_vol4/rds-t2-cs072/BORA/CARBON/from-Arr/AIRSS/Generating-Clusters/GAP-ML-2020/Only-C1/SD-CG/HFTN-CG
REM
REM
REM
REM
REM
REM ./C.cell (11c1c37f851c82e70ff6c80c92926a4b)
REM AIRSS Version 0.9.1 bugfix July 2018 build 013d7b7c2542+ Fri, 06 Jul 2018 19:26:36 +0100
REM compiler GCC version 9.3.0
REM options -cpp -mtune=generic -march=x86-64 -g -O0
REM seed 1764236648 -166003282 475655966 -327604277 1296262789 -1458688852 -619351024 1118918764 1388389347 -587054882 -700511051 -1341905057 1494596338 -693276144 1143071955 314129669 845508806 1593316746 1537539189 -1844146723 -1406143475 1279148686 -63812191 -1239195055 -1743778705 1424583378 1687689693 -909176899 -1563454423 -1072600807 -626162922 1956880934 -1940743197
REM
CELL 1.54180   50.00000   50.00000   50.00000   90.00000   90.00000   90.00000
LATT -1
SFAC C  
C      1  0.5101990000000  0.4985500000000  0.5777200000000 1.0
C      1  0.5455230000000  0.5329280000000  0.5144940000000 1.0
C      1  0.4628150000000  0.5106280000000  0.4416780000000 1.0
C      1  0.5327640000000  0.4904090000000  0.5354630000000 1.0
C      1  0.5235010000000  0.5475690000000  0.5264990000000 1.0
C      1  0.4461320000000  0.5027380000000  0.4652450000000 1.0
C      1  0.5070250000000  0.5383840000000  0.5481320000000 1.0
C      1  0.5149480000000  0.5378450000000  0.4416850000000 1.0
C      1  0.5519990000000  0.4519280000000  0.5019630000000 1.0
C      1  0.4610690000000  0.5366820000000  0.5254640000000 1.0
C      1  0.5145270000000  0.4241640000000  0.5252910000000 1.0
C      1  0.4463020000000  0.4636310000000  0.5205910000000 1.0
C      1  0.5472130000000  0.5403420000000  0.4868020000000 1.0
C      1  0.4596170000000  0.5353310000000  0.4300320000000 1.0
C      1  0.5137700000000  0.4898570000000  0.4429370000000 1.0
C      1  0.5182710000000  0.4662670000000  0.4594660000000 1.0
C      1  0.5066680000000  0.4573850000000  0.5567750000000 1.0
C      1  0.5376200000000  0.4402630000000  0.5252800000000 1.0
C      1  0.4843730000000  0.4908210000000  0.4385400000000 1.0
C      1  0.4895370000000  0.4246280000000  0.5099260000000 1.0
C      1  0.5108730000000  0.5592530000000  0.4583320000000 1.0
C      1  0.4806500000000  0.4965390000000  0.5406050000000 1.0
C      1  0.4476830000000  0.5484960000000  0.4829220000000 1.0
C      1  0.4860750000000  0.5691660000000  0.4969660000000 1.0
C      1  0.5336050000000  0.5025880000000  0.5621710000000 1.0
C      1  0.5754930000000  0.4652410000000  0.5037630000000 1.0
C      1  0.4569450000000  0.4604630000000  0.4937660000000 1.0
C      1  0.4973320000000  0.4319870000000  0.5488980000000 1.0
C      1  0.4854650000000  0.5687400000000  0.4682240000000 1.0
C      1  0.5038880000000  0.4909410000000  0.5204570000000 1.0
C      1  0.5291780000000  0.5147320000000  0.4455580000000 1.0
C      1  0.5124450000000  0.5635150000000  0.5056660000000 1.0
C      1  0.4925080000000  0.4815550000000  0.5640920000000 1.0
C      1  0.5060610000000  0.5071580000000  0.4965110000000 1.0
C      1  0.5490250000000  0.5150290000000  0.4691250000000 1.0
C      1  0.4400590000000  0.5212280000000  0.4861090000000 1.0
C      1  0.5754590000000  0.5036310000000  0.4751770000000 1.0
C      1  0.5188600000000  0.5247760000000  0.5701640000000 1.0
C      1  0.5306810000000  0.4681400000000  0.4868430000000 1.0
C      1  0.4620760000000  0.5572710000000  0.5060440000000 1.0
C      1  0.5752580000000  0.4929180000000  0.5005230000000 1.0
C      1  0.4505950000000  0.5593300000000  0.4331410000000 1.0
C      1  0.4725200000000  0.4281840000000  0.5343140000000 1.0
C      1  0.4734660000000  0.4681420000000  0.4516200000000 1.0
C      1  0.5056980000000  0.4662110000000  0.5046800000000 1.0
C      1  0.4531630000000  0.4757860000000  0.4706490000000 1.0
C      1  0.5495090000000  0.5039550000000  0.5152750000000 1.0
C      1  0.4887330000000  0.5199710000000  0.4832190000000 1.0
C      1  0.4930250000000  0.4533160000000  0.4639110000000 1.0
C      1  0.4597410000000  0.5606310000000  0.4601000000000 1.0
C      1  0.5282060000000  0.5596290000000  0.4815400000000 1.0
C      1  0.4489560000000  0.4408900000000  0.5363730000000 1.0
C      1  0.4815280000000  0.5270770000000  0.5416580000000 1.0
C      1  0.5322870000000  0.4617300000000  0.5441510000000 1.0
C      1  0.4844810000000  0.4481970000000  0.4923340000000 1.0
C      1  0.4532970000000  0.4911550000000  0.5277090000000 1.0
C      1  0.5352860000000  0.4976230000000  0.4894630000000 1.0
C      1  0.4460170000000  0.5144580000000  0.5139650000000 1.0
END
