TITL C-17750-6549-4 0.0274188614464311 125000 -481.895360179479 0 0 68 (C1) n - 1
REM
REM in /rds/project/t2_vol4/rds-t2-cs072/BORA/CARBON/from-Arr/AIRSS/Generating-Clusters/GAP-ML-2020/Only-C1/SD-CG/HFTN-CG
REM
REM
REM
REM
REM
REM ./C.cell (11c1c37f851c82e70ff6c80c92926a4b)
REM AIRSS Version 0.9.1 bugfix July 2018 build 013d7b7c2542+ Fri, 06 Jul 2018 19:26:36 +0100
REM compiler GCC version 9.3.0
REM options -cpp -mtune=generic -march=x86-64 -g -O0
REM seed -1128167447 -805193014 1247041481 1375237241 1434289467 -1789618390 -592929815 -727824133 -1640739815 2036568583 -487605855 445524888 1469133952 -1229803340 -452703932 -395543396 -1875533870 946238931 -1211192658 -81692956 -459828477 247294896 1957497053 -1509701444 2026379773 -1824264254 288123917 -947951237 -692258864 -1752568297 1865053618 976936313 -11544393
REM
CELL 1.54180   50.00000   50.00000   50.00000   90.00000   90.00000   90.00000
LATT -1
SFAC C  
C      1  0.5120180000000  0.4479400000000  0.5462210000000 1.0
C      1  0.5154460000000  0.5681470000000  0.4927110000000 1.0
C      1  0.4867160000000  0.5130860000000  0.4964980000000 1.0
C      1  0.5678630000000  0.5069050000000  0.5005020000000 1.0
C      1  0.5488790000000  0.4507260000000  0.4550490000000 1.0
C      1  0.4860960000000  0.4528370000000  0.4582080000000 1.0
C      1  0.5151940000000  0.4236830000000  0.4816250000000 1.0
C      1  0.5325650000000  0.4667820000000  0.4374950000000 1.0
C      1  0.5289740000000  0.4370040000000  0.5031690000000 1.0
C      1  0.5152640000000  0.4668380000000  0.4997530000000 1.0
C      1  0.5244690000000  0.5540040000000  0.4684850000000 1.0
C      1  0.4653650000000  0.5224980000000  0.4449040000000 1.0
C      1  0.5219760000000  0.4780850000000  0.5516720000000 1.0
C      1  0.5613550000000  0.5339610000000  0.4929390000000 1.0
C      1  0.4695340000000  0.5273770000000  0.5716170000000 1.0
C      1  0.5011680000000  0.5503640000000  0.4517830000000 1.0
C      1  0.4395400000000  0.4827310000000  0.5382270000000 1.0
C      1  0.4286180000000  0.5061680000000  0.5258430000000 1.0
C      1  0.4463490000000  0.4432570000000  0.5051480000000 1.0
C      1  0.4362170000000  0.4669260000000  0.5123810000000 1.0
C      1  0.5524490000000  0.4797990000000  0.5426330000000 1.0
C      1  0.5104230000000  0.4471180000000  0.4415740000000 1.0
C      1  0.5574590000000  0.4493730000000  0.5012290000000 1.0
C      1  0.4925120000000  0.5277710000000  0.4364540000000 1.0
C      1  0.4669730000000  0.4710750000000  0.4151280000000 1.0
C      1  0.4654220000000  0.5657030000000  0.5113550000000 1.0
C      1  0.4350540000000  0.5059380000000  0.4769220000000 1.0
C      1  0.4645830000000  0.4817930000000  0.5517180000000 1.0
C      1  0.4967640000000  0.4711530000000  0.4791830000000 1.0
C      1  0.5479210000000  0.5078240000000  0.4576530000000 1.0
C      1  0.5627890000000  0.4915060000000  0.4767060000000 1.0
C      1  0.5620650000000  0.4629160000000  0.4769380000000 1.0
C      1  0.4937710000000  0.5422300000000  0.5750940000000 1.0
C      1  0.5312060000000  0.4948220000000  0.4376490000000 1.0
C      1  0.5078790000000  0.4974360000000  0.5703610000000 1.0
C      1  0.4269480000000  0.4924290000000  0.4999750000000 1.0
C      1  0.5360460000000  0.5396050000000  0.5568310000000 1.0
C      1  0.5312500000000  0.5654280000000  0.5166960000000 1.0
C      1  0.4370670000000  0.5325620000000  0.5294280000000 1.0
C      1  0.4954480000000  0.5628080000000  0.5548740000000 1.0
C      1  0.5087490000000  0.4835130000000  0.5231640000000 1.0
C      1  0.5464850000000  0.5349780000000  0.4687400000000 1.0
C      1  0.4544640000000  0.5411670000000  0.5504300000000 1.0
C      1  0.5541800000000  0.5483480000000  0.5155460000000 1.0
C      1  0.4429820000000  0.5476290000000  0.5056320000000 1.0
C      1  0.4654930000000  0.4703480000000  0.4438080000000 1.0
C      1  0.4781160000000  0.4994760000000  0.5691340000000 1.0
C      1  0.5628130000000  0.5038800000000  0.5296150000000 1.0
C      1  0.5326860000000  0.4369080000000  0.5323220000000 1.0
C      1  0.4869890000000  0.4307480000000  0.4802290000000 1.0
C      1  0.4390210000000  0.5349180000000  0.4805090000000 1.0
C      1  0.4707330000000  0.5624850000000  0.5396720000000 1.0
C      1  0.4811930000000  0.4935040000000  0.4790240000000 1.0
C      1  0.4781850000000  0.5614050000000  0.4654440000000 1.0
C      1  0.5555160000000  0.5303530000000  0.5382610000000 1.0
C      1  0.4854120000000  0.4429300000000  0.5301030000000 1.0
C      1  0.4814700000000  0.4700350000000  0.5325160000000 1.0
C      1  0.4583770000000  0.4957720000000  0.4589360000000 1.0
C      1  0.4725120000000  0.4334920000000  0.5053010000000 1.0
C      1  0.4856430000000  0.5706550000000  0.4911540000000 1.0
C      1  0.5219270000000  0.5620270000000  0.5440170000000 1.0
C      1  0.5560930000000  0.4553530000000  0.5291210000000 1.0
C      1  0.5279770000000  0.4311630000000  0.4579030000000 1.0
C      1  0.5064970000000  0.5047140000000  0.4263180000000 1.0
C      1  0.4883110000000  0.4863610000000  0.4145580000000 1.0
C      1  0.5070250000000  0.5099640000000  0.5114970000000 1.0
C      1  0.5170650000000  0.5250660000000  0.5738320000000 1.0
C      1  0.4564520000000  0.5442020000000  0.4605820000000 1.0
END
