TITL C-173954-9374-8 -27.9674654735963 125000 -698.300163663634 0 0 100 (C1) n - 1
REM
REM in /rds/project/t2_vol4/rds-t2-cs072/BORA/CARBON/from-Arr/AIRSS/Generating-Clusters/GAP-ML-2020/Only-C1/SD-CG/HFTN-CG
REM
REM
REM
REM
REM
REM ./C.cell (11c1c37f851c82e70ff6c80c92926a4b)
REM AIRSS Version 0.9.1 bugfix July 2018 build 013d7b7c2542+ Fri, 06 Jul 2018 19:26:36 +0100
REM compiler GCC version 9.3.0
REM options -cpp -mtune=generic -march=x86-64 -g -O0
REM seed 901445896 -373475969 24792642 1263188337 -2000142517 -1671453686 -2041428421 -449580793 -877284049 -1779300412 1591936637 -1148431796 -574220015 -1613774758 -1708739845 1365399041 -1202703360 1068897399 -1679565709 -1387232451 -1937938481 955307043 -60851453 1190145964 -1240147732 2049083843 -1863545847 1361607490 -1147843449 -1624264340 -2018831430 497587601 1679799613
REM
CELL 1.54180   50.00000   50.00000   50.00000   90.00000   90.00000   90.00000
LATT -1
SFAC C  
C      1  0.5040390000000  0.5833860000000  0.5235210000000 1.0
C      1  0.4998440000000  0.5316780000000  0.5236650000000 1.0
C      1  0.5742450000000  0.5116930000000  0.5498720000000 1.0
C      1  0.4948740000000  0.5115710000000  0.4871910000000 1.0
C      1  0.5138300000000  0.5057620000000  0.4145810000000 1.0
C      1  0.4402300000000  0.4649470000000  0.5548370000000 1.0
C      1  0.5448470000000  0.5630320000000  0.5007200000000 1.0
C      1  0.5278110000000  0.4914520000000  0.5181430000000 1.0
C      1  0.4085460000000  0.4814480000000  0.5189130000000 1.0
C      1  0.4416880000000  0.4624660000000  0.4549000000000 1.0
C      1  0.5422100000000  0.5674670000000  0.5495840000000 1.0
C      1  0.4173500000000  0.5273430000000  0.4768870000000 1.0
C      1  0.5617880000000  0.5344210000000  0.4577600000000 1.0
C      1  0.4154080000000  0.5093640000000  0.5484830000000 1.0
C      1  0.5492970000000  0.4714980000000  0.4352440000000 1.0
C      1  0.5448500000000  0.4589570000000  0.5629720000000 1.0
C      1  0.4774230000000  0.5323530000000  0.5039950000000 1.0
C      1  0.5218960000000  0.5588130000000  0.5685790000000 1.0
C      1  0.4364730000000  0.5464320000000  0.4679520000000 1.0
C      1  0.4361100000000  0.5261170000000  0.5569720000000 1.0
C      1  0.4384320000000  0.5521760000000  0.5410450000000 1.0
C      1  0.5307810000000  0.4416780000000  0.5218530000000 1.0
C      1  0.5283160000000  0.5662070000000  0.4549300000000 1.0
C      1  0.5066760000000  0.4962910000000  0.4420960000000 1.0
C      1  0.4413680000000  0.5619520000000  0.4909450000000 1.0
C      1  0.5493510000000  0.5057600000000  0.5626810000000 1.0
C      1  0.4572210000000  0.5350290000000  0.4504170000000 1.0
C      1  0.4262360000000  0.5528910000000  0.5141550000000 1.0
C      1  0.4099370000000  0.5315000000000  0.5044330000000 1.0
C      1  0.5084450000000  0.4839870000000  0.3974790000000 1.0
C      1  0.5288320000000  0.5298420000000  0.4206230000000 1.0
C      1  0.5845450000000  0.4820540000000  0.4490260000000 1.0
C      1  0.4758040000000  0.5786130000000  0.5203870000000 1.0
C      1  0.4202780000000  0.4649550000000  0.4995670000000 1.0
C      1  0.4833440000000  0.4843210000000  0.4962540000000 1.0
C      1  0.4570190000000  0.5720740000000  0.5392550000000 1.0
C      1  0.5139720000000  0.5510970000000  0.4341210000000 1.0
C      1  0.4875200000000  0.4747260000000  0.5693320000000 1.0
C      1  0.4378260000000  0.4439590000000  0.5089560000000 1.0
C      1  0.4999560000000  0.4613460000000  0.4078810000000 1.0
C      1  0.5656900000000  0.4956520000000  0.4313090000000 1.0
C      1  0.4771680000000  0.4358620000000  0.5386580000000 1.0
C      1  0.5710440000000  0.4563840000000  0.4484240000000 1.0
C      1  0.5684990000000  0.5257420000000  0.5028900000000 1.0
C      1  0.4240710000000  0.4752390000000  0.4729570000000 1.0
C      1  0.4924820000000  0.4152830000000  0.4706480000000 1.0
C      1  0.5108910000000  0.5767370000000  0.4743830000000 1.0
C      1  0.5237940000000  0.4461140000000  0.5491350000000 1.0
C      1  0.4799590000000  0.4311230000000  0.4502500000000 1.0
C      1  0.4959150000000  0.4497740000000  0.5555320000000 1.0
C      1  0.5380090000000  0.4682630000000  0.5038590000000 1.0
C      1  0.4502290000000  0.4453280000000  0.5355210000000 1.0
C      1  0.4242600000000  0.5031260000000  0.4648530000000 1.0
C      1  0.5691450000000  0.4676520000000  0.4948150000000 1.0
C      1  0.5773790000000  0.5182750000000  0.4778370000000 1.0
C      1  0.5179660000000  0.5156230000000  0.5060540000000 1.0
C      1  0.5207550000000  0.5790310000000  0.5008340000000 1.0
C      1  0.4944300000000  0.4614110000000  0.4875990000000 1.0
C      1  0.5557780000000  0.5226620000000  0.4319320000000 1.0
C      1  0.4464430000000  0.5084050000000  0.4469880000000 1.0
C      1  0.5370530000000  0.4353300000000  0.4711080000000 1.0
C      1  0.4859930000000  0.5660300000000  0.4707380000000 1.0
C      1  0.5155230000000  0.4218380000000  0.5096310000000 1.0
C      1  0.5276730000000  0.4780350000000  0.4528570000000 1.0
C      1  0.4044120000000  0.5102960000000  0.5214350000000 1.0
C      1  0.5043590000000  0.5197790000000  0.4608400000000 1.0
C      1  0.4181640000000  0.4800570000000  0.5462390000000 1.0
C      1  0.4509900000000  0.4292750000000  0.4886400000000 1.0
C      1  0.5031500000000  0.5181810000000  0.5488490000000 1.0
C      1  0.4918310000000  0.4505160000000  0.4326180000000 1.0
C      1  0.5825800000000  0.4853390000000  0.5430570000000 1.0
C      1  0.5812830000000  0.4652170000000  0.5229300000000 1.0
C      1  0.4687510000000  0.4928200000000  0.5199180000000 1.0
C      1  0.5640910000000  0.4447450000000  0.4726510000000 1.0
C      1  0.5694710000000  0.4610450000000  0.5483220000000 1.0
C      1  0.5389970000000  0.5328630000000  0.4972350000000 1.0
C      1  0.5532010000000  0.5621810000000  0.4679380000000 1.0
C      1  0.4744370000000  0.4148670000000  0.4936380000000 1.0
C      1  0.5224780000000  0.4628340000000  0.4768890000000 1.0
C      1  0.5585370000000  0.5586790000000  0.5282620000000 1.0
C      1  0.5373290000000  0.4829600000000  0.5763920000000 1.0
C      1  0.4561580000000  0.5160500000000  0.5123390000000 1.0
C      1  0.4572590000000  0.4801530000000  0.5724180000000 1.0
C      1  0.4539130000000  0.4384180000000  0.4612650000000 1.0
C      1  0.4838620000000  0.4777150000000  0.4393200000000 1.0
C      1  0.5077140000000  0.5146110000000  0.5927590000000 1.0
C      1  0.4566030000000  0.4827120000000  0.4406290000000 1.0
C      1  0.5079540000000  0.5345710000000  0.5749380000000 1.0
C      1  0.5735790000000  0.5333660000000  0.5296170000000 1.0
C      1  0.4883840000000  0.4195420000000  0.5179180000000 1.0
C      1  0.5101380000000  0.4879740000000  0.5850740000000 1.0
C      1  0.4698880000000  0.5637950000000  0.4946840000000 1.0
C      1  0.5167230000000  0.5782490000000  0.5486140000000 1.0
C      1  0.5276460000000  0.5017320000000  0.5438880000000 1.0
C      1  0.5189810000000  0.4168530000000  0.4813610000000 1.0
C      1  0.4571740000000  0.5084690000000  0.5660490000000 1.0
C      1  0.4866010000000  0.5440700000000  0.4508040000000 1.0
C      1  0.5812390000000  0.4903150000000  0.4761640000000 1.0
C      1  0.4807310000000  0.4997090000000  0.5478190000000 1.0
C      1  0.5326220000000  0.5304660000000  0.4694620000000 1.0
END
