TITL C-173950-251-5 -0.0200750349927231 125000 -524.671158703516 0 0 76 (C1) n - 1
REM
REM in /rds/project/t2_vol4/rds-t2-cs072/BORA/CARBON/from-Arr/AIRSS/Generating-Clusters/GAP-ML-2020/Only-C1/SD-CG/HFTN-CG
REM
REM
REM
REM
REM
REM ./C.cell (11c1c37f851c82e70ff6c80c92926a4b)
REM AIRSS Version 0.9.1 bugfix July 2018 build 013d7b7c2542+ Fri, 06 Jul 2018 19:26:36 +0100
REM compiler GCC version 9.3.0
REM options -cpp -mtune=generic -march=x86-64 -g -O0
REM seed -2100373244 -1824610112 38956072 573503448 -1352834884 1357530050 -1235785415 1368850174 1898331232 -511464170 1523314940 -1950524681 -7619684 1248606781 895767515 -682339996 -122646868 -1427906697 418405321 669965687 1784502444 -2051463245 1207035614 543029914 1340334427 1863019574 1411648364 1022114192 -1670475305 -857071704 -2123473013 729608092 -1015065651
REM
CELL 1.54180   50.00000   50.00000   50.00000   90.00000   90.00000   90.00000
LATT -1
SFAC C  
C      1  0.4792100000000  0.5607780000000  0.5588620000000 1.0
C      1  0.5140020000000  0.5717960000000  0.4958290000000 1.0
C      1  0.4442110000000  0.5119360000000  0.4517150000000 1.0
C      1  0.5107810000000  0.4570540000000  0.5593710000000 1.0
C      1  0.4988920000000  0.4303380000000  0.5116140000000 1.0
C      1  0.4678760000000  0.5550080000000  0.5025050000000 1.0
C      1  0.4749620000000  0.5272510000000  0.5128860000000 1.0
C      1  0.5717540000000  0.5077580000000  0.4873800000000 1.0
C      1  0.5371350000000  0.4654030000000  0.5506770000000 1.0
C      1  0.4761480000000  0.4781470000000  0.4572140000000 1.0
C      1  0.4594680000000  0.4824690000000  0.4857190000000 1.0
C      1  0.4455760000000  0.4601020000000  0.5055590000000 1.0
C      1  0.5490130000000  0.5047920000000  0.4473440000000 1.0
C      1  0.5190630000000  0.4329100000000  0.4689210000000 1.0
C      1  0.5711200000000  0.4701530000000  0.5163790000000 1.0
C      1  0.4773440000000  0.4271060000000  0.4915230000000 1.0
C      1  0.4407290000000  0.5336300000000  0.4699220000000 1.0
C      1  0.4331810000000  0.4923570000000  0.4727200000000 1.0
C      1  0.4509530000000  0.5380970000000  0.5264670000000 1.0
C      1  0.4601800000000  0.5417520000000  0.5542580000000 1.0
C      1  0.4308000000000  0.4960240000000  0.5351580000000 1.0
C      1  0.4765310000000  0.4978110000000  0.5038650000000 1.0
C      1  0.5597490000000  0.4620070000000  0.4684030000000 1.0
C      1  0.4896240000000  0.4326280000000  0.4663520000000 1.0
C      1  0.4661290000000  0.5005700000000  0.4388830000000 1.0
C      1  0.4496730000000  0.4364200000000  0.4907300000000 1.0
C      1  0.5484530000000  0.4361420000000  0.5092350000000 1.0
C      1  0.5177700000000  0.5719520000000  0.5509640000000 1.0
C      1  0.5637740000000  0.5347280000000  0.4787480000000 1.0
C      1  0.5016240000000  0.4386210000000  0.5406140000000 1.0
C      1  0.4994700000000  0.4598340000000  0.5208700000000 1.0
C      1  0.5419900000000  0.5324730000000  0.5498890000000 1.0
C      1  0.4872880000000  0.5146810000000  0.4243350000000 1.0
C      1  0.4893690000000  0.5729300000000  0.5109440000000 1.0
C      1  0.5100630000000  0.5631470000000  0.4693120000000 1.0
C      1  0.5650550000000  0.4901430000000  0.4654780000000 1.0
C      1  0.4689050000000  0.4760420000000  0.5553720000000 1.0
C      1  0.5162180000000  0.5221840000000  0.5007170000000 1.0
C      1  0.5520390000000  0.5102390000000  0.5347590000000 1.0
C      1  0.4432260000000  0.4453280000000  0.4638700000000 1.0
C      1  0.4495090000000  0.4961830000000  0.5576980000000 1.0
C      1  0.4846090000000  0.5541740000000  0.4590940000000 1.0
C      1  0.5180040000000  0.5289610000000  0.5691510000000 1.0
C      1  0.5051610000000  0.5535940000000  0.5695980000000 1.0
C      1  0.4661410000000  0.5168280000000  0.5669450000000 1.0
C      1  0.5036200000000  0.5024470000000  0.5405770000000 1.0
C      1  0.5601320000000  0.5562730000000  0.4943480000000 1.0
C      1  0.4962150000000  0.5068500000000  0.5689070000000 1.0
C      1  0.4932570000000  0.4763770000000  0.5713310000000 1.0
C      1  0.5543580000000  0.4522700000000  0.5331580000000 1.0
C      1  0.5704770000000  0.4982220000000  0.5150970000000 1.0
C      1  0.5188950000000  0.4727710000000  0.4079830000000 1.0
C      1  0.5220960000000  0.4766240000000  0.5087640000000 1.0
C      1  0.4608190000000  0.5531070000000  0.4752140000000 1.0
C      1  0.4271150000000  0.5171760000000  0.4899320000000 1.0
C      1  0.4833900000000  0.4829950000000  0.5289190000000 1.0
C      1  0.4299300000000  0.5200040000000  0.5182140000000 1.0
C      1  0.5014140000000  0.5282260000000  0.5249380000000 1.0
C      1  0.5666530000000  0.4531790000000  0.4938330000000 1.0
C      1  0.5237650000000  0.5459070000000  0.4497670000000 1.0
C      1  0.5300210000000  0.4641340000000  0.4319380000000 1.0
C      1  0.5386020000000  0.4484860000000  0.4536630000000 1.0
C      1  0.4697400000000  0.4489510000000  0.4525570000000 1.0
C      1  0.5399040000000  0.5660690000000  0.5094460000000 1.0
C      1  0.5243880000000  0.4281550000000  0.4964750000000 1.0
C      1  0.5067000000000  0.4963980000000  0.4919830000000 1.0
C      1  0.4247190000000  0.4662790000000  0.4640310000000 1.0
C      1  0.5085680000000  0.4970530000000  0.4168330000000 1.0
C      1  0.5386700000000  0.5593600000000  0.5381820000000 1.0
C      1  0.5031850000000  0.4879870000000  0.4646600000000 1.0
C      1  0.4924200000000  0.5774340000000  0.5383000000000 1.0
C      1  0.5482810000000  0.5321930000000  0.4541450000000 1.0
C      1  0.5234350000000  0.4919830000000  0.4425290000000 1.0
C      1  0.5304520000000  0.4905880000000  0.5357890000000 1.0
C      1  0.4977420000000  0.5378110000000  0.4387300000000 1.0
C      1  0.4282680000000  0.4722100000000  0.5219090000000 1.0
END
