TITL C-173940-2201-5 148.772947865114 125000 -403.072793308363 0 0 57 (C1) n - 1
REM
REM in /rds/project/t2_vol4/rds-t2-cs072/BORA/CARBON/from-Arr/AIRSS/Generating-Clusters/GAP-ML-2020/Only-C1/SD-CG/HFTN-CG
REM
REM
REM
REM
REM
REM ./C.cell (11c1c37f851c82e70ff6c80c92926a4b)
REM AIRSS Version 0.9.1 bugfix July 2018 build 013d7b7c2542+ Fri, 06 Jul 2018 19:26:36 +0100
REM compiler GCC version 9.3.0
REM options -cpp -mtune=generic -march=x86-64 -g -O0
REM seed -1848576760 1555313252 -596933342 -1303878970 -1284937251 1773298861 329469125 836388460 1317008608 1003514144 49268672 -1041083778 -1097553620 -835874909 958482751 2059866528 -1088546797 1299113198 2099092991 609955837 110327049 -2002721176 -695060679 -1096054765 -845070230 1251742110 -1202592682 -2119648562 1915871257 -2140985187 -1919094677 1409437005 -818632445
REM
CELL 1.54180   50.00000   50.00000   50.00000   90.00000   90.00000   90.00000
LATT -1
SFAC C  
C      1  0.4344520000000  0.4913240000000  0.4904130000000 1.0
C      1  0.4571050000000  0.5104270000000  0.4931270000000 1.0
C      1  0.5496800000000  0.5007180000000  0.5477700000000 1.0
C      1  0.5653090000000  0.5140010000000  0.5278760000000 1.0
C      1  0.4741240000000  0.5106310000000  0.4674760000000 1.0
C      1  0.5458080000000  0.5454600000000  0.4791990000000 1.0
C      1  0.5031070000000  0.5009710000000  0.5015390000000 1.0
C      1  0.5610130000000  0.5540380000000  0.5010070000000 1.0
C      1  0.5084850000000  0.4507470000000  0.4596980000000 1.0
C      1  0.5442100000000  0.4733480000000  0.5400050000000 1.0
C      1  0.5003490000000  0.5589820000000  0.5024950000000 1.0
C      1  0.5174210000000  0.4688650000000  0.4401460000000 1.0
C      1  0.4696990000000  0.5332610000000  0.4492570000000 1.0
C      1  0.4578550000000  0.5168770000000  0.5543440000000 1.0
C      1  0.4557470000000  0.4316880000000  0.5323160000000 1.0
C      1  0.5018430000000  0.4390530000000  0.5034550000000 1.0
C      1  0.5186630000000  0.4624510000000  0.5478960000000 1.0
C      1  0.4978690000000  0.4882480000000  0.4337300000000 1.0
C      1  0.5002720000000  0.4796240000000  0.5627180000000 1.0
C      1  0.5026350000000  0.4440600000000  0.5321940000000 1.0
C      1  0.4581840000000  0.5392440000000  0.5351650000000 1.0
C      1  0.5297430000000  0.5187340000000  0.5567050000000 1.0
C      1  0.4833000000000  0.5254290000000  0.5644760000000 1.0
C      1  0.5418650000000  0.4817610000000  0.4447980000000 1.0
C      1  0.4956000000000  0.5371570000000  0.4352640000000 1.0
C      1  0.5551470000000  0.5407920000000  0.5242390000000 1.0
C      1  0.4724660000000  0.5574540000000  0.4929980000000 1.0
C      1  0.4810970000000  0.4563120000000  0.4648360000000 1.0
C      1  0.4438010000000  0.4844330000000  0.4432630000000 1.0
C      1  0.5666510000000  0.5003910000000  0.4783110000000 1.0
C      1  0.4314910000000  0.4806900000000  0.5366060000000 1.0
C      1  0.4729820000000  0.5569780000000  0.4650880000000 1.0
C      1  0.4758780000000  0.4448190000000  0.4904770000000 1.0
C      1  0.5110100000000  0.5143990000000  0.4321350000000 1.0
C      1  0.4736090000000  0.4840150000000  0.4506560000000 1.0
C      1  0.5384660000000  0.5104600000000  0.4420300000000 1.0
C      1  0.4282350000000  0.4865750000000  0.4633270000000 1.0
C      1  0.5053040000000  0.5079990000000  0.5668570000000 1.0
C      1  0.5564930000000  0.4705770000000  0.5134950000000 1.0
C      1  0.5539760000000  0.5221360000000  0.4636620000000 1.0
C      1  0.4834250000000  0.5487450000000  0.5466120000000 1.0
C      1  0.5032970000000  0.5146020000000  0.4770400000000 1.0
C      1  0.5304830000000  0.5423090000000  0.5396620000000 1.0
C      1  0.4515250000000  0.4895090000000  0.5528370000000 1.0
C      1  0.5060980000000  0.5545950000000  0.5303800000000 1.0
C      1  0.4556120000000  0.5384930000000  0.5069590000000 1.0
C      1  0.5159010000000  0.5485830000000  0.4791830000000 1.0
C      1  0.5002400000000  0.5570030000000  0.4553520000000 1.0
C      1  0.4533720000000  0.4475120000000  0.5092120000000 1.0
C      1  0.5475600000000  0.4580370000000  0.4887360000000 1.0
C      1  0.5225620000000  0.4444300000000  0.4839870000000 1.0
C      1  0.4793410000000  0.5003050000000  0.5128960000000 1.0
C      1  0.4756470000000  0.4472200000000  0.5422140000000 1.0
C      1  0.5567720000000  0.4755560000000  0.4677870000000 1.0
C      1  0.4346540000000  0.4709120000000  0.5115380000000 1.0
C      1  0.4737070000000  0.4710540000000  0.5580420000000 1.0
C      1  0.5688590000000  0.4960090000000  0.5065120000000 1.0
END
