TITL C-173942-9562-9 -0.199390708029802 125000 -439.379067783036 0 0 65 (C1) n - 1
REM
REM in /rds/project/t2_vol4/rds-t2-cs072/BORA/CARBON/from-Arr/AIRSS/Generating-Clusters/GAP-ML-2020/Only-C1/SD-CG/HFTN-CG
REM
REM
REM
REM
REM
REM ./C.cell (11c1c37f851c82e70ff6c80c92926a4b)
REM AIRSS Version 0.9.1 bugfix July 2018 build 013d7b7c2542+ Fri, 06 Jul 2018 19:26:36 +0100
REM compiler GCC version 9.3.0
REM options -cpp -mtune=generic -march=x86-64 -g -O0
REM seed -1887663443 607248812 -1594974763 615337860 -117138697 -1259238745 40345870 -619369797 -968186398 -1202255676 791398774 -1313082457 -1830608267 1405472874 -1287817690 -1051315503 -1775207540 1094157185 -68777576 -965067284 -1874528632 -1355933039 -1694859470 -331829716 -952123294 -1088501799 -661561649 -1818803184 1247480988 -1672782274 -1676908831 -12209988 -1715751693
REM
CELL 1.54180   50.00000   50.00000   50.00000   90.00000   90.00000   90.00000
LATT -1
SFAC C  
C      1  0.5720120000000  0.4971170000000  0.4750780000000 1.0
C      1  0.4462760000000  0.5473420000000  0.5143690000000 1.0
C      1  0.4466640000000  0.4664400000000  0.5402710000000 1.0
C      1  0.4445310000000  0.5127400000000  0.5428580000000 1.0
C      1  0.5303810000000  0.5207250000000  0.5537510000000 1.0
C      1  0.4418430000000  0.5602340000000  0.4714060000000 1.0
C      1  0.4316310000000  0.4747390000000  0.5172530000000 1.0
C      1  0.5518500000000  0.4713760000000  0.5112660000000 1.0
C      1  0.4888920000000  0.5232320000000  0.5079900000000 1.0
C      1  0.4478460000000  0.5172620000000  0.4490590000000 1.0
C      1  0.4867440000000  0.5354390000000  0.5358520000000 1.0
C      1  0.5287740000000  0.5605330000000  0.4909920000000 1.0
C      1  0.4493160000000  0.4886750000000  0.4565340000000 1.0
C      1  0.4979660000000  0.4382050000000  0.5003410000000 1.0
C      1  0.4962000000000  0.4622740000000  0.5402240000000 1.0
C      1  0.4964350000000  0.4810360000000  0.5628160000000 1.0
C      1  0.5572530000000  0.4853000000000  0.5368530000000 1.0
C      1  0.4292700000000  0.4761350000000  0.4693190000000 1.0
C      1  0.5215650000000  0.4949510000000  0.5627220000000 1.0
C      1  0.4695300000000  0.4492710000000  0.5364690000000 1.0
C      1  0.5362350000000  0.4433610000000  0.4725380000000 1.0
C      1  0.4948440000000  0.5247300000000  0.4302030000000 1.0
C      1  0.4677190000000  0.5035710000000  0.5044800000000 1.0
C      1  0.4596460000000  0.5621130000000  0.4933230000000 1.0
C      1  0.5637400000000  0.4481590000000  0.4727250000000 1.0
C      1  0.5281250000000  0.4875530000000  0.4164710000000 1.0
C      1  0.5303750000000  0.5779810000000  0.5141870000000 1.0
C      1  0.4755690000000  0.4778280000000  0.4941060000000 1.0
C      1  0.5236760000000  0.4826910000000  0.4969640000000 1.0
C      1  0.4343190000000  0.5339150000000  0.4701100000000 1.0
C      1  0.5122480000000  0.5426770000000  0.5473890000000 1.0
C      1  0.4391160000000  0.5035980000000  0.5152990000000 1.0
C      1  0.4567410000000  0.4537860000000  0.4956720000000 1.0
C      1  0.5388160000000  0.4740650000000  0.5548250000000 1.0
C      1  0.5140510000000  0.5350790000000  0.4523500000000 1.0
C      1  0.4472270000000  0.4898310000000  0.5585140000000 1.0
C      1  0.5701200000000  0.4708180000000  0.4870340000000 1.0
C      1  0.4679710000000  0.5267370000000  0.4317430000000 1.0
C      1  0.5076640000000  0.5108600000000  0.4684910000000 1.0
C      1  0.4856430000000  0.5505520000000  0.4910010000000 1.0
C      1  0.5424490000000  0.4825430000000  0.4409150000000 1.0
C      1  0.4313560000000  0.5270280000000  0.5001670000000 1.0
C      1  0.5000340000000  0.4685730000000  0.5077960000000 1.0
C      1  0.5246720000000  0.4334300000000  0.4970870000000 1.0
C      1  0.5556130000000  0.5387180000000  0.4749930000000 1.0
C      1  0.5055100000000  0.4966350000000  0.4270030000000 1.0
C      1  0.5447910000000  0.5303610000000  0.4508600000000 1.0
C      1  0.5607380000000  0.5273370000000  0.5157550000000 1.0
C      1  0.4714450000000  0.4352910000000  0.5104210000000 1.0
C      1  0.5736810000000  0.5214590000000  0.4906000000000 1.0
C      1  0.5069520000000  0.5564080000000  0.4732560000000 1.0
C      1  0.4750400000000  0.4774060000000  0.4646110000000 1.0
C      1  0.4306430000000  0.4606850000000  0.4924150000000 1.0
C      1  0.4584530000000  0.5374750000000  0.5395680000000 1.0
C      1  0.5552140000000  0.5140400000000  0.5393970000000 1.0
C      1  0.5240790000000  0.5665420000000  0.5367180000000 1.0
C      1  0.5368080000000  0.5339590000000  0.4984590000000 1.0
C      1  0.5004300000000  0.4847120000000  0.4548230000000 1.0
C      1  0.4668020000000  0.4879320000000  0.5778860000000 1.0
C      1  0.4850350000000  0.4735220000000  0.5891060000000 1.0
C      1  0.5253320000000  0.4703210000000  0.4655310000000 1.0
C      1  0.5244900000000  0.4521590000000  0.5433140000000 1.0
C      1  0.5388110000000  0.4455330000000  0.5196180000000 1.0
C      1  0.5578430000000  0.5034170000000  0.4505100000000 1.0
C      1  0.5149560000000  0.5115860000000  0.4963460000000 1.0
END
