TITL C-176661-6945-8 65.6252555529682 125000 -787.84036253058 0 0 112 (C1) n - 1
REM
REM in /rds/project/t2_vol4/rds-t2-cs072/BORA/CARBON/from-Arr/AIRSS/Generating-Clusters/GAP-ML-2020/Only-C1/SD-CG/HFTN-CG
REM
REM
REM
REM
REM
REM ./C.cell (11c1c37f851c82e70ff6c80c92926a4b)
REM AIRSS Version 0.9.1 bugfix July 2018 build 013d7b7c2542+ Fri, 06 Jul 2018 19:26:36 +0100
REM compiler GCC version 9.3.0
REM options -cpp -mtune=generic -march=x86-64 -g -O0
REM seed 1942063327 1401057142 813480731 -3948029 1659135379 -528196747 319590873 576236016 -1504558191 2001382162 -235843014 70622411 -1905300259 1956268559 1751530728 1269798248 -710332087 949247031 -1447493386 -1863804944 -634043150 -2055052399 -242537147 1290143188 1701759053 -1281269552 1402336954 1376321745 1892052939 -229335802 -2124701821 557529070 -508531726
REM
CELL 1.54180   50.00000   50.00000   50.00000   90.00000   90.00000   90.00000
LATT -1
SFAC C  
C      1  0.4796010000000  0.5105120000000  0.5378520000000 1.0
C      1  0.5164250000000  0.4172320000000  0.4642750000000 1.0
C      1  0.4554600000000  0.4850130000000  0.4329790000000 1.0
C      1  0.4347020000000  0.5410620000000  0.5528820000000 1.0
C      1  0.4699220000000  0.5355690000000  0.4998410000000 1.0
C      1  0.4921300000000  0.5784540000000  0.4543670000000 1.0
C      1  0.4208420000000  0.4933230000000  0.4775620000000 1.0
C      1  0.4767250000000  0.4456890000000  0.4499040000000 1.0
C      1  0.4903110000000  0.5806170000000  0.5074230000000 1.0
C      1  0.4829260000000  0.4357370000000  0.4962890000000 1.0
C      1  0.4231240000000  0.5420140000000  0.4836580000000 1.0
C      1  0.4529720000000  0.4509150000000  0.5517070000000 1.0
C      1  0.4498590000000  0.4038710000000  0.4947780000000 1.0
C      1  0.4266460000000  0.5555520000000  0.5299300000000 1.0
C      1  0.5210080000000  0.4912070000000  0.4628460000000 1.0
C      1  0.4355910000000  0.4923820000000  0.5565080000000 1.0
C      1  0.4279520000000  0.4225110000000  0.5000770000000 1.0
C      1  0.4764940000000  0.4687780000000  0.5595240000000 1.0
C      1  0.4690360000000  0.5781640000000  0.5281470000000 1.0
C      1  0.4655400000000  0.5117930000000  0.5143890000000 1.0
C      1  0.5361200000000  0.4667550000000  0.4189900000000 1.0
C      1  0.4717140000000  0.4849420000000  0.5098110000000 1.0
C      1  0.5591130000000  0.4649170000000  0.4367550000000 1.0
C      1  0.5741680000000  0.4871150000000  0.5395920000000 1.0
C      1  0.4684550000000  0.5367650000000  0.4315950000000 1.0
C      1  0.5613100000000  0.5369580000000  0.5538850000000 1.0
C      1  0.5603900000000  0.4340230000000  0.4794930000000 1.0
C      1  0.5583210000000  0.4331420000000  0.5257120000000 1.0
C      1  0.5089570000000  0.5340530000000  0.4823760000000 1.0
C      1  0.5173120000000  0.5390160000000  0.5747400000000 1.0
C      1  0.4803640000000  0.5338710000000  0.4716070000000 1.0
C      1  0.5774660000000  0.4776970000000  0.5117250000000 1.0
C      1  0.4133300000000  0.5386600000000  0.5101460000000 1.0
C      1  0.5642040000000  0.4522340000000  0.5036190000000 1.0
C      1  0.4494980000000  0.4619560000000  0.4489000000000 1.0
C      1  0.5564480000000  0.4404800000000  0.4522130000000 1.0
C      1  0.5190240000000  0.5469040000000  0.4319890000000 1.0
C      1  0.5185560000000  0.4710270000000  0.5190770000000 1.0
C      1  0.5185690000000  0.5890780000000  0.5161730000000 1.0
C      1  0.5496730000000  0.5081170000000  0.4248940000000 1.0
C      1  0.4958500000000  0.5308330000000  0.4228920000000 1.0
C      1  0.4117360000000  0.4918530000000  0.5055890000000 1.0
C      1  0.5389670000000  0.5466640000000  0.4817080000000 1.0
C      1  0.4221510000000  0.5152450000000  0.5486700000000 1.0
C      1  0.4876150000000  0.4180680000000  0.4605260000000 1.0
C      1  0.5508460000000  0.5137100000000  0.5136840000000 1.0
C      1  0.5295940000000  0.4932150000000  0.4118390000000 1.0
C      1  0.5325000000000  0.5902300000000  0.4929220000000 1.0
C      1  0.4305730000000  0.4662940000000  0.4704220000000 1.0
C      1  0.5076180000000  0.5139540000000  0.5335180000000 1.0
C      1  0.4813800000000  0.4806520000000  0.4198130000000 1.0
C      1  0.5232740000000  0.4988590000000  0.5146200000000 1.0
C      1  0.5177710000000  0.4461370000000  0.4239730000000 1.0
C      1  0.4515530000000  0.5126030000000  0.4443340000000 1.0
C      1  0.5185480000000  0.4644300000000  0.4725140000000 1.0
C      1  0.5487650000000  0.4503890000000  0.5606920000000 1.0
C      1  0.4760930000000  0.5062500000000  0.4614420000000 1.0
C      1  0.5116680000000  0.5046450000000  0.4868960000000 1.0
C      1  0.5128980000000  0.4271030000000  0.5380840000000 1.0
C      1  0.4435470000000  0.4127710000000  0.5210740000000 1.0
C      1  0.4898390000000  0.4586140000000  0.4769550000000 1.0
C      1  0.4733480000000  0.4119350000000  0.4837630000000 1.0
C      1  0.5554840000000  0.5610650000000  0.5353510000000 1.0
C      1  0.4905780000000  0.4541310000000  0.4258440000000 1.0
C      1  0.5333590000000  0.4234070000000  0.4896900000000 1.0
C      1  0.4703420000000  0.5576170000000  0.4516940000000 1.0
C      1  0.4830330000000  0.4877840000000  0.4845650000000 1.0
C      1  0.5019520000000  0.5028990000000  0.4156950000000 1.0
C      1  0.5962220000000  0.5505410000000  0.5156350000000 1.0
C      1  0.5132540000000  0.4917620000000  0.5800760000000 1.0
C      1  0.4889550000000  0.4659300000000  0.5268220000000 1.0
C      1  0.5556710000000  0.5322700000000  0.4620970000000 1.0
C      1  0.5028400000000  0.4656540000000  0.5719180000000 1.0
C      1  0.5760070000000  0.5032910000000  0.4955700000000 1.0
C      1  0.4959470000000  0.5493380000000  0.5057850000000 1.0
C      1  0.4428920000000  0.5738480000000  0.5167430000000 1.0
C      1  0.5716880000000  0.5087380000000  0.4661650000000 1.0
C      1  0.4094630000000  0.5140220000000  0.5225260000000 1.0
C      1  0.5430040000000  0.5322750000000  0.4366270000000 1.0
C      1  0.5405300000000  0.4976710000000  0.5736140000000 1.0
C      1  0.5315670000000  0.4566500000000  0.4973520000000 1.0
C      1  0.5203300000000  0.4447460000000  0.5604350000000 1.0
C      1  0.5089960000000  0.5588130000000  0.5529390000000 1.0
C      1  0.4642450000000  0.4961510000000  0.5623320000000 1.0
C      1  0.5335490000000  0.4195020000000  0.5189630000000 1.0
C      1  0.4605270000000  0.4278990000000  0.5372900000000 1.0
C      1  0.4187860000000  0.4672560000000  0.5171300000000 1.0
C      1  0.4252640000000  0.4503610000000  0.4946040000000 1.0
C      1  0.5346040000000  0.5743000000000  0.4713570000000 1.0
C      1  0.5670860000000  0.4315450000000  0.5507380000000 1.0
C      1  0.4558300000000  0.5766530000000  0.4701780000000 1.0
C      1  0.4306570000000  0.4671490000000  0.5442380000000 1.0
C      1  0.5825920000000  0.5696590000000  0.5270660000000 1.0
C      1  0.4292860000000  0.5180900000000  0.4659820000000 1.0
C      1  0.5294360000000  0.5771430000000  0.5400640000000 1.0
C      1  0.5572010000000  0.4782610000000  0.5611630000000 1.0
C      1  0.4990530000000  0.4992110000000  0.4445980000000 1.0
C      1  0.4371300000000  0.5678930000000  0.4879840000000 1.0
C      1  0.4866600000000  0.4353200000000  0.5251360000000 1.0
C      1  0.5140750000000  0.5414570000000  0.5269300000000 1.0
C      1  0.4997220000000  0.5179890000000  0.5831350000000 1.0
C      1  0.5665540000000  0.4924210000000  0.4423970000000 1.0
C      1  0.5310880000000  0.4284690000000  0.4430290000000 1.0
C      1  0.5902100000000  0.5237130000000  0.5134630000000 1.0
C      1  0.5425260000000  0.5263930000000  0.5707660000000 1.0
C      1  0.4806180000000  0.5886430000000  0.4792400000000 1.0
C      1  0.4786080000000  0.5644300000000  0.5519480000000 1.0
C      1  0.5178770000000  0.5712570000000  0.4477130000000 1.0
C      1  0.4608650000000  0.5451540000000  0.5650200000000 1.0
C      1  0.4724740000000  0.5206310000000  0.5771570000000 1.0
C      1  0.5420610000000  0.5422170000000  0.5122500000000 1.0
C      1  0.5729070000000  0.5158190000000  0.5368260000000 1.0
END
