TITL C-17753-6821-7 -0.167758523568139 125000 -612.094889002576 0 0 89 (C1) n - 1
REM
REM in /rds/project/t2_vol4/rds-t2-cs072/BORA/CARBON/from-Arr/AIRSS/Generating-Clusters/GAP-ML-2020/Only-C1/SD-CG/HFTN-CG
REM
REM
REM
REM
REM
REM ./C.cell (11c1c37f851c82e70ff6c80c92926a4b)
REM AIRSS Version 0.9.1 bugfix July 2018 build 013d7b7c2542+ Fri, 06 Jul 2018 19:26:36 +0100
REM compiler GCC version 9.3.0
REM options -cpp -mtune=generic -march=x86-64 -g -O0
REM seed 276135960 -1787270457 337331428 -1498387728 600587568 704073512 -839389674 -1119274941 -1126356790 -1683464956 960269150 -331456387 -710041968 1823649563 -1525155410 -395498876 -1027049811 361555506 -151218568 -738918435 -1280909300 -119041832 1106830182 177889212 968076139 -875477626 -112926112 -941076570 1866155065 -1176135981 -55447051 -1576512474 -1740689964
REM
CELL 1.54180   50.00000   50.00000   50.00000   90.00000   90.00000   90.00000
LATT -1
SFAC C  
C      1  0.5061480000000  0.4256270000000  0.5137870000000 1.0
C      1  0.4941620000000  0.5306660000000  0.4196930000000 1.0
C      1  0.4654360000000  0.5298180000000  0.4273520000000 1.0
C      1  0.5248570000000  0.4348660000000  0.5322660000000 1.0
C      1  0.5586920000000  0.4924590000000  0.4651010000000 1.0
C      1  0.4723900000000  0.4959590000000  0.5172540000000 1.0
C      1  0.5491410000000  0.4734870000000  0.5443630000000 1.0
C      1  0.5186090000000  0.5352500000000  0.4358760000000 1.0
C      1  0.4676020000000  0.4578770000000  0.4350770000000 1.0
C      1  0.4948430000000  0.4564080000000  0.4265400000000 1.0
C      1  0.5541000000000  0.5341810000000  0.5396570000000 1.0
C      1  0.4267380000000  0.5164260000000  0.5119480000000 1.0
C      1  0.5135870000000  0.4795900000000  0.5862260000000 1.0
C      1  0.5054340000000  0.4710890000000  0.4652470000000 1.0
C      1  0.4223970000000  0.5081430000000  0.4851030000000 1.0
C      1  0.5083180000000  0.4808010000000  0.4152950000000 1.0
C      1  0.4466490000000  0.4720680000000  0.5438490000000 1.0
C      1  0.4881890000000  0.5695570000000  0.5287380000000 1.0
C      1  0.4870650000000  0.4652760000000  0.5841770000000 1.0
C      1  0.5252080000000  0.4923570000000  0.5275130000000 1.0
C      1  0.5092110000000  0.4437740000000  0.4484870000000 1.0
C      1  0.4565170000000  0.5540760000000  0.4704060000000 1.0
C      1  0.4640080000000  0.5033190000000  0.4154370000000 1.0
C      1  0.4360770000000  0.4674050000000  0.4683540000000 1.0
C      1  0.5659410000000  0.5262720000000  0.5124940000000 1.0
C      1  0.5019400000000  0.5209260000000  0.5511330000000 1.0
C      1  0.5707830000000  0.5172150000000  0.5543250000000 1.0
C      1  0.5411810000000  0.5168490000000  0.4288700000000 1.0
C      1  0.5125070000000  0.5199890000000  0.4631620000000 1.0
C      1  0.4856020000000  0.5607700000000  0.4795030000000 1.0
C      1  0.5300020000000  0.5563980000000  0.4544820000000 1.0
C      1  0.4722550000000  0.5589490000000  0.5498180000000 1.0
C      1  0.5016170000000  0.4768710000000  0.5380590000000 1.0
C      1  0.5239780000000  0.5802470000000  0.4970420000000 1.0
C      1  0.4573330000000  0.4486270000000  0.4618910000000 1.0
C      1  0.4859900000000  0.5106940000000  0.4970690000000 1.0
C      1  0.5676390000000  0.4799680000000  0.4914700000000 1.0
C      1  0.5391150000000  0.4413190000000  0.4527000000000 1.0
C      1  0.5481980000000  0.4502550000000  0.5258890000000 1.0
C      1  0.5360630000000  0.5578600000000  0.5469420000000 1.0
C      1  0.4731590000000  0.5000550000000  0.4737890000000 1.0
C      1  0.4484060000000  0.5581110000000  0.4978540000000 1.0
C      1  0.5217060000000  0.5403560000000  0.5077510000000 1.0
C      1  0.4489070000000  0.5434600000000  0.5437740000000 1.0
C      1  0.4943520000000  0.4961210000000  0.4573310000000 1.0
C      1  0.4843400000000  0.4478040000000  0.5617550000000 1.0
C      1  0.5475370000000  0.5332230000000  0.4924170000000 1.0
C      1  0.4972500000000  0.4261930000000  0.4689830000000 1.0
C      1  0.5173400000000  0.4227650000000  0.4885190000000 1.0
C      1  0.4341290000000  0.4873330000000  0.4477820000000 1.0
C      1  0.4364500000000  0.5422860000000  0.5185740000000 1.0
C      1  0.5600760000000  0.5194720000000  0.4497740000000 1.0
C      1  0.4746180000000  0.4902860000000  0.5861340000000 1.0
C      1  0.4922990000000  0.5033100000000  0.4088770000000 1.0
C      1  0.5416240000000  0.4360870000000  0.4809500000000 1.0
C      1  0.5713420000000  0.4922090000000  0.5422810000000 1.0
C      1  0.5143120000000  0.5729420000000  0.4723060000000 1.0
C      1  0.5001740000000  0.5349050000000  0.4875970000000 1.0
C      1  0.5007720000000  0.5054410000000  0.5893250000000 1.0
C      1  0.4586970000000  0.4955550000000  0.5623350000000 1.0
C      1  0.4642280000000  0.4491740000000  0.5404030000000 1.0
C      1  0.4484820000000  0.5359640000000  0.4497710000000 1.0
C      1  0.4476910000000  0.5230490000000  0.5651720000000 1.0
C      1  0.4559650000000  0.5377760000000  0.5877800000000 1.0
C      1  0.4728780000000  0.4338860000000  0.4810220000000 1.0
C      1  0.5566400000000  0.4536340000000  0.4987450000000 1.0
C      1  0.5605510000000  0.4474020000000  0.4361540000000 1.0
C      1  0.4780300000000  0.4392410000000  0.5122950000000 1.0
C      1  0.4523480000000  0.4810990000000  0.4273500000000 1.0
C      1  0.4406150000000  0.4891100000000  0.5188300000000 1.0
C      1  0.5178490000000  0.4941040000000  0.4994270000000 1.0
C      1  0.5082810000000  0.4691460000000  0.4923560000000 1.0
C      1  0.5524460000000  0.4740750000000  0.4415560000000 1.0
C      1  0.4867230000000  0.4674840000000  0.5129610000000 1.0
C      1  0.5299410000000  0.4663400000000  0.5670930000000 1.0
C      1  0.5036430000000  0.5349340000000  0.5783910000000 1.0
C      1  0.5178260000000  0.5664870000000  0.5225030000000 1.0
C      1  0.5241890000000  0.5211470000000  0.5324110000000 1.0
C      1  0.5348420000000  0.5078950000000  0.4791920000000 1.0
C      1  0.4289650000000  0.4807910000000  0.4923900000000 1.0
C      1  0.4739040000000  0.5701390000000  0.5049790000000 1.0
C      1  0.5345500000000  0.4895720000000  0.4244440000000 1.0
C      1  0.5256080000000  0.5535690000000  0.5716620000000 1.0
C      1  0.4303340000000  0.5136020000000  0.4581080000000 1.0
C      1  0.4833590000000  0.5001330000000  0.5448650000000 1.0
C      1  0.4784790000000  0.5496900000000  0.5772410000000 1.0
C      1  0.5124550000000  0.4473370000000  0.5540880000000 1.0
C      1  0.5729730000000  0.4983660000000  0.5131740000000 1.0
C      1  0.5531910000000  0.5432530000000  0.4649270000000 1.0
END
