TITL C-176642-5687-6 -24.183928254958 125000 -858.856300860913 0 0 123 (C1) n - 1
REM
REM in /rds/project/t2_vol4/rds-t2-cs072/BORA/CARBON/from-Arr/AIRSS/Generating-Clusters/GAP-ML-2020/Only-C1/SD-CG/HFTN-CG
REM
REM
REM
REM
REM
REM ./C.cell (11c1c37f851c82e70ff6c80c92926a4b)
REM AIRSS Version 0.9.1 bugfix July 2018 build 013d7b7c2542+ Fri, 06 Jul 2018 19:26:36 +0100
REM compiler GCC version 9.3.0
REM options -cpp -mtune=generic -march=x86-64 -g -O0
REM seed 1287071765 -1265096587 -1688484310 1479828958 -1870392454 -1669441328 -1909741840 -1911995431 -441443152 1025525620 777771365 -323603838 633443308 -1549724880 1412251780 -110412511 -300541658 1713113151 57494156 1406289295 4559989 -511973670 771830706 -1401743463 -873733368 -481761444 -1347869003 -1033664599 612476075 1094500130 298266428 723874428 93006954
REM
CELL 1.54180   50.00000   50.00000   50.00000   90.00000   90.00000   90.00000
LATT -1
SFAC C  
C      1  0.4081020000000  0.4926280000000  0.4949390000000 1.0
C      1  0.4826400000000  0.5044390000000  0.4689260000000 1.0
C      1  0.4182370000000  0.4410400000000  0.5457080000000 1.0
C      1  0.5706300000000  0.4940600000000  0.4309130000000 1.0
C      1  0.4461440000000  0.4441590000000  0.4579210000000 1.0
C      1  0.4097430000000  0.5335300000000  0.4707950000000 1.0
C      1  0.4944660000000  0.5395110000000  0.5733360000000 1.0
C      1  0.5725000000000  0.4659980000000  0.4404720000000 1.0
C      1  0.5256130000000  0.5047280000000  0.5872290000000 1.0
C      1  0.5809560000000  0.5310170000000  0.4722150000000 1.0
C      1  0.4765930000000  0.5127810000000  0.4110690000000 1.0
C      1  0.4970740000000  0.4841880000000  0.5137390000000 1.0
C      1  0.4727750000000  0.5887640000000  0.5037530000000 1.0
C      1  0.5366960000000  0.5715030000000  0.5460970000000 1.0
C      1  0.5160020000000  0.4729090000000  0.4109890000000 1.0
C      1  0.4706540000000  0.4821220000000  0.5266420000000 1.0
C      1  0.4795570000000  0.5180490000000  0.5873660000000 1.0
C      1  0.4988350000000  0.5081750000000  0.4948900000000 1.0
C      1  0.5250640000000  0.5230260000000  0.4865820000000 1.0
C      1  0.4859740000000  0.4607010000000  0.4776580000000 1.0
C      1  0.4874180000000  0.5349030000000  0.5033460000000 1.0
C      1  0.4210140000000  0.4505690000000  0.5198500000000 1.0
C      1  0.5035730000000  0.5458190000000  0.4797350000000 1.0
C      1  0.5650920000000  0.4406610000000  0.5159940000000 1.0
C      1  0.5732250000000  0.5409900000000  0.5500610000000 1.0
C      1  0.5753020000000  0.5002970000000  0.5467040000000 1.0
C      1  0.4946100000000  0.5804390000000  0.4590220000000 1.0
C      1  0.5191820000000  0.5738080000000  0.4737440000000 1.0
C      1  0.4505620000000  0.5650310000000  0.4624760000000 1.0
C      1  0.5228030000000  0.5873490000000  0.5001660000000 1.0
C      1  0.4994320000000  0.4994310000000  0.5961630000000 1.0
C      1  0.5796990000000  0.4641680000000  0.4684420000000 1.0
C      1  0.5274190000000  0.4859220000000  0.4625290000000 1.0
C      1  0.5605620000000  0.4482810000000  0.4866900000000 1.0
C      1  0.4121610000000  0.4788100000000  0.5191530000000 1.0
C      1  0.4283550000000  0.5539400000000  0.4775970000000 1.0
C      1  0.4632220000000  0.4718060000000  0.4987640000000 1.0
C      1  0.5600740000000  0.4782640000000  0.5580320000000 1.0
C      1  0.5247330000000  0.5001320000000  0.4076950000000 1.0
C      1  0.5282460000000  0.5281340000000  0.5317050000000 1.0
C      1  0.4569890000000  0.5035410000000  0.5774300000000 1.0
C      1  0.4578390000000  0.5816790000000  0.5299520000000 1.0
C      1  0.5868890000000  0.5107040000000  0.4930830000000 1.0
C      1  0.5901080000000  0.4900280000000  0.4734730000000 1.0
C      1  0.4585240000000  0.5226900000000  0.5055690000000 1.0
C      1  0.4675550000000  0.4269390000000  0.5234360000000 1.0
C      1  0.4888530000000  0.5324430000000  0.4574710000000 1.0
C      1  0.4443210000000  0.4285650000000  0.4817970000000 1.0
C      1  0.5522810000000  0.4609420000000  0.5344020000000 1.0
C      1  0.5418670000000  0.4256770000000  0.4476920000000 1.0
C      1  0.4563190000000  0.4986790000000  0.4846880000000 1.0
C      1  0.4966460000000  0.4811440000000  0.4573280000000 1.0
C      1  0.4634360000000  0.4624120000000  0.5517380000000 1.0
C      1  0.5247330000000  0.5314360000000  0.5767210000000 1.0
C      1  0.4004510000000  0.5199330000000  0.4961540000000 1.0
C      1  0.4470980000000  0.4439930000000  0.5067490000000 1.0
C      1  0.4990720000000  0.5958130000000  0.5128240000000 1.0
C      1  0.5084820000000  0.4803200000000  0.5393890000000 1.0
C      1  0.5092380000000  0.5414520000000  0.4308140000000 1.0
C      1  0.5675260000000  0.5065560000000  0.5147960000000 1.0
C      1  0.4277260000000  0.4906500000000  0.4708740000000 1.0
C      1  0.5377070000000  0.4785840000000  0.5778600000000 1.0
C      1  0.5153690000000  0.5834120000000  0.5589910000000 1.0
C      1  0.5177800000000  0.4305980000000  0.4317090000000 1.0
C      1  0.4700480000000  0.5822480000000  0.4754390000000 1.0
C      1  0.4114900000000  0.5331120000000  0.5185400000000 1.0
C      1  0.5361440000000  0.4711510000000  0.4879610000000 1.0
C      1  0.5323500000000  0.4507870000000  0.4151950000000 1.0
C      1  0.5274900000000  0.4985270000000  0.5319760000000 1.0
C      1  0.4185850000000  0.5129920000000  0.4534500000000 1.0
C      1  0.5089790000000  0.4616180000000  0.4963820000000 1.0
C      1  0.4563210000000  0.5293590000000  0.4228670000000 1.0
C      1  0.4352300000000  0.4688250000000  0.4508240000000 1.0
C      1  0.5351130000000  0.5132220000000  0.4614240000000 1.0
C      1  0.5802910000000  0.5505760000000  0.5256250000000 1.0
C      1  0.4989870000000  0.5981610000000  0.5409150000000 1.0
C      1  0.5559800000000  0.4456830000000  0.4306000000000 1.0
C      1  0.5224950000000  0.4531430000000  0.5385170000000 1.0
C      1  0.5475700000000  0.4843600000000  0.5144130000000 1.0
C      1  0.4840010000000  0.5283470000000  0.5464940000000 1.0
C      1  0.5459070000000  0.5297100000000  0.5086470000000 1.0
C      1  0.4231690000000  0.4873720000000  0.5447450000000 1.0
C      1  0.4433260000000  0.4844640000000  0.4277160000000 1.0
C      1  0.4915080000000  0.5695120000000  0.5706750000000 1.0
C      1  0.5478950000000  0.4233750000000  0.4752530000000 1.0
C      1  0.4654570000000  0.5503030000000  0.4414110000000 1.0
C      1  0.4691640000000  0.4852460000000  0.4156040000000 1.0
C      1  0.4665340000000  0.4764480000000  0.5766940000000 1.0
C      1  0.4904010000000  0.5649190000000  0.4352990000000 1.0
C      1  0.5432880000000  0.5612070000000  0.4600760000000 1.0
C      1  0.5072320000000  0.4360850000000  0.5580780000000 1.0
C      1  0.5193920000000  0.4106450000000  0.5452240000000 1.0
C      1  0.5452200000000  0.4041020000000  0.5435970000000 1.0
C      1  0.4696540000000  0.4147550000000  0.4794130000000 1.0
C      1  0.5839400000000  0.5094360000000  0.4521710000000 1.0
C      1  0.5424360000000  0.5773700000000  0.5179500000000 1.0
C      1  0.5041220000000  0.5205160000000  0.4114060000000 1.0
C      1  0.5900170000000  0.5203130000000  0.5589190000000 1.0
C      1  0.4758480000000  0.4369580000000  0.4598320000000 1.0
C      1  0.4347000000000  0.5117760000000  0.4303250000000 1.0
C      1  0.5152510000000  0.4581850000000  0.5794810000000 1.0
C      1  0.5105400000000  0.4116100000000  0.5128770000000 1.0
C      1  0.5660550000000  0.5549020000000  0.4760180000000 1.0
C      1  0.4624160000000  0.5109840000000  0.5334890000000 1.0
C      1  0.5511560000000  0.5021640000000  0.4138660000000 1.0
C      1  0.5423760000000  0.5438440000000  0.5549490000000 1.0
C      1  0.4356330000000  0.5461100000000  0.5054770000000 1.0
C      1  0.5608990000000  0.5575860000000  0.5059930000000 1.0
C      1  0.4249270000000  0.5373170000000  0.5444420000000 1.0
C      1  0.4912130000000  0.4689430000000  0.4267020000000 1.0
C      1  0.5371080000000  0.4091810000000  0.4978040000000 1.0
C      1  0.4395180000000  0.5602920000000  0.5313530000000 1.0
C      1  0.4916170000000  0.4397740000000  0.4350180000000 1.0
C      1  0.5352140000000  0.5394820000000  0.4429810000000 1.0
C      1  0.4925990000000  0.4728750000000  0.5890530000000 1.0
C      1  0.5010390000000  0.5386110000000  0.5277110000000 1.0
C      1  0.4781750000000  0.4373240000000  0.5476710000000 1.0
C      1  0.4824320000000  0.4106300000000  0.5045300000000 1.0
C      1  0.4386970000000  0.5112290000000  0.5531650000000 1.0
C      1  0.4754740000000  0.5856740000000  0.5520980000000 1.0
C      1  0.5559940000000  0.4139950000000  0.5199750000000 1.0
C      1  0.4339660000000  0.4618390000000  0.5540520000000 1.0
C      1  0.5156650000000  0.4405600000000  0.5135850000000 1.0
END
