TITL C-176665-7058-7 -0.0630957704098616 125000 -229.545386881772 0 0 35 (C1) n - 1
REM
REM in /rds/project/t2_vol4/rds-t2-cs072/BORA/CARBON/from-Arr/AIRSS/Generating-Clusters/GAP-ML-2020/Only-C1/SD-CG/HFTN-CG
REM
REM
REM
REM
REM
REM ./C.cell (11c1c37f851c82e70ff6c80c92926a4b)
REM AIRSS Version 0.9.1 bugfix July 2018 build 013d7b7c2542+ Fri, 06 Jul 2018 19:26:36 +0100
REM compiler GCC version 9.3.0
REM options -cpp -mtune=generic -march=x86-64 -g -O0
REM seed -1267748864 -514432052 -846629167 -1188021045 1783425015 -578394701 1475686498 2076984847 1484184360 906967711 -1794747683 -284560838 -1716577609 1179010684 -2112790215 -1151704333 -620128632 -1461202807 -1655393267 1201060656 -1026229742 -935060666 865199394 250691807 -1550589942 1558315076 -1089894470 -98196269 772611051 1524168399 -1330840512 1125122770 1589433837
REM
CELL 1.54180   50.00000   50.00000   50.00000   90.00000   90.00000   90.00000
LATT -1
SFAC C  
C      1  0.5010550000000  0.5296110000000  0.4544090000000 1.0
C      1  0.4435240000000  0.4942280000000  0.5263570000000 1.0
C      1  0.5585520000000  0.5082190000000  0.5360370000000 1.0
C      1  0.5356050000000  0.5076500000000  0.5536120000000 1.0
C      1  0.4681120000000  0.4538050000000  0.5313570000000 1.0
C      1  0.5336720000000  0.4473200000000  0.4876650000000 1.0
C      1  0.4881910000000  0.4947130000000  0.5465550000000 1.0
C      1  0.4486210000000  0.4906780000000  0.4733210000000 1.0
C      1  0.5542410000000  0.4373020000000  0.4976200000000 1.0
C      1  0.4412030000000  0.5211890000000  0.5307690000000 1.0
C      1  0.4954900000000  0.5425250000000  0.4794660000000 1.0
C      1  0.5256090000000  0.5155410000000  0.4567200000000 1.0
C      1  0.4891890000000  0.5033700000000  0.4884710000000 1.0
C      1  0.5236820000000  0.4874890000000  0.5152810000000 1.0
C      1  0.4781450000000  0.5148850000000  0.4456220000000 1.0
C      1  0.5204020000000  0.5383930000000  0.4966560000000 1.0
C      1  0.4825180000000  0.4881950000000  0.4414630000000 1.0
C      1  0.5526840000000  0.4924300000000  0.5132000000000 1.0
C      1  0.4702670000000  0.5298760000000  0.4878810000000 1.0
C      1  0.4557760000000  0.5175480000000  0.4656920000000 1.0
C      1  0.5172530000000  0.4703940000000  0.4873240000000 1.0
C      1  0.4639290000000  0.5273290000000  0.5170640000000 1.0
C      1  0.5165740000000  0.4888700000000  0.5456830000000 1.0
C      1  0.4464710000000  0.4822140000000  0.5005060000000 1.0
C      1  0.5530570000000  0.5024760000000  0.4865150000000 1.0
C      1  0.4878260000000  0.4715970000000  0.4849280000000 1.0
C      1  0.5309970000000  0.4910270000000  0.4703240000000 1.0
C      1  0.5421100000000  0.5273040000000  0.4787120000000 1.0
C      1  0.4877390000000  0.5159060000000  0.5273760000000 1.0
C      1  0.5086640000000  0.5121330000000  0.5080480000000 1.0
C      1  0.5331030000000  0.5495280000000  0.5201170000000 1.0
C      1  0.4651320000000  0.4787510000000  0.5430260000000 1.0
C      1  0.4703320000000  0.4740780000000  0.4611330000000 1.0
C      1  0.4686970000000  0.4635120000000  0.5052790000000 1.0
C      1  0.5415780000000  0.5299130000000  0.5358090000000 1.0
END
