TITL C-173944-9406-1 -0.073035408637802 125000 -559.79947052914 0 0 80 (C1) n - 1
REM
REM in /rds/project/t2_vol4/rds-t2-cs072/BORA/CARBON/from-Arr/AIRSS/Generating-Clusters/GAP-ML-2020/Only-C1/SD-CG/HFTN-CG
REM
REM
REM
REM
REM
REM ./C.cell (11c1c37f851c82e70ff6c80c92926a4b)
REM AIRSS Version 0.9.1 bugfix July 2018 build 013d7b7c2542+ Fri, 06 Jul 2018 19:26:36 +0100
REM compiler GCC version 9.3.0
REM options -cpp -mtune=generic -march=x86-64 -g -O0
REM seed -785358510 -828250880 -367273379 -1538886126 -609892685 -1932241205 368291870 -549444368 -1976144519 1000652358 378492909 87741394 -1112177949 -445855309 -534992483 -2114623551 -2099472593 -1641378009 1804174338 825876086 -1876130905 1974087653 2062547795 277829928 2029021010 568520096 -1898802423 1075755468 470091298 1067016153 673184776 -1369537886 -203022675
REM
CELL 1.54180   50.00000   50.00000   50.00000   90.00000   90.00000   90.00000
LATT -1
SFAC C  
C      1  0.5232570000000  0.4712810000000  0.5723310000000 1.0
C      1  0.4887480000000  0.4476880000000  0.4415760000000 1.0
C      1  0.5229890000000  0.4771880000000  0.4287380000000 1.0
C      1  0.4859080000000  0.5198500000000  0.4280910000000 1.0
C      1  0.4674030000000  0.5667710000000  0.5198990000000 1.0
C      1  0.5277360000000  0.4237270000000  0.4929780000000 1.0
C      1  0.5274260000000  0.4974000000000  0.5801510000000 1.0
C      1  0.5421380000000  0.4613780000000  0.5531650000000 1.0
C      1  0.4772730000000  0.4806600000000  0.5127670000000 1.0
C      1  0.5193510000000  0.5690310000000  0.4953530000000 1.0
C      1  0.4449770000000  0.5558420000000  0.4890300000000 1.0
C      1  0.4505420000000  0.4738470000000  0.5514770000000 1.0
C      1  0.5042160000000  0.5124320000000  0.5854870000000 1.0
C      1  0.4258770000000  0.5080300000000  0.5190030000000 1.0
C      1  0.5616870000000  0.4570660000000  0.4586800000000 1.0
C      1  0.5087830000000  0.4207640000000  0.4742600000000 1.0
C      1  0.4473020000000  0.4563120000000  0.4751870000000 1.0
C      1  0.5132450000000  0.4361720000000  0.4502300000000 1.0
C      1  0.5374140000000  0.5015850000000  0.4330180000000 1.0
C      1  0.5221040000000  0.4727540000000  0.5002810000000 1.0
C      1  0.4785070000000  0.4364530000000  0.5293950000000 1.0
C      1  0.4482520000000  0.4460690000000  0.5020370000000 1.0
C      1  0.5467930000000  0.5007690000000  0.4615670000000 1.0
C      1  0.5608650000000  0.4762510000000  0.5363190000000 1.0
C      1  0.4751040000000  0.4937030000000  0.4284260000000 1.0
C      1  0.5192030000000  0.4993640000000  0.5142930000000 1.0
C      1  0.4678480000000  0.4406340000000  0.4605320000000 1.0
C      1  0.4397200000000  0.5224410000000  0.5558470000000 1.0
C      1  0.4365980000000  0.5318100000000  0.4759940000000 1.0
C      1  0.4706760000000  0.5714450000000  0.4917110000000 1.0
C      1  0.5332290000000  0.4580230000000  0.4495280000000 1.0
C      1  0.4931830000000  0.4679610000000  0.4932860000000 1.0
C      1  0.4772630000000  0.5037440000000  0.5810150000000 1.0
C      1  0.4342170000000  0.4957730000000  0.5448100000000 1.0
C      1  0.4518040000000  0.4970510000000  0.4469350000000 1.0
C      1  0.5106200000000  0.5593570000000  0.4315770000000 1.0
C      1  0.5084800000000  0.5386120000000  0.5745540000000 1.0
C      1  0.5268840000000  0.4792300000000  0.4711990000000 1.0
C      1  0.5061720000000  0.5341190000000  0.4157340000000 1.0
C      1  0.4407840000000  0.5557010000000  0.5176090000000 1.0
C      1  0.5599730000000  0.5308200000000  0.5250440000000 1.0
C      1  0.5334030000000  0.5264110000000  0.4211670000000 1.0
C      1  0.4725870000000  0.4772340000000  0.5707170000000 1.0
C      1  0.5709120000000  0.4828880000000  0.4648550000000 1.0
C      1  0.4508520000000  0.5251250000000  0.4529220000000 1.0
C      1  0.4301430000000  0.5344050000000  0.5308870000000 1.0
C      1  0.4636970000000  0.5268300000000  0.5700330000000 1.0
C      1  0.5388160000000  0.5524860000000  0.4349670000000 1.0
C      1  0.5148170000000  0.5507480000000  0.5177140000000 1.0
C      1  0.5616600000000  0.5055240000000  0.5419060000000 1.0
C      1  0.4802180000000  0.5321250000000  0.4541680000000 1.0
C      1  0.4848860000000  0.5458810000000  0.5615430000000 1.0
C      1  0.5722850000000  0.4641220000000  0.4853210000000 1.0
C      1  0.5461270000000  0.5639720000000  0.4864380000000 1.0
C      1  0.5423740000000  0.5257050000000  0.4773800000000 1.0
C      1  0.4686950000000  0.4259860000000  0.5045970000000 1.0
C      1  0.5381760000000  0.5469990000000  0.5356300000000 1.0
C      1  0.5623330000000  0.4603840000000  0.5115000000000 1.0
C      1  0.4876340000000  0.5495070000000  0.5316290000000 1.0
C      1  0.4933160000000  0.5589130000000  0.4535380000000 1.0
C      1  0.4798250000000  0.4216130000000  0.4788900000000 1.0
C      1  0.5465480000000  0.5130700000000  0.5653560000000 1.0
C      1  0.5277190000000  0.4418530000000  0.5388790000000 1.0
C      1  0.5163030000000  0.5224960000000  0.4951870000000 1.0
C      1  0.4964720000000  0.4612920000000  0.5671300000000 1.0
C      1  0.5450070000000  0.5509980000000  0.4612910000000 1.0
C      1  0.5368530000000  0.4428340000000  0.5112250000000 1.0
C      1  0.4912810000000  0.5136360000000  0.4798390000000 1.0
C      1  0.4958640000000  0.4982300000000  0.5294250000000 1.0
C      1  0.4957910000000  0.5724390000000  0.4783790000000 1.0
C      1  0.4977840000000  0.4864720000000  0.4709940000000 1.0
C      1  0.4375530000000  0.5059650000000  0.4914910000000 1.0
C      1  0.5595670000000  0.5397310000000  0.4987090000000 1.0
C      1  0.4407490000000  0.4835430000000  0.4698730000000 1.0
C      1  0.4942220000000  0.4721490000000  0.4272770000000 1.0
C      1  0.4783600000000  0.5211010000000  0.5247200000000 1.0
C      1  0.4696060000000  0.5081650000000  0.4999560000000 1.0
C      1  0.4999980000000  0.4414630000000  0.5465060000000 1.0
C      1  0.5338570000000  0.5385440000000  0.5620030000000 1.0
C      1  0.4591620000000  0.4600520000000  0.5268430000000 1.0
END
