TITL C-17766-6653-9 -18.2955331108762 125000 -62.3591611572769 0 0 10 (C1) n - 1
REM
REM in /rds/project/t2_vol4/rds-t2-cs072/BORA/CARBON/from-Arr/AIRSS/Generating-Clusters/GAP-ML-2020/Only-C1/SD-CG/HFTN-CG
REM
REM
REM
REM
REM
REM ./C.cell (11c1c37f851c82e70ff6c80c92926a4b)
REM AIRSS Version 0.9.1 bugfix July 2018 build 013d7b7c2542+ Fri, 06 Jul 2018 19:26:36 +0100
REM compiler GCC version 9.3.0
REM options -cpp -mtune=generic -march=x86-64 -g -O0
REM seed 99867257 1146382302 1820707277 486469411 50826498 -1400514068 833175236 760103249 1130678375 -1262725519 -110640002 809280030 388671872 -1106970868 -818312616 -1333497419 -1880051720 -1426019003 -1652324208 -1911418431 -1057848501 -1336290193 1389167380 1336277235 257934305 1448081796 -84206074 1512668592 305194319 -201755884 -112671327 -906355387 2064267062
REM
CELL 1.54180   50.00000   50.00000   50.00000   90.00000   90.00000   90.00000
LATT -1
SFAC C  
C      1  0.4817310000000  0.4865370000000  0.5410450000000 1.0
C      1  0.4721010000000  0.4754900000000  0.5193750000000 1.0
C      1  0.5300000000000  0.5239670000000  0.4820630000000 1.0
C      1  0.4875100000000  0.4955180000000  0.4524260000000 1.0
C      1  0.4816340000000  0.4827680000000  0.4739070000000 1.0
C      1  0.5297910000000  0.5284350000000  0.5081740000000 1.0
C      1  0.5004430000000  0.5049970000000  0.5437320000000 1.0
C      1  0.5328680000000  0.5139120000000  0.4585820000000 1.0
C      1  0.5153770000000  0.5175400000000  0.5264850000000 1.0
C      1  0.4685450000000  0.4708340000000  0.4942130000000 1.0
END
