TITL C-173938-3235-7 0.077596720224466 125000 -498.440351657848 0 0 71 (C1) n - 1
REM
REM in /rds/project/t2_vol4/rds-t2-cs072/BORA/CARBON/from-Arr/AIRSS/Generating-Clusters/GAP-ML-2020/Only-C1/SD-CG/HFTN-CG
REM
REM
REM
REM
REM
REM ./C.cell (11c1c37f851c82e70ff6c80c92926a4b)
REM AIRSS Version 0.9.1 bugfix July 2018 build 013d7b7c2542+ Fri, 06 Jul 2018 19:26:36 +0100
REM compiler GCC version 9.3.0
REM options -cpp -mtune=generic -march=x86-64 -g -O0
REM seed -1901163711 -1421257536 1773627049 -1307381065 -530935397 1020647260 916045390 -1360509189 -684755346 929556048 -2070120559 -452591877 -606564953 -1945375574 343803742 -1960127052 1404671573 -1407308308 225402567 -427488606 1850591032 255730222 1568592567 -809141686 -93375371 1041299187 357621468 1596772850 1823729342 -473313789 38150569 347295113 -664937998
REM
CELL 1.54180   50.00000   50.00000   50.00000   90.00000   90.00000   90.00000
LATT -1
SFAC C  
C      1  0.5474060000000  0.5384810000000  0.5398760000000 1.0
C      1  0.5260570000000  0.4375040000000  0.5308810000000 1.0
C      1  0.5398170000000  0.4925460000000  0.5314060000000 1.0
C      1  0.5266700000000  0.5189390000000  0.5277380000000 1.0
C      1  0.4372840000000  0.5477220000000  0.5261250000000 1.0
C      1  0.5554410000000  0.4558140000000  0.4637080000000 1.0
C      1  0.4731990000000  0.5124630000000  0.5556540000000 1.0
C      1  0.5273830000000  0.5159320000000  0.4364750000000 1.0
C      1  0.4996800000000  0.5235420000000  0.4355460000000 1.0
C      1  0.5706960000000  0.4852530000000  0.4954400000000 1.0
C      1  0.5438070000000  0.5625860000000  0.5010710000000 1.0
C      1  0.4662790000000  0.4619380000000  0.4515300000000 1.0
C      1  0.4242000000000  0.5309880000000  0.5080790000000 1.0
C      1  0.4745430000000  0.5553170000000  0.4954960000000 1.0
C      1  0.4308730000000  0.4858740000000  0.4781290000000 1.0
C      1  0.4329700000000  0.4662950000000  0.4976390000000 1.0
C      1  0.4883730000000  0.4877850000000  0.5636790000000 1.0
C      1  0.5031770000000  0.4219220000000  0.5321030000000 1.0
C      1  0.5178450000000  0.5618870000000  0.4568250000000 1.0
C      1  0.4283800000000  0.4956340000000  0.5423990000000 1.0
C      1  0.4376900000000  0.5140280000000  0.4889900000000 1.0
C      1  0.5222830000000  0.4764370000000  0.5126580000000 1.0
C      1  0.4933810000000  0.5466430000000  0.4505230000000 1.0
C      1  0.4429350000000  0.4784280000000  0.5236060000000 1.0
C      1  0.4708650000000  0.5466470000000  0.4689800000000 1.0
C      1  0.4841130000000  0.4214950000000  0.5118010000000 1.0
C      1  0.4912310000000  0.4284010000000  0.4845430000000 1.0
C      1  0.5623110000000  0.5273540000000  0.4701870000000 1.0
C      1  0.5396080000000  0.4970020000000  0.5612690000000 1.0
C      1  0.4482060000000  0.4435390000000  0.4926080000000 1.0
C      1  0.5134810000000  0.4963020000000  0.5736060000000 1.0
C      1  0.5572420000000  0.4813210000000  0.4512530000000 1.0
C      1  0.5032310000000  0.5210640000000  0.5116970000000 1.0
C      1  0.5457090000000  0.5350880000000  0.4477250000000 1.0
C      1  0.5403190000000  0.5616790000000  0.4411530000000 1.0
C      1  0.4793670000000  0.4907850000000  0.4887910000000 1.0
C      1  0.4865720000000  0.4756450000000  0.4353270000000 1.0
C      1  0.5589620000000  0.4590180000000  0.4914400000000 1.0
C      1  0.4885560000000  0.5569640000000  0.5447510000000 1.0
C      1  0.4747710000000  0.5199490000000  0.5252870000000 1.0
C      1  0.4454950000000  0.4816590000000  0.4550760000000 1.0
C      1  0.5683990000000  0.4997460000000  0.4705520000000 1.0
C      1  0.4515140000000  0.5262990000000  0.4657970000000 1.0
C      1  0.4658730000000  0.5492440000000  0.5231780000000 1.0
C      1  0.4604440000000  0.4574240000000  0.5354680000000 1.0
C      1  0.5670070000000  0.5277310000000  0.5200430000000 1.0
C      1  0.4679530000000  0.4414880000000  0.4719110000000 1.0
C      1  0.5189570000000  0.4341000000000  0.4818910000000 1.0
C      1  0.5324480000000  0.4398340000000  0.4577510000000 1.0
C      1  0.4800090000000  0.5031540000000  0.4333230000000 1.0
C      1  0.5209800000000  0.4418250000000  0.4331430000000 1.0
C      1  0.5054120000000  0.4947150000000  0.4959630000000 1.0
C      1  0.4434140000000  0.5123250000000  0.5588620000000 1.0
C      1  0.4829110000000  0.4619550000000  0.5529160000000 1.0
C      1  0.4907870000000  0.5357680000000  0.5640730000000 1.0
C      1  0.5145910000000  0.5258050000000  0.5748020000000 1.0
C      1  0.5344050000000  0.4890550000000  0.4359010000000 1.0
C      1  0.5333210000000  0.4494850000000  0.5043780000000 1.0
C      1  0.5111740000000  0.5696930000000  0.5383100000000 1.0
C      1  0.4593860000000  0.5014810000000  0.5077610000000 1.0
C      1  0.4553250000000  0.5068490000000  0.4462260000000 1.0
C      1  0.5011780000000  0.5473860000000  0.4962550000000 1.0
C      1  0.5660890000000  0.4993000000000  0.5194400000000 1.0
C      1  0.5139640000000  0.4687750000000  0.4316220000000 1.0
C      1  0.5369730000000  0.5640270000000  0.5300050000000 1.0
C      1  0.5419880000000  0.5260980000000  0.5652760000000 1.0
C      1  0.5207990000000  0.5637080000000  0.4847040000000 1.0
C      1  0.5624260000000  0.5417120000000  0.4954000000000 1.0
C      1  0.4608420000000  0.4359770000000  0.5173090000000 1.0
C      1  0.5043830000000  0.4434380000000  0.5489430000000 1.0
C      1  0.4266400000000  0.5237370000000  0.5377260000000 1.0
END
