TITL C-176671-8546-1 -0.0207292714901748 125000 -413.011443785453 0 0 61 (C1) n - 1
REM
REM in /rds/project/t2_vol4/rds-t2-cs072/BORA/CARBON/from-Arr/AIRSS/Generating-Clusters/GAP-ML-2020/Only-C1/SD-CG/HFTN-CG
REM
REM
REM
REM
REM
REM ./C.cell (11c1c37f851c82e70ff6c80c92926a4b)
REM AIRSS Version 0.9.1 bugfix July 2018 build 013d7b7c2542+ Fri, 06 Jul 2018 19:26:36 +0100
REM compiler GCC version 9.3.0
REM options -cpp -mtune=generic -march=x86-64 -g -O0
REM seed -1713347189 2038002268 1827227166 2137636089 -1002001402 154666400 -1245327075 1866793703 1341463258 -106761771 58416695 -123018480 -1917746084 -275227263 -2014189544 -444885242 1187131496 -481210751 342875958 1212699899 -744198759 521033529 -1371896434 -1053303824 -1632838618 1780385709 -1154895385 1587700337 -999304134 1892893608 -777987290 1999442046 -1326573332
REM
CELL 1.54180   50.00000   50.00000   50.00000   90.00000   90.00000   90.00000
LATT -1
SFAC C  
C      1  0.5292200000000  0.5489310000000  0.4795290000000 1.0
C      1  0.4421980000000  0.5269910000000  0.4667490000000 1.0
C      1  0.5499930000000  0.5349270000000  0.4928510000000 1.0
C      1  0.4736430000000  0.5653870000000  0.5315360000000 1.0
C      1  0.5433310000000  0.4613610000000  0.5289090000000 1.0
C      1  0.5634500000000  0.4652190000000  0.4749900000000 1.0
C      1  0.4963250000000  0.5740690000000  0.5143240000000 1.0
C      1  0.4746540000000  0.4960000000000  0.4997720000000 1.0
C      1  0.4946500000000  0.5471450000000  0.5446370000000 1.0
C      1  0.4973430000000  0.5308930000000  0.5184890000000 1.0
C      1  0.5319450000000  0.4458250000000  0.5061180000000 1.0
C      1  0.4492470000000  0.5548560000000  0.5334570000000 1.0
C      1  0.5195680000000  0.4985690000000  0.4895300000000 1.0
C      1  0.5425870000000  0.5075760000000  0.5323800000000 1.0
C      1  0.5164340000000  0.5669430000000  0.5364930000000 1.0
C      1  0.5574430000000  0.4844470000000  0.5207930000000 1.0
C      1  0.5497880000000  0.5037280000000  0.4521280000000 1.0
C      1  0.4419290000000  0.5282970000000  0.5222780000000 1.0
C      1  0.5285750000000  0.4959800000000  0.5562810000000 1.0
C      1  0.4698630000000  0.5223080000000  0.5106800000000 1.0
C      1  0.4516590000000  0.4672940000000  0.4705760000000 1.0
C      1  0.4604900000000  0.5395950000000  0.4855730000000 1.0
C      1  0.4645390000000  0.5063520000000  0.5573520000000 1.0
C      1  0.4899530000000  0.4280040000000  0.5196070000000 1.0
C      1  0.5141630000000  0.5059440000000  0.5183900000000 1.0
C      1  0.5018230000000  0.5044430000000  0.4338230000000 1.0
C      1  0.4951390000000  0.4660930000000  0.5465750000000 1.0
C      1  0.4682410000000  0.4381880000000  0.5033020000000 1.0
C      1  0.4866990000000  0.5399790000000  0.4744140000000 1.0
C      1  0.4561200000000  0.5122940000000  0.4468540000000 1.0
C      1  0.5036710000000  0.5513700000000  0.4954150000000 1.0
C      1  0.5121310000000  0.4693560000000  0.4948600000000 1.0
C      1  0.4449710000000  0.5023630000000  0.5369320000000 1.0
C      1  0.5420340000000  0.5597600000000  0.5325070000000 1.0
C      1  0.5279360000000  0.5172690000000  0.4403450000000 1.0
C      1  0.4948820000000  0.4811820000000  0.5170090000000 1.0
C      1  0.5249400000000  0.4683670000000  0.5493540000000 1.0
C      1  0.5455900000000  0.4447700000000  0.4797290000000 1.0
C      1  0.5150790000000  0.4240440000000  0.5131910000000 1.0
C      1  0.4905030000000  0.4852470000000  0.4536710000000 1.0
C      1  0.5221790000000  0.5422500000000  0.4517650000000 1.0
C      1  0.5245610000000  0.4464810000000  0.4583300000000 1.0
C      1  0.5045620000000  0.5052250000000  0.5684620000000 1.0
C      1  0.4426800000000  0.4770090000000  0.5221990000000 1.0
C      1  0.4783230000000  0.4434250000000  0.5413550000000 1.0
C      1  0.4807130000000  0.5235940000000  0.4335130000000 1.0
C      1  0.5557380000000  0.4765230000000  0.4483160000000 1.0
C      1  0.4857280000000  0.5266630000000  0.5631770000000 1.0
C      1  0.5486990000000  0.5354170000000  0.5215650000000 1.0
C      1  0.5369480000000  0.4593270000000  0.4372240000000 1.0
C      1  0.4933420000000  0.5058900000000  0.4773630000000 1.0
C      1  0.5522830000000  0.5087900000000  0.4808320000000 1.0
C      1  0.4931620000000  0.5447460000000  0.4469570000000 1.0
C      1  0.4720950000000  0.4489520000000  0.4776300000000 1.0
C      1  0.4484970000000  0.4822640000000  0.4945470000000 1.0
C      1  0.4838580000000  0.4858280000000  0.5646310000000 1.0
C      1  0.4992420000000  0.4597240000000  0.4693950000000 1.0
C      1  0.4612860000000  0.4850860000000  0.4503220000000 1.0
C      1  0.4327710000000  0.5323810000000  0.4919800000000 1.0
C      1  0.4556710000000  0.4528120000000  0.5252740000000 1.0
C      1  0.5649150000000  0.4862450000000  0.4937610000000 1.0
END
