TITL C-173941-9352-2 -0.172799886824349 125000 -878.784309480586 0 0 125 (C1) n - 1
REM
REM in /rds/project/t2_vol4/rds-t2-cs072/BORA/CARBON/from-Arr/AIRSS/Generating-Clusters/GAP-ML-2020/Only-C1/SD-CG/HFTN-CG
REM
REM
REM
REM
REM
REM ./C.cell (11c1c37f851c82e70ff6c80c92926a4b)
REM AIRSS Version 0.9.1 bugfix July 2018 build 013d7b7c2542+ Fri, 06 Jul 2018 19:26:36 +0100
REM compiler GCC version 9.3.0
REM options -cpp -mtune=generic -march=x86-64 -g -O0
REM seed -2122253512 1653847626 -16224472 -1736852757 174347247 1947639749 832936498 943485254 15803543 -35665196 -2141391765 1668547114 -126172895 1156731280 -1811963000 -1767533795 -370444394 -1808402866 -836026125 2101413825 -2038152587 -1225348748 -245227998 1258894277 -802739446 1198211934 103636438 -259297946 -1220414349 -46122372 -275485413 -2023775231 372186923
REM
CELL 1.54180   50.00000   50.00000   50.00000   90.00000   90.00000   90.00000
LATT -1
SFAC C  
C      1  0.5151600000000  0.5936910000000  0.5118920000000 1.0
C      1  0.4520850000000  0.4169550000000  0.5187290000000 1.0
C      1  0.5502270000000  0.5305940000000  0.5673140000000 1.0
C      1  0.4253750000000  0.4758030000000  0.5512030000000 1.0
C      1  0.4305270000000  0.4753210000000  0.4326290000000 1.0
C      1  0.4645910000000  0.5334860000000  0.4423100000000 1.0
C      1  0.4156860000000  0.4738830000000  0.4574790000000 1.0
C      1  0.5030760000000  0.5344930000000  0.4890170000000 1.0
C      1  0.4478120000000  0.4921620000000  0.4975840000000 1.0
C      1  0.5453310000000  0.4899830000000  0.5023370000000 1.0
C      1  0.5860750000000  0.4570820000000  0.5257190000000 1.0
C      1  0.5296400000000  0.4681550000000  0.5091490000000 1.0
C      1  0.4899930000000  0.4357270000000  0.4415110000000 1.0
C      1  0.5258170000000  0.4156900000000  0.5213990000000 1.0
C      1  0.4365110000000  0.5018630000000  0.4197800000000 1.0
C      1  0.5025900000000  0.5459780000000  0.5276910000000 1.0
C      1  0.4790070000000  0.5601470000000  0.4436310000000 1.0
C      1  0.5983440000000  0.5063940000000  0.4990460000000 1.0
C      1  0.4316510000000  0.5459860000000  0.5226300000000 1.0
C      1  0.5941960000000  0.4578760000000  0.4984360000000 1.0
C      1  0.5797600000000  0.4530050000000  0.4548400000000 1.0
C      1  0.4465050000000  0.4688440000000  0.5702190000000 1.0
C      1  0.5915120000000  0.4796630000000  0.4557810000000 1.0
C      1  0.5711450000000  0.5580970000000  0.4887640000000 1.0
C      1  0.4946070000000  0.4808560000000  0.5853910000000 1.0
C      1  0.5524120000000  0.4478890000000  0.4495590000000 1.0
C      1  0.4830400000000  0.5503560000000  0.5050560000000 1.0
C      1  0.4955740000000  0.4651020000000  0.4336500000000 1.0
C      1  0.4583090000000  0.5783670000000  0.5434780000000 1.0
C      1  0.5366450000000  0.5822960000000  0.4692000000000 1.0
C      1  0.6001680000000  0.4828660000000  0.4838000000000 1.0
C      1  0.4901220000000  0.4171100000000  0.5502070000000 1.0
C      1  0.5630370000000  0.5174300000000  0.4256360000000 1.0
C      1  0.4542020000000  0.5397920000000  0.5035290000000 1.0
C      1  0.5793680000000  0.5031800000000  0.4448930000000 1.0
C      1  0.5903740000000  0.5039860000000  0.5263830000000 1.0
C      1  0.4187640000000  0.5008430000000  0.4923020000000 1.0
C      1  0.5640120000000  0.5172790000000  0.4673750000000 1.0
C      1  0.5112590000000  0.5823990000000  0.4565870000000 1.0
C      1  0.5841580000000  0.4812180000000  0.5414190000000 1.0
C      1  0.5616220000000  0.4797210000000  0.5603310000000 1.0
C      1  0.4392830000000  0.5738300000000  0.5224640000000 1.0
C      1  0.5175790000000  0.4221260000000  0.5474160000000 1.0
C      1  0.4426740000000  0.4165320000000  0.4930670000000 1.0
C      1  0.4400840000000  0.5539550000000  0.4807310000000 1.0
C      1  0.5016040000000  0.4167550000000  0.5056980000000 1.0
C      1  0.4219200000000  0.4533490000000  0.5326630000000 1.0
C      1  0.4398970000000  0.5360500000000  0.5657650000000 1.0
C      1  0.5095270000000  0.5094840000000  0.4470470000000 1.0
C      1  0.5092460000000  0.5768070000000  0.5369880000000 1.0
C      1  0.4241700000000  0.5270800000000  0.5433290000000 1.0
C      1  0.5563080000000  0.5679340000000  0.5384580000000 1.0
C      1  0.4885480000000  0.5099590000000  0.4830660000000 1.0
C      1  0.5518410000000  0.4225380000000  0.5142150000000 1.0
C      1  0.4396160000000  0.4311310000000  0.4705050000000 1.0
C      1  0.4594000000000  0.5572420000000  0.5632880000000 1.0
C      1  0.4971580000000  0.4823510000000  0.4911960000000 1.0
C      1  0.4861700000000  0.4779010000000  0.5231150000000 1.0
C      1  0.5282090000000  0.4844530000000  0.4106810000000 1.0
C      1  0.5035760000000  0.5304240000000  0.5754100000000 1.0
C      1  0.4057660000000  0.4888960000000  0.5132770000000 1.0
C      1  0.4533120000000  0.4608010000000  0.4369580000000 1.0
C      1  0.5359240000000  0.4710600000000  0.4613250000000 1.0
C      1  0.5664350000000  0.5427280000000  0.5461270000000 1.0
C      1  0.5006270000000  0.4545490000000  0.5766730000000 1.0
C      1  0.5002730000000  0.4358340000000  0.4820880000000 1.0
C      1  0.5106450000000  0.4238190000000  0.4576020000000 1.0
C      1  0.5810470000000  0.4402780000000  0.4801130000000 1.0
C      1  0.5141780000000  0.4726790000000  0.5339170000000 1.0
C      1  0.4383980000000  0.5411350000000  0.4555550000000 1.0
C      1  0.4203540000000  0.4537540000000  0.4780480000000 1.0
C      1  0.5574190000000  0.4246350000000  0.4859090000000 1.0
C      1  0.4785750000000  0.4631110000000  0.4790180000000 1.0
C      1  0.4750210000000  0.4764440000000  0.4512390000000 1.0
C      1  0.4450380000000  0.5795410000000  0.4940530000000 1.0
C      1  0.5657870000000  0.4393680000000  0.5344330000000 1.0
C      1  0.4538530000000  0.4425080000000  0.5634150000000 1.0
C      1  0.4150640000000  0.4997060000000  0.5390630000000 1.0
C      1  0.5217700000000  0.5358560000000  0.4377120000000 1.0
C      1  0.5239080000000  0.5015640000000  0.5419280000000 1.0
C      1  0.5518920000000  0.4533310000000  0.5563230000000 1.0
C      1  0.4796950000000  0.4126300000000  0.5242880000000 1.0
C      1  0.5409520000000  0.5017720000000  0.5676040000000 1.0
C      1  0.5786580000000  0.5299850000000  0.4921070000000 1.0
C      1  0.5132080000000  0.5025370000000  0.5837590000000 1.0
C      1  0.5206500000000  0.4824250000000  0.4402310000000 1.0
C      1  0.4120270000000  0.4608930000000  0.5070200000000 1.0
C      1  0.4802150000000  0.4352140000000  0.5695410000000 1.0
C      1  0.4550060000000  0.5038300000000  0.6062520000000 1.0
C      1  0.4814560000000  0.5080130000000  0.4548990000000 1.0
C      1  0.5285440000000  0.5473100000000  0.5714800000000 1.0
C      1  0.5562710000000  0.5619410000000  0.4639140000000 1.0
C      1  0.4648900000000  0.4847070000000  0.5875520000000 1.0
C      1  0.4691710000000  0.5926270000000  0.4863340000000 1.0
C      1  0.5226370000000  0.4493900000000  0.5573840000000 1.0
C      1  0.4868950000000  0.5994620000000  0.5084530000000 1.0
C      1  0.4786550000000  0.5048600000000  0.5304470000000 1.0
C      1  0.5402180000000  0.5130720000000  0.5186140000000 1.0
C      1  0.5233120000000  0.5340660000000  0.5083900000000 1.0
C      1  0.4996920000000  0.5208980000000  0.5439190000000 1.0
C      1  0.5512760000000  0.4917720000000  0.4760240000000 1.0
C      1  0.4173210000000  0.5223890000000  0.4483000000000 1.0
C      1  0.5593370000000  0.5746820000000  0.5103170000000 1.0
C      1  0.5414820000000  0.5087930000000  0.4067170000000 1.0
C      1  0.4894690000000  0.5073350000000  0.4066050000000 1.0
C      1  0.4820030000000  0.5900600000000  0.5352610000000 1.0
C      1  0.5401570000000  0.4250270000000  0.4616020000000 1.0
C      1  0.4774330000000  0.5428570000000  0.5815160000000 1.0
C      1  0.5173180000000  0.4616160000000  0.4845650000000 1.0
C      1  0.5068270000000  0.5605240000000  0.4384060000000 1.0
C      1  0.4640660000000  0.4688720000000  0.5039630000000 1.0
C      1  0.4592450000000  0.4352680000000  0.4469510000000 1.0
C      1  0.4397500000000  0.4327940000000  0.5401080000000 1.0
C      1  0.5697520000000  0.5246420000000  0.5242940000000 1.0
C      1  0.4651350000000  0.5131000000000  0.5044360000000 1.0
C      1  0.5510140000000  0.5370800000000  0.4469880000000 1.0
C      1  0.4152940000000  0.5186850000000  0.4212230000000 1.0
C      1  0.5383800000000  0.5894000000000  0.4972660000000 1.0
C      1  0.4561870000000  0.5236150000000  0.5878130000000 1.0
C      1  0.4997780000000  0.4802770000000  0.4067250000000 1.0
C      1  0.4632720000000  0.5157380000000  0.4171170000000 1.0
C      1  0.5320460000000  0.5708900000000  0.5541130000000 1.0
C      1  0.4825330000000  0.5832250000000  0.4624380000000 1.0
C      1  0.4104580000000  0.5004020000000  0.4658800000000 1.0
C      1  0.5159320000000  0.5222630000000  0.4114200000000 1.0
END
