TITL C-17754-6591-4 3.29614224322576 125000 -763.309493908898 0 0 110 (C1) n - 1
REM
REM in /rds/project/t2_vol4/rds-t2-cs072/BORA/CARBON/from-Arr/AIRSS/Generating-Clusters/GAP-ML-2020/Only-C1/SD-CG/HFTN-CG
REM
REM
REM
REM
REM
REM ./C.cell (11c1c37f851c82e70ff6c80c92926a4b)
REM AIRSS Version 0.9.1 bugfix July 2018 build 013d7b7c2542+ Fri, 06 Jul 2018 19:26:36 +0100
REM compiler GCC version 9.3.0
REM options -cpp -mtune=generic -march=x86-64 -g -O0
REM seed -264024728 -965249964 -1317477327 363951029 -1908596999 -1105194093 -643520743 -1101286103 276234850 531535031 -1371192124 -1350678646 -798167969 -1394997452 -392698488 1948567730 1148349383 -1880968051 53460965 1617383767 188605736 1411906529 2103364847 -850605122 649096633 1897294536 -217760169 -299370230 299348350 1078690365 1906899549 -1149302261 30251999
REM
CELL 1.54180   50.00000   50.00000   50.00000   90.00000   90.00000   90.00000
LATT -1
SFAC C  
C      1  0.5782860000000  0.4660560000000  0.5245820000000 1.0
C      1  0.4247080000000  0.4538840000000  0.4746870000000 1.0
C      1  0.5129230000000  0.4283850000000  0.4490210000000 1.0
C      1  0.4334380000000  0.5279260000000  0.5653230000000 1.0
C      1  0.4418800000000  0.4350980000000  0.5266550000000 1.0
C      1  0.5377640000000  0.4615330000000  0.4421780000000 1.0
C      1  0.4489940000000  0.4181890000000  0.5042240000000 1.0
C      1  0.5314680000000  0.4677800000000  0.5074590000000 1.0
C      1  0.5195000000000  0.4523350000000  0.5535970000000 1.0
C      1  0.4837890000000  0.4198110000000  0.5370900000000 1.0
C      1  0.5130480000000  0.5803530000000  0.4961290000000 1.0
C      1  0.5345360000000  0.4131090000000  0.5493780000000 1.0
C      1  0.5313760000000  0.5512870000000  0.4275150000000 1.0
C      1  0.4674480000000  0.5532790000000  0.5506730000000 1.0
C      1  0.5125890000000  0.4977630000000  0.4599350000000 1.0
C      1  0.5485630000000  0.4918980000000  0.5522700000000 1.0
C      1  0.4249300000000  0.5312250000000  0.5046350000000 1.0
C      1  0.4549020000000  0.4804330000000  0.4402760000000 1.0
C      1  0.4542880000000  0.4746340000000  0.5428640000000 1.0
C      1  0.4680570000000  0.5083250000000  0.4855930000000 1.0
C      1  0.4491010000000  0.4623560000000  0.4894610000000 1.0
C      1  0.4870770000000  0.4596850000000  0.4213140000000 1.0
C      1  0.4586230000000  0.5217260000000  0.5822700000000 1.0
C      1  0.5365950000000  0.5781580000000  0.5117630000000 1.0
C      1  0.5345800000000  0.5737440000000  0.5408100000000 1.0
C      1  0.5888980000000  0.5300310000000  0.4998630000000 1.0
C      1  0.5558320000000  0.5624660000000  0.5544080000000 1.0
C      1  0.4735200000000  0.4060820000000  0.5096410000000 1.0
C      1  0.5725450000000  0.5267920000000  0.4763340000000 1.0
C      1  0.5347160000000  0.5245010000000  0.4136000000000 1.0
C      1  0.5303080000000  0.4958470000000  0.5742310000000 1.0
C      1  0.4448690000000  0.4331370000000  0.4778470000000 1.0
C      1  0.4284360000000  0.5535960000000  0.5218040000000 1.0
C      1  0.4390700000000  0.4638960000000  0.5196010000000 1.0
C      1  0.4783320000000  0.5502860000000  0.4986090000000 1.0
C      1  0.5431430000000  0.4905020000000  0.4486570000000 1.0
C      1  0.4657170000000  0.4570910000000  0.5616230000000 1.0
C      1  0.4157580000000  0.5274300000000  0.4757670000000 1.0
C      1  0.4823460000000  0.5584850000000  0.4279390000000 1.0
C      1  0.5839540000000  0.4787890000000  0.4791490000000 1.0
C      1  0.4890380000000  0.5743020000000  0.5113440000000 1.0
C      1  0.5131410000000  0.4500950000000  0.4302460000000 1.0
C      1  0.5164370000000  0.4546250000000  0.4845970000000 1.0
C      1  0.4962510000000  0.4940220000000  0.5283870000000 1.0
C      1  0.5138670000000  0.5196410000000  0.5287670000000 1.0
C      1  0.5360800000000  0.4426360000000  0.4651210000000 1.0
C      1  0.4268720000000  0.5438070000000  0.4551910000000 1.0
C      1  0.5805160000000  0.5537500000000  0.5133250000000 1.0
C      1  0.5294160000000  0.5258870000000  0.5787140000000 1.0
C      1  0.4656580000000  0.4805820000000  0.4724340000000 1.0
C      1  0.5968290000000  0.5081380000000  0.5162130000000 1.0
C      1  0.4138400000000  0.4787060000000  0.4825460000000 1.0
C      1  0.5135930000000  0.5735300000000  0.4674560000000 1.0
C      1  0.4969190000000  0.5178880000000  0.4477670000000 1.0
C      1  0.4749990000000  0.5251940000000  0.4634630000000 1.0
C      1  0.4161210000000  0.5009320000000  0.4649470000000 1.0
C      1  0.4923300000000  0.4959050000000  0.4984800000000 1.0
C      1  0.4727350000000  0.4993340000000  0.5743520000000 1.0
C      1  0.5104520000000  0.5678610000000  0.5550010000000 1.0
C      1  0.5061040000000  0.5539660000000  0.4147960000000 1.0
C      1  0.4872430000000  0.5712250000000  0.5393910000000 1.0
C      1  0.4574560000000  0.5291810000000  0.5059660000000 1.0
C      1  0.5085610000000  0.4224550000000  0.5528590000000 1.0
C      1  0.4388940000000  0.5272060000000  0.4335650000000 1.0
C      1  0.4837240000000  0.4729380000000  0.5782340000000 1.0
C      1  0.4177340000000  0.5116430000000  0.5502530000000 1.0
C      1  0.4635700000000  0.4501780000000  0.4357630000000 1.0
C      1  0.4838690000000  0.5139880000000  0.4150090000000 1.0
C      1  0.4635160000000  0.5250820000000  0.5336960000000 1.0
C      1  0.4933480000000  0.4439080000000  0.5206150000000 1.0
C      1  0.4171690000000  0.4826860000000  0.5110680000000 1.0
C      1  0.5366340000000  0.5606170000000  0.4547700000000 1.0
C      1  0.4634370000000  0.4298910000000  0.4549420000000 1.0
C      1  0.5066260000000  0.5318630000000  0.5026450000000 1.0
C      1  0.4783830000000  0.5416360000000  0.5750710000000 1.0
C      1  0.5166250000000  0.5095190000000  0.4867490000000 1.0
C      1  0.4383720000000  0.5513870000000  0.5477850000000 1.0
C      1  0.5486830000000  0.5044860000000  0.4234560000000 1.0
C      1  0.5402040000000  0.4963030000000  0.5000810000000 1.0
C      1  0.4753480000000  0.4863030000000  0.4187340000000 1.0
C      1  0.5619790000000  0.4982780000000  0.4737320000000 1.0
C      1  0.5097180000000  0.4665800000000  0.5291140000000 1.0
C      1  0.4635460000000  0.5355160000000  0.4216340000000 1.0
C      1  0.4699000000000  0.5558010000000  0.4706640000000 1.0
C      1  0.5549300000000  0.4496630000000  0.5152980000000 1.0
C      1  0.5590220000000  0.5659310000000  0.4985350000000 1.0
C      1  0.4710900000000  0.4987550000000  0.5437860000000 1.0
C      1  0.5597970000000  0.4394330000000  0.4844340000000 1.0
C      1  0.4327390000000  0.5000210000000  0.4411340000000 1.0
C      1  0.5896600000000  0.5071900000000  0.5441680000000 1.0
C      1  0.5068070000000  0.5456340000000  0.5744700000000 1.0
C      1  0.4150350000000  0.5081280000000  0.5230380000000 1.0
C      1  0.5442160000000  0.4372200000000  0.5404450000000 1.0
C      1  0.5542110000000  0.5379160000000  0.5705810000000 1.0
C      1  0.5809170000000  0.4521510000000  0.4735760000000 1.0
C      1  0.4882130000000  0.5699800000000  0.4538280000000 1.0
C      1  0.5052650000000  0.4326170000000  0.4985290000000 1.0
C      1  0.5752240000000  0.4827330000000  0.5477880000000 1.0
C      1  0.4606680000000  0.4321940000000  0.5488990000000 1.0
C      1  0.4960170000000  0.4759760000000  0.4751890000000 1.0
C      1  0.5407290000000  0.5095520000000  0.5270010000000 1.0
C      1  0.5926680000000  0.4818270000000  0.5058180000000 1.0
C      1  0.4426250000000  0.5621580000000  0.4664860000000 1.0
C      1  0.5797300000000  0.5536830000000  0.5409790000000 1.0
C      1  0.5071390000000  0.5271940000000  0.4029620000000 1.0
C      1  0.5573880000000  0.5522230000000  0.4731730000000 1.0
C      1  0.4918710000000  0.4104290000000  0.4881630000000 1.0
C      1  0.5800940000000  0.5298740000000  0.5573610000000 1.0
C      1  0.4890660000000  0.4177350000000  0.4607520000000 1.0
C      1  0.5132320000000  0.4724080000000  0.5758890000000 1.0
END
