TITL C-176660-6783-7 -0.12037746017049 125000 -311.512875616988 0 0 46 (C1) n - 1
REM
REM in /rds/project/t2_vol4/rds-t2-cs072/BORA/CARBON/from-Arr/AIRSS/Generating-Clusters/GAP-ML-2020/Only-C1/SD-CG/HFTN-CG
REM
REM
REM
REM
REM
REM ./C.cell (11c1c37f851c82e70ff6c80c92926a4b)
REM AIRSS Version 0.9.1 bugfix July 2018 build 013d7b7c2542+ Fri, 06 Jul 2018 19:26:36 +0100
REM compiler GCC version 9.3.0
REM options -cpp -mtune=generic -march=x86-64 -g -O0
REM seed -1042426550 272448198 -1312354869 1136146589 1289660723 -1638399989 -1534988026 206557942 -1629464044 363398055 -1442576551 1757779793 1736122953 1331137326 -1141209062 1373317222 2146206970 -1782885230 -880105263 -1676908482 -99259257 -816956517 -1801881906 -2078893892 -257114472 -2005677967 627017118 -1081203673 1695773115 758655289 -1594969287 -414786918 -1201190226
REM
CELL 1.54180   50.00000   50.00000   50.00000   90.00000   90.00000   90.00000
LATT -1
SFAC C  
C      1  0.4857150000000  0.4919220000000  0.5207730000000 1.0
C      1  0.5618780000000  0.5231120000000  0.5230360000000 1.0
C      1  0.4723070000000  0.4498550000000  0.5295760000000 1.0
C      1  0.4694340000000  0.4433750000000  0.5015210000000 1.0
C      1  0.4899510000000  0.4623250000000  0.4507010000000 1.0
C      1  0.4749020000000  0.5209910000000  0.5211970000000 1.0
C      1  0.5676590000000  0.5432160000000  0.5038810000000 1.0
C      1  0.5013950000000  0.5379920000000  0.4821850000000 1.0
C      1  0.5136080000000  0.4402150000000  0.5121450000000 1.0
C      1  0.4563960000000  0.5165530000000  0.4752570000000 1.0
C      1  0.4834140000000  0.5428300000000  0.4462520000000 1.0
C      1  0.4781920000000  0.5557120000000  0.4715610000000 1.0
C      1  0.4460860000000  0.5191870000000  0.5194760000000 1.0
C      1  0.4689310000000  0.5012240000000  0.4304390000000 1.0
C      1  0.5085420000000  0.4657530000000  0.5543220000000 1.0
C      1  0.4995180000000  0.4462050000000  0.5364350000000 1.0
C      1  0.5445560000000  0.4765710000000  0.5212080000000 1.0
C      1  0.4656300000000  0.4774090000000  0.5388890000000 1.0
C      1  0.4917460000000  0.4866840000000  0.4388350000000 1.0
C      1  0.4400790000000  0.5324610000000  0.4934240000000 1.0
C      1  0.5340410000000  0.4904980000000  0.4651190000000 1.0
C      1  0.5198340000000  0.5484480000000  0.5015480000000 1.0
C      1  0.5289160000000  0.5064740000000  0.5567310000000 1.0
C      1  0.4641470000000  0.5221980000000  0.4468280000000 1.0
C      1  0.5060950000000  0.4490490000000  0.4672900000000 1.0
C      1  0.5007790000000  0.5104800000000  0.5607710000000 1.0
C      1  0.4366770000000  0.4774630000000  0.5014950000000 1.0
C      1  0.5085570000000  0.5302610000000  0.4536740000000 1.0
C      1  0.4588170000000  0.4668710000000  0.4894170000000 1.0
C      1  0.4844760000000  0.4850250000000  0.4932370000000 1.0
C      1  0.5513330000000  0.5060620000000  0.4810380000000 1.0
C      1  0.5599620000000  0.5335590000000  0.4772750000000 1.0
C      1  0.4541390000000  0.5541390000000  0.4835930000000 1.0
C      1  0.4424270000000  0.4913830000000  0.5244910000000 1.0
C      1  0.5558740000000  0.4993750000000  0.5085570000000 1.0
C      1  0.4933850000000  0.5308690000000  0.5414300000000 1.0
C      1  0.4824190000000  0.5139220000000  0.4894520000000 1.0
C      1  0.5296250000000  0.4639860000000  0.4752190000000 1.0
C      1  0.4949500000000  0.4370790000000  0.4909960000000 1.0
C      1  0.5339250000000  0.4579490000000  0.5029870000000 1.0
C      1  0.5464360000000  0.5545950000000  0.4915550000000 1.0
C      1  0.5402960000000  0.5279500000000  0.5409480000000 1.0
C      1  0.4872920000000  0.4848250000000  0.5598390000000 1.0
C      1  0.5329600000000  0.4795750000000  0.5479690000000 1.0
C      1  0.5149340000000  0.5030940000000  0.4482020000000 1.0
C      1  0.5177680000000  0.5412810000000  0.5292280000000 1.0
END
