TITL C-176667-8383-9 -0.0106509200958485 125000 -649.579435541988 0 0 91 (C1) n - 1
REM
REM in /rds/project/t2_vol4/rds-t2-cs072/BORA/CARBON/from-Arr/AIRSS/Generating-Clusters/GAP-ML-2020/Only-C1/SD-CG/HFTN-CG
REM
REM
REM
REM
REM
REM ./C.cell (11c1c37f851c82e70ff6c80c92926a4b)
REM AIRSS Version 0.9.1 bugfix July 2018 build 013d7b7c2542+ Fri, 06 Jul 2018 19:26:36 +0100
REM compiler GCC version 9.3.0
REM options -cpp -mtune=generic -march=x86-64 -g -O0
REM seed -183321245 -591238536 -1141724332 -793198549 -78022340 -1878049917 -1668601897 1085019675 -334372223 2037588099 1955006892 -1367506060 241819801 -213426376 383110864 226777534 -1301517305 173250646 -303794488 1201181460 -1959200370 1543711150 -1594977119 -105868142 -547075011 1270582542 -1243590288 -690291184 2281032 -1870842467 2010176517 -1242136664 525502106
REM
CELL 1.54180   50.00000   50.00000   50.00000   90.00000   90.00000   90.00000
LATT -1
SFAC C  
C      1  0.4608380000000  0.4329580000000  0.5095180000000 1.0
C      1  0.5443070000000  0.5352270000000  0.4726760000000 1.0
C      1  0.4943910000000  0.4900680000000  0.5659310000000 1.0
C      1  0.4514950000000  0.5558300000000  0.5558590000000 1.0
C      1  0.4574810000000  0.4483940000000  0.4613170000000 1.0
C      1  0.5186410000000  0.5115520000000  0.5099420000000 1.0
C      1  0.5343110000000  0.5715910000000  0.5079030000000 1.0
C      1  0.4639310000000  0.5669920000000  0.4639720000000 1.0
C      1  0.4671240000000  0.4875960000000  0.5568090000000 1.0
C      1  0.4896120000000  0.4185560000000  0.4693830000000 1.0
C      1  0.5203190000000  0.4117540000000  0.4916710000000 1.0
C      1  0.4411860000000  0.5501080000000  0.4698640000000 1.0
C      1  0.5295270000000  0.4335410000000  0.5335060000000 1.0
C      1  0.4233050000000  0.5028290000000  0.5235990000000 1.0
C      1  0.4918580000000  0.5210300000000  0.4818570000000 1.0
C      1  0.4529080000000  0.5701930000000  0.5104320000000 1.0
C      1  0.4221560000000  0.5095770000000  0.4780740000000 1.0
C      1  0.4953480000000  0.5299090000000  0.5092960000000 1.0
C      1  0.5592610000000  0.4433580000000  0.4953980000000 1.0
C      1  0.5653130000000  0.5362920000000  0.5185930000000 1.0
C      1  0.5129360000000  0.4773320000000  0.5471400000000 1.0
C      1  0.4680420000000  0.5803500000000  0.4887730000000 1.0
C      1  0.4900250000000  0.5633740000000  0.4503370000000 1.0
C      1  0.4858940000000  0.4824280000000  0.5070600000000 1.0
C      1  0.5358280000000  0.5510080000000  0.5519470000000 1.0
C      1  0.5084850000000  0.5584220000000  0.5580280000000 1.0
C      1  0.4289030000000  0.4762300000000  0.5112240000000 1.0
C      1  0.4727240000000  0.4764060000000  0.4258170000000 1.0
C      1  0.5836980000000  0.4936920000000  0.4386580000000 1.0
C      1  0.4935060000000  0.5381810000000  0.5730620000000 1.0
C      1  0.4386150000000  0.4693380000000  0.4594210000000 1.0
C      1  0.4348780000000  0.5499470000000  0.4980550000000 1.0
C      1  0.4954210000000  0.5423270000000  0.4312850000000 1.0
C      1  0.5705150000000  0.4912780000000  0.5272310000000 1.0
C      1  0.5641510000000  0.4661360000000  0.5394050000000 1.0
C      1  0.5485020000000  0.5263340000000  0.5605280000000 1.0
C      1  0.5538420000000  0.4450630000000  0.5232310000000 1.0
C      1  0.5118940000000  0.4850960000000  0.5180970000000 1.0
C      1  0.5191050000000  0.4887660000000  0.4620110000000 1.0
C      1  0.4616860000000  0.4597210000000  0.5480270000000 1.0
C      1  0.5095890000000  0.5736190000000  0.4693520000000 1.0
C      1  0.4511350000000  0.5104950000000  0.5664630000000 1.0
C      1  0.5418700000000  0.4266900000000  0.4792520000000 1.0
C      1  0.4250840000000  0.4813510000000  0.4821270000000 1.0
C      1  0.5324340000000  0.4676550000000  0.4757440000000 1.0
C      1  0.4743340000000  0.5227100000000  0.4241020000000 1.0
C      1  0.4873550000000  0.4990610000000  0.4155260000000 1.0
C      1  0.5578560000000  0.4644740000000  0.5673420000000 1.0
C      1  0.5326320000000  0.4556380000000  0.5777900000000 1.0
C      1  0.4801090000000  0.4949790000000  0.4822940000000 1.0
C      1  0.5348100000000  0.5086960000000  0.5782040000000 1.0
C      1  0.4735800000000  0.5249500000000  0.5243240000000 1.0
C      1  0.5471250000000  0.5301020000000  0.4423720000000 1.0
C      1  0.5490460000000  0.5581880000000  0.5272320000000 1.0
C      1  0.5309060000000  0.4433810000000  0.4573640000000 1.0
C      1  0.5115040000000  0.4196450000000  0.5176780000000 1.0
C      1  0.5692540000000  0.5151000000000  0.4336890000000 1.0
C      1  0.5027600000000  0.3959900000000  0.4765830000000 1.0
C      1  0.5682540000000  0.4732970000000  0.4518980000000 1.0
C      1  0.4645890000000  0.4297730000000  0.4809820000000 1.0
C      1  0.4917760000000  0.4814170000000  0.4610790000000 1.0
C      1  0.5024790000000  0.4368000000000  0.4513210000000 1.0
C      1  0.4702100000000  0.4980940000000  0.5258650000000 1.0
C      1  0.4292190000000  0.5160430000000  0.5485250000000 1.0
C      1  0.4330540000000  0.5258890000000  0.4569730000000 1.0
C      1  0.4224340000000  0.5233430000000  0.5026130000000 1.0
C      1  0.4953530000000  0.5858710000000  0.4912200000000 1.0
C      1  0.5460160000000  0.4607450000000  0.4380370000000 1.0
C      1  0.5285590000000  0.4822880000000  0.4324950000000 1.0
C      1  0.5664950000000  0.5171400000000  0.5395340000000 1.0
C      1  0.5623480000000  0.4713400000000  0.4811390000000 1.0
C      1  0.5061960000000  0.5129140000000  0.5766080000000 1.0
C      1  0.5343850000000  0.5631900000000  0.4802610000000 1.0
C      1  0.4483670000000  0.5138710000000  0.4360800000000 1.0
C      1  0.5156980000000  0.5021920000000  0.4168730000000 1.0
C      1  0.5207910000000  0.5139210000000  0.4787800000000 1.0
C      1  0.4846410000000  0.4419180000000  0.5492700000000 1.0
C      1  0.4651890000000  0.5354410000000  0.5713230000000 1.0
C      1  0.4941590000000  0.5753300000000  0.5393920000000 1.0
C      1  0.5086720000000  0.5823570000000  0.5156980000000 1.0
C      1  0.5143670000000  0.4483650000000  0.5542470000000 1.0
C      1  0.4839490000000  0.4258150000000  0.5257360000000 1.0
C      1  0.4478840000000  0.4855820000000  0.4366500000000 1.0
C      1  0.4653800000000  0.5718540000000  0.5367950000000 1.0
C      1  0.5433090000000  0.4820720000000  0.5830810000000 1.0
C      1  0.5211010000000  0.5284930000000  0.4274580000000 1.0
C      1  0.4288230000000  0.5431660000000  0.5467060000000 1.0
C      1  0.5649200000000  0.5236970000000  0.4931980000000 1.0
C      1  0.5696250000000  0.4950980000000  0.4987300000000 1.0
C      1  0.4823160000000  0.4564850000000  0.4458760000000 1.0
C      1  0.4460970000000  0.4546970000000  0.5231840000000 1.0
END
