TITL C-173963-9324-4 -0.0339149624263385 125000 -895.884683721916 0 0 128 (C1) n - 1
REM
REM in /rds/project/t2_vol4/rds-t2-cs072/BORA/CARBON/from-Arr/AIRSS/Generating-Clusters/GAP-ML-2020/Only-C1/SD-CG/HFTN-CG
REM
REM
REM
REM
REM
REM ./C.cell (11c1c37f851c82e70ff6c80c92926a4b)
REM AIRSS Version 0.9.1 bugfix July 2018 build 013d7b7c2542+ Fri, 06 Jul 2018 19:26:36 +0100
REM compiler GCC version 9.3.0
REM options -cpp -mtune=generic -march=x86-64 -g -O0
REM seed -1947143047 -537033077 443469513 -1237101070 493298116 1497390587 -1128351604 -787303025 -6183818 -750709787 46072768 -650467263 1321919450 -632495761 1856639514 -1296372659 -1553444089 -902526076 522119030 -1938630603 1331875230 764143280 -615546997 1442493133 59352469 -714709764 -354557649 1810620522 1967365250 -818752302 384331988 558225232 -2076737048
REM
CELL 1.54180   50.00000   50.00000   50.00000   90.00000   90.00000   90.00000
LATT -1
SFAC C  
C      1  0.4607120000000  0.4268610000000  0.5554970000000 1.0
C      1  0.4698950000000  0.5782420000000  0.4520660000000 1.0
C      1  0.5547450000000  0.4212280000000  0.5331150000000 1.0
C      1  0.4966910000000  0.4998720000000  0.5889680000000 1.0
C      1  0.5135580000000  0.5908660000000  0.4737660000000 1.0
C      1  0.4109550000000  0.4261850000000  0.5035620000000 1.0
C      1  0.4817570000000  0.4232980000000  0.5368380000000 1.0
C      1  0.5443250000000  0.5068870000000  0.4996200000000 1.0
C      1  0.4413560000000  0.5480110000000  0.4288970000000 1.0
C      1  0.4704950000000  0.4962420000000  0.4925760000000 1.0
C      1  0.5823540000000  0.4464040000000  0.4916570000000 1.0
C      1  0.5009930000000  0.5456360000000  0.5377490000000 1.0
C      1  0.4242910000000  0.5254150000000  0.4260990000000 1.0
C      1  0.5010580000000  0.4182510000000  0.4766610000000 1.0
C      1  0.4117160000000  0.4823530000000  0.5567650000000 1.0
C      1  0.5802080000000  0.5496720000000  0.4551940000000 1.0
C      1  0.5107430000000  0.5327910000000  0.4562450000000 1.0
C      1  0.4394270000000  0.5021350000000  0.4165750000000 1.0
C      1  0.5745630000000  0.5454610000000  0.4832070000000 1.0
C      1  0.4431700000000  0.5650320000000  0.4523050000000 1.0
C      1  0.5018780000000  0.5336290000000  0.5060870000000 1.0
C      1  0.5413450000000  0.4835450000000  0.5838470000000 1.0
C      1  0.5299420000000  0.4345450000000  0.5734060000000 1.0
C      1  0.5469620000000  0.4166510000000  0.5059330000000 1.0
C      1  0.4487870000000  0.4982310000000  0.5350940000000 1.0
C      1  0.5623610000000  0.4269680000000  0.4848110000000 1.0
C      1  0.4352620000000  0.4637530000000  0.4962930000000 1.0
C      1  0.4804480000000  0.5247820000000  0.4069110000000 1.0
C      1  0.5790680000000  0.4881140000000  0.5624240000000 1.0
C      1  0.5285610000000  0.5089350000000  0.5436750000000 1.0
C      1  0.4640150000000  0.4502170000000  0.4960120000000 1.0
C      1  0.5256600000000  0.4941110000000  0.5196220000000 1.0
C      1  0.4828460000000  0.5291100000000  0.5550570000000 1.0
C      1  0.4423060000000  0.4485890000000  0.5396790000000 1.0
C      1  0.4606210000000  0.5158730000000  0.4517540000000 1.0
C      1  0.5020030000000  0.4640660000000  0.4164920000000 1.0
C      1  0.4430540000000  0.4922740000000  0.5057710000000 1.0
C      1  0.4848420000000  0.5908540000000  0.4741250000000 1.0
C      1  0.5165510000000  0.4421410000000  0.4293550000000 1.0
C      1  0.5607320000000  0.5473260000000  0.4346530000000 1.0
C      1  0.5083410000000  0.4667610000000  0.5529020000000 1.0
C      1  0.5749630000000  0.4412110000000  0.5402570000000 1.0
C      1  0.5854270000000  0.5236530000000  0.5264520000000 1.0
C      1  0.4664590000000  0.4997160000000  0.4076350000000 1.0
C      1  0.5370230000000  0.5918540000000  0.4872510000000 1.0
C      1  0.4749240000000  0.4854250000000  0.5930340000000 1.0
C      1  0.5413930000000  0.5813020000000  0.5366580000000 1.0
C      1  0.4261540000000  0.4188440000000  0.4847630000000 1.0
C      1  0.4000500000000  0.5007050000000  0.5220410000000 1.0
C      1  0.5563620000000  0.4545440000000  0.4456810000000 1.0
C      1  0.5523600000000  0.5534990000000  0.5490220000000 1.0
C      1  0.5496620000000  0.5331070000000  0.5747620000000 1.0
C      1  0.5147790000000  0.5916990000000  0.5396220000000 1.0
C      1  0.4023270000000  0.4731820000000  0.5301740000000 1.0
C      1  0.4696910000000  0.4514770000000  0.5258470000000 1.0
C      1  0.4935800000000  0.5360380000000  0.4785130000000 1.0
C      1  0.5440620000000  0.5460460000000  0.4782150000000 1.0
C      1  0.5109910000000  0.5525950000000  0.4310940000000 1.0
C      1  0.5655270000000  0.4772580000000  0.4593320000000 1.0
C      1  0.4757340000000  0.5918360000000  0.5017550000000 1.0
C      1  0.5170660000000  0.4218470000000  0.5032550000000 1.0
C      1  0.4185760000000  0.5142250000000  0.5008060000000 1.0
C      1  0.4945970000000  0.5964680000000  0.5225420000000 1.0
C      1  0.5037800000000  0.4452420000000  0.5740400000000 1.0
C      1  0.4439890000000  0.4907920000000  0.4439990000000 1.0
C      1  0.4933190000000  0.5053220000000  0.5135110000000 1.0
C      1  0.4195220000000  0.4509670000000  0.5186260000000 1.0
C      1  0.4842630000000  0.5659370000000  0.4301540000000 1.0
C      1  0.4343140000000  0.5602150000000  0.5022780000000 1.0
C      1  0.5360520000000  0.5728960000000  0.4651800000000 1.0
C      1  0.4781530000000  0.5019150000000  0.5387200000000 1.0
C      1  0.4175510000000  0.4874140000000  0.4540330000000 1.0
C      1  0.5429500000000  0.4971660000000  0.4702690000000 1.0
C      1  0.5080300000000  0.5284110000000  0.4128660000000 1.0
C      1  0.4095880000000  0.5101740000000  0.5483770000000 1.0
C      1  0.4992180000000  0.5268870000000  0.5823300000000 1.0
C      1  0.5605030000000  0.5039930000000  0.5773980000000 1.0
C      1  0.5178120000000  0.4905380000000  0.5681980000000 1.0
C      1  0.5478790000000  0.4316210000000  0.4605000000000 1.0
C      1  0.4413490000000  0.4466950000000  0.4532690000000 1.0
C      1  0.5317300000000  0.5342170000000  0.5037820000000 1.0
C      1  0.5234580000000  0.4668110000000  0.5256420000000 1.0
C      1  0.5764840000000  0.5498350000000  0.5320600000000 1.0
C      1  0.4268180000000  0.5372330000000  0.5164780000000 1.0
C      1  0.5196340000000  0.4833240000000  0.4624030000000 1.0
C      1  0.4625790000000  0.4674940000000  0.4469460000000 1.0
C      1  0.5491960000000  0.4559910000000  0.5786240000000 1.0
C      1  0.5402440000000  0.4584870000000  0.4236680000000 1.0
C      1  0.4913380000000  0.5733050000000  0.5435270000000 1.0
C      1  0.4107810000000  0.5153890000000  0.4504040000000 1.0
C      1  0.4732360000000  0.4242500000000  0.4802900000000 1.0
C      1  0.5375630000000  0.5655000000000  0.4367760000000 1.0
C      1  0.5885640000000  0.4527960000000  0.5186680000000 1.0
C      1  0.5920410000000  0.4989880000000  0.5397870000000 1.0
C      1  0.5300690000000  0.5097520000000  0.4138730000000 1.0
C      1  0.5524610000000  0.5833160000000  0.5107630000000 1.0
C      1  0.4140270000000  0.5293600000000  0.4743270000000 1.0
C      1  0.4772700000000  0.4706540000000  0.4778910000000 1.0
C      1  0.4625820000000  0.5688420000000  0.5405290000000 1.0
C      1  0.4479630000000  0.4226260000000  0.4674690000000 1.0
C      1  0.4748580000000  0.4411350000000  0.5749060000000 1.0
C      1  0.5264590000000  0.4812980000000  0.4131700000000 1.0
C      1  0.5301120000000  0.5375240000000  0.5357900000000 1.0
C      1  0.5172520000000  0.4537330000000  0.5019150000000 1.0
C      1  0.4274660000000  0.5554850000000  0.4748590000000 1.0
C      1  0.4349240000000  0.5260930000000  0.5418470000000 1.0
C      1  0.4564620000000  0.5433880000000  0.5522520000000 1.0
C      1  0.5928180000000  0.4921120000000  0.4947110000000 1.0
C      1  0.4765440000000  0.4744160000000  0.4203220000000 1.0
C      1  0.5771950000000  0.5170650000000  0.4991370000000 1.0
C      1  0.5500400000000  0.5215300000000  0.4308430000000 1.0
C      1  0.5200760000000  0.4257120000000  0.4539770000000 1.0
C      1  0.4539780000000  0.5770440000000  0.5146360000000 1.0
C      1  0.5078550000000  0.4163150000000  0.5313680000000 1.0
C      1  0.5381440000000  0.5235990000000  0.4584290000000 1.0
C      1  0.5316200000000  0.4189360000000  0.5490770000000 1.0
C      1  0.4817400000000  0.4730940000000  0.5450540000000 1.0
C      1  0.5061960000000  0.4673020000000  0.4787950000000 1.0
C      1  0.4640660000000  0.4690200000000  0.5730810000000 1.0
C      1  0.4671150000000  0.5486280000000  0.4160680000000 1.0
C      1  0.5718710000000  0.4593920000000  0.5626700000000 1.0
C      1  0.5977160000000  0.4800200000000  0.5195630000000 1.0
C      1  0.4226420000000  0.4633440000000  0.4685440000000 1.0
C      1  0.5251640000000  0.5342000000000  0.5853020000000 1.0
C      1  0.4396570000000  0.4732140000000  0.5556620000000 1.0
C      1  0.5848110000000  0.4711880000000  0.4777310000000 1.0
C      1  0.4726940000000  0.5185370000000  0.4747230000000 1.0
C      1  0.5739090000000  0.5644710000000  0.5079360000000 1.0
END
