TITL C-173943-9966-7 -0.287836227006784 125000 -490.295089564512 0 0 71 (C1) n - 1
REM
REM in /rds/project/t2_vol4/rds-t2-cs072/BORA/CARBON/from-Arr/AIRSS/Generating-Clusters/GAP-ML-2020/Only-C1/SD-CG/HFTN-CG
REM
REM
REM
REM
REM
REM ./C.cell (11c1c37f851c82e70ff6c80c92926a4b)
REM AIRSS Version 0.9.1 bugfix July 2018 build 013d7b7c2542+ Fri, 06 Jul 2018 19:26:36 +0100
REM compiler GCC version 9.3.0
REM options -cpp -mtune=generic -march=x86-64 -g -O0
REM seed 781638966 1936283013 -1896089122 1196016047 698209249 1025605590 1690882211 691606400 -1940441966 462087181 -1524786445 1899822558 -746451308 -66156298 753599993 485665689 1454717732 -1544179698 101040759 602264248 228244238 1659918134 95701432 1814303327 164546888 1296209604 -1268353536 1849109866 -399105356 930181047 -1383926164 35235790 1550724084
REM
CELL 1.54180   50.00000   50.00000   50.00000   90.00000   90.00000   90.00000
LATT -1
SFAC C  
C      1  0.4846300000000  0.5384300000000  0.5102900000000 1.0
C      1  0.4568530000000  0.5476390000000  0.4606550000000 1.0
C      1  0.5052220000000  0.4481000000000  0.4461860000000 1.0
C      1  0.4886340000000  0.4308610000000  0.4596610000000 1.0
C      1  0.5058010000000  0.4644870000000  0.5533630000000 1.0
C      1  0.5698650000000  0.5260160000000  0.4856650000000 1.0
C      1  0.4332640000000  0.5037790000000  0.4726330000000 1.0
C      1  0.5655480000000  0.4818180000000  0.4734820000000 1.0
C      1  0.4475280000000  0.5211510000000  0.4533820000000 1.0
C      1  0.5675370000000  0.5291890000000  0.5307460000000 1.0
C      1  0.4389060000000  0.5405230000000  0.5032770000000 1.0
C      1  0.5378390000000  0.5020490000000  0.5602770000000 1.0
C      1  0.4812190000000  0.5659500000000  0.4980500000000 1.0
C      1  0.4394680000000  0.4760690000000  0.4661070000000 1.0
C      1  0.5252530000000  0.5576320000000  0.4769300000000 1.0
C      1  0.5693540000000  0.5008520000000  0.5242700000000 1.0
C      1  0.4697690000000  0.4803310000000  0.5616850000000 1.0
C      1  0.5122930000000  0.5416390000000  0.5503260000000 1.0
C      1  0.5587200000000  0.5259050000000  0.4596910000000 1.0
C      1  0.5111240000000  0.4781480000000  0.5237020000000 1.0
C      1  0.5668600000000  0.5400010000000  0.5560780000000 1.0
C      1  0.4484030000000  0.5169160000000  0.5405990000000 1.0
C      1  0.5124280000000  0.5341510000000  0.5209790000000 1.0
C      1  0.4952150000000  0.5207240000000  0.5636150000000 1.0
C      1  0.4570240000000  0.5380780000000  0.5247160000000 1.0
C      1  0.4967290000000  0.5483400000000  0.4313260000000 1.0
C      1  0.4889820000000  0.5793180000000  0.5240350000000 1.0
C      1  0.5327590000000  0.5506780000000  0.5033830000000 1.0
C      1  0.4711520000000  0.4927280000000  0.4993870000000 1.0
C      1  0.5117910000000  0.5005310000000  0.5728640000000 1.0
C      1  0.5410480000000  0.5306650000000  0.5577300000000 1.0
C      1  0.4915040000000  0.4965850000000  0.4303670000000 1.0
C      1  0.5186960000000  0.5060090000000  0.5125240000000 1.0
C      1  0.5200250000000  0.5342900000000  0.4339190000000 1.0
C      1  0.5733790000000  0.4992280000000  0.4954670000000 1.0
C      1  0.4587050000000  0.4772960000000  0.4456470000000 1.0
C      1  0.4879110000000  0.4724990000000  0.4474250000000 1.0
C      1  0.5321460000000  0.4602120000000  0.4477160000000 1.0
C      1  0.5496020000000  0.4574750000000  0.4709920000000 1.0
C      1  0.5099810000000  0.5064140000000  0.4850780000000 1.0
C      1  0.5385610000000  0.4620920000000  0.5232730000000 1.0
C      1  0.5528380000000  0.4843560000000  0.5405810000000 1.0
C      1  0.4314360000000  0.5005230000000  0.5242050000000 1.0
C      1  0.4706410000000  0.4379830000000  0.5327460000000 1.0
C      1  0.5391130000000  0.4487460000000  0.4954520000000 1.0
C      1  0.4353160000000  0.4720220000000  0.5261740000000 1.0
C      1  0.4448920000000  0.4517330000000  0.4814060000000 1.0
C      1  0.5370670000000  0.4867740000000  0.4362130000000 1.0
C      1  0.4278610000000  0.5146820000000  0.4985770000000 1.0
C      1  0.4689520000000  0.5085900000000  0.5580150000000 1.0
C      1  0.4703230000000  0.4348980000000  0.4796670000000 1.0
C      1  0.4950940000000  0.4770400000000  0.5745640000000 1.0
C      1  0.5175990000000  0.5062230000000  0.4276400000000 1.0
C      1  0.4637930000000  0.5045800000000  0.4362610000000 1.0
C      1  0.5009720000000  0.5704330000000  0.5449350000000 1.0
C      1  0.4558100000000  0.4619440000000  0.5439900000000 1.0
C      1  0.4835050000000  0.5169360000000  0.4897230000000 1.0
C      1  0.4532260000000  0.5572380000000  0.4862880000000 1.0
C      1  0.4833390000000  0.4208680000000  0.5509080000000 1.0
C      1  0.4986490000000  0.5666220000000  0.4744880000000 1.0
C      1  0.5373090000000  0.5433590000000  0.4545360000000 1.0
C      1  0.4830650000000  0.5571970000000  0.4524960000000 1.0
C      1  0.5163740000000  0.4322020000000  0.5049400000000 1.0
C      1  0.4851940000000  0.4405580000000  0.5049320000000 1.0
C      1  0.5063430000000  0.4364980000000  0.5514890000000 1.0
C      1  0.5030320000000  0.4791160000000  0.4769080000000 1.0
C      1  0.5261830000000  0.4353620000000  0.5316160000000 1.0
C      1  0.4313620000000  0.4575090000000  0.5036180000000 1.0
C      1  0.4907670000000  0.4703370000000  0.5025470000000 1.0
C      1  0.5599620000000  0.5423450000000  0.5063170000000 1.0
C      1  0.5582540000000  0.4985280000000  0.4512700000000 1.0
END
