TITL C-17738-6653-2 -157.643071407216 125000 -368.500186146321 0 0 55 (C1) n - 1
REM
REM in /rds/project/t2_vol4/rds-t2-cs072/BORA/CARBON/from-Arr/AIRSS/Generating-Clusters/GAP-ML-2020/Only-C1/SD-CG/HFTN-CG
REM
REM
REM
REM
REM
REM ./C.cell (11c1c37f851c82e70ff6c80c92926a4b)
REM AIRSS Version 0.9.1 bugfix July 2018 build 013d7b7c2542+ Fri, 06 Jul 2018 19:26:36 +0100
REM compiler GCC version 9.3.0
REM options -cpp -mtune=generic -march=x86-64 -g -O0
REM seed -208713441 1451876972 -1519018068 1551791031 876043956 477653797 -583728463 547395768 336643324 -903309168 1167517262 -1785915756 -771056537 -1049947767 -1843012058 -1336512009 1756941279 -799607049 1766967676 -1710212416 1395800009 722919294 1444102314 504918984 -884643736 273351383 1679723259 -192813356 974854559 1300984274 -1345458010 -525900408 885921396
REM
CELL 1.54180   50.00000   50.00000   50.00000   90.00000   90.00000   90.00000
LATT -1
SFAC C  
C      1  0.5343440000000  0.5653170000000  0.4879750000000 1.0
C      1  0.4408150000000  0.5061790000000  0.4636520000000 1.0
C      1  0.5100560000000  0.5706000000000  0.5297840000000 1.0
C      1  0.5494430000000  0.4563780000000  0.4654390000000 1.0
C      1  0.4738830000000  0.4399500000000  0.5231160000000 1.0
C      1  0.5562540000000  0.4503430000000  0.4949740000000 1.0
C      1  0.5432140000000  0.4803910000000  0.5353820000000 1.0
C      1  0.5345980000000  0.5326300000000  0.4512400000000 1.0
C      1  0.4398370000000  0.5459490000000  0.5263080000000 1.0
C      1  0.4996610000000  0.4258080000000  0.5225380000000 1.0
C      1  0.4702180000000  0.4604100000000  0.5426950000000 1.0
C      1  0.5290600000000  0.5017560000000  0.4490730000000 1.0
C      1  0.4848530000000  0.5374710000000  0.4465850000000 1.0
C      1  0.4781430000000  0.4408590000000  0.4742410000000 1.0
C      1  0.4855740000000  0.5164260000000  0.4286950000000 1.0
C      1  0.4915590000000  0.4956930000000  0.5614810000000 1.0
C      1  0.4731340000000  0.5355750000000  0.4735090000000 1.0
C      1  0.5149680000000  0.4207150000000  0.4975300000000 1.0
C      1  0.5107190000000  0.5482080000000  0.4508320000000 1.0
C      1  0.4667570000000  0.5487350000000  0.5349150000000 1.0
C      1  0.4864840000000  0.5568600000000  0.4883270000000 1.0
C      1  0.5476980000000  0.4802600000000  0.4536950000000 1.0
C      1  0.5057950000000  0.4978070000000  0.4300290000000 1.0
C      1  0.5396920000000  0.4314820000000  0.5085340000000 1.0
C      1  0.5455090000000  0.4730440000000  0.5073770000000 1.0
C      1  0.4970760000000  0.4729680000000  0.5442420000000 1.0
C      1  0.5237250000000  0.5271120000000  0.5436260000000 1.0
C      1  0.4849240000000  0.5070410000000  0.4793120000000 1.0
C      1  0.4404270000000  0.5242110000000  0.5092270000000 1.0
C      1  0.4446710000000  0.5268780000000  0.4804510000000 1.0
C      1  0.4734030000000  0.4566150000000  0.4995630000000 1.0
C      1  0.4957520000000  0.4774010000000  0.5107420000000 1.0
C      1  0.4840870000000  0.5039070000000  0.5086560000000 1.0
C      1  0.5245300000000  0.5224540000000  0.4935140000000 1.0
C      1  0.5089350000000  0.5653800000000  0.4740970000000 1.0
C      1  0.4562410000000  0.5013080000000  0.5186700000000 1.0
C      1  0.5235440000000  0.4607660000000  0.5454920000000 1.0
C      1  0.5012850000000  0.5224660000000  0.5617970000000 1.0
C      1  0.4741000000000  0.5316830000000  0.5558670000000 1.0
C      1  0.5053410000000  0.4327260000000  0.4736020000000 1.0
C      1  0.5193040000000  0.4763330000000  0.4929430000000 1.0
C      1  0.4897220000000  0.5531690000000  0.5172690000000 1.0
C      1  0.5245300000000  0.4357610000000  0.5336370000000 1.0
C      1  0.4788150000000  0.4910460000000  0.4357510000000 1.0
C      1  0.4642920000000  0.4892180000000  0.4616870000000 1.0
C      1  0.5152660000000  0.5010380000000  0.4772040000000 1.0
C      1  0.5429660000000  0.5053820000000  0.5440730000000 1.0
C      1  0.5421830000000  0.5397340000000  0.4784600000000 1.0
C      1  0.5212140000000  0.4559670000000  0.4702130000000 1.0
C      1  0.5059290000000  0.5260580000000  0.5159170000000 1.0
C      1  0.4623450000000  0.4622260000000  0.4728310000000 1.0
C      1  0.4535980000000  0.4839470000000  0.5410000000000 1.0
C      1  0.4640900000000  0.5044330000000  0.5572320000000 1.0
C      1  0.5319740000000  0.5556010000000  0.5399510000000 1.0
C      1  0.5334630000000  0.5683220000000  0.5150470000000 1.0
END
