TITL C-173966-9594-2 -0.117197318665456 125000 -611.275715655402 0 0 89 (C1) n - 1
REM
REM in /rds/project/t2_vol4/rds-t2-cs072/BORA/CARBON/from-Arr/AIRSS/Generating-Clusters/GAP-ML-2020/Only-C1/SD-CG/HFTN-CG
REM
REM
REM
REM
REM
REM ./C.cell (11c1c37f851c82e70ff6c80c92926a4b)
REM AIRSS Version 0.9.1 bugfix July 2018 build 013d7b7c2542+ Fri, 06 Jul 2018 19:26:36 +0100
REM compiler GCC version 9.3.0
REM options -cpp -mtune=generic -march=x86-64 -g -O0
REM seed 1308495617 486974285 839783319 194090116 269997109 -1812706866 505463545 -658394826 -126302626 -987101104 -1016814651 -1441598636 67490160 1157169676 21451115 1783467319 -1393836070 392110416 323096220 -1117294254 939119171 1313388634 -34766970 770302723 628114344 -728615752 649722444 -1019128722 1364434653 180163309 279181157 1519473796 -2011705414
REM
CELL 1.54180   50.00000   50.00000   50.00000   90.00000   90.00000   90.00000
LATT -1
SFAC C  
C      1  0.5141070000000  0.5032100000000  0.5788460000000 1.0
C      1  0.5429190000000  0.4413600000000  0.5134090000000 1.0
C      1  0.4858850000000  0.5479320000000  0.5680330000000 1.0
C      1  0.5015480000000  0.4547580000000  0.4931180000000 1.0
C      1  0.4918050000000  0.4483830000000  0.4653390000000 1.0
C      1  0.5714510000000  0.4661040000000  0.4792050000000 1.0
C      1  0.5004940000000  0.4237300000000  0.5013930000000 1.0
C      1  0.4553630000000  0.4872030000000  0.5147030000000 1.0
C      1  0.4745100000000  0.4430110000000  0.5470040000000 1.0
C      1  0.5376980000000  0.4550370000000  0.4381940000000 1.0
C      1  0.5049070000000  0.4579630000000  0.5770720000000 1.0
C      1  0.5626490000000  0.5097430000000  0.4903370000000 1.0
C      1  0.5295530000000  0.4175100000000  0.5014140000000 1.0
C      1  0.5258400000000  0.5747190000000  0.4889490000000 1.0
C      1  0.5475680000000  0.5561570000000  0.4896900000000 1.0
C      1  0.4455490000000  0.5179150000000  0.4483950000000 1.0
C      1  0.5156160000000  0.4124760000000  0.4786300000000 1.0
C      1  0.5688820000000  0.4576890000000  0.5082760000000 1.0
C      1  0.5132780000000  0.5319030000000  0.5228130000000 1.0
C      1  0.5390500000000  0.4998270000000  0.4368260000000 1.0
C      1  0.5656780000000  0.5527400000000  0.5120960000000 1.0
C      1  0.4830610000000  0.5310000000000  0.5113820000000 1.0
C      1  0.5035210000000  0.5343140000000  0.4309050000000 1.0
C      1  0.4585310000000  0.5517770000000  0.5167780000000 1.0
C      1  0.5043820000000  0.5724060000000  0.4701450000000 1.0
C      1  0.4974310000000  0.4782790000000  0.4551070000000 1.0
C      1  0.5435430000000  0.4646130000000  0.4674730000000 1.0
C      1  0.4454710000000  0.4706630000000  0.4491860000000 1.0
C      1  0.4896210000000  0.5198180000000  0.4818790000000 1.0
C      1  0.5664990000000  0.5038420000000  0.4450110000000 1.0
C      1  0.4942140000000  0.4826430000000  0.5826300000000 1.0
C      1  0.5665090000000  0.5746840000000  0.5305200000000 1.0
C      1  0.4318330000000  0.5406790000000  0.5059470000000 1.0
C      1  0.4428480000000  0.5440180000000  0.4597880000000 1.0
C      1  0.4613270000000  0.4790990000000  0.4273380000000 1.0
C      1  0.5451490000000  0.5306940000000  0.4760140000000 1.0
C      1  0.5302550000000  0.5269390000000  0.4305690000000 1.0
C      1  0.5072130000000  0.4254590000000  0.4553400000000 1.0
C      1  0.4316500000000  0.5017110000000  0.5463240000000 1.0
C      1  0.5739510000000  0.5246960000000  0.5132710000000 1.0
C      1  0.4452360000000  0.5459320000000  0.5438490000000 1.0
C      1  0.4715080000000  0.4232300000000  0.5001460000000 1.0
C      1  0.5308370000000  0.4483460000000  0.5409870000000 1.0
C      1  0.4592330000000  0.4336620000000  0.5236240000000 1.0
C      1  0.4879000000000  0.5120540000000  0.4214630000000 1.0
C      1  0.4582930000000  0.5362500000000  0.5670850000000 1.0
C      1  0.5203090000000  0.5860690000000  0.5157370000000 1.0
C      1  0.5200250000000  0.5062560000000  0.5098710000000 1.0
C      1  0.4506650000000  0.5082730000000  0.5681560000000 1.0
C      1  0.4595090000000  0.5083690000000  0.4258080000000 1.0
C      1  0.4980240000000  0.4904700000000  0.5203300000000 1.0
C      1  0.4718690000000  0.5769710000000  0.5085980000000 1.0
C      1  0.5530460000000  0.5293880000000  0.4474600000000 1.0
C      1  0.4664250000000  0.5608410000000  0.4586500000000 1.0
C      1  0.5098140000000  0.5310280000000  0.5710300000000 1.0
C      1  0.5043010000000  0.4434950000000  0.5540870000000 1.0
C      1  0.5183420000000  0.5131240000000  0.4804610000000 1.0
C      1  0.4239760000000  0.5471310000000  0.4809570000000 1.0
C      1  0.5389690000000  0.4934610000000  0.5664040000000 1.0
C      1  0.5633310000000  0.4793290000000  0.5284950000000 1.0
C      1  0.4361820000000  0.4504460000000  0.5192090000000 1.0
C      1  0.5245840000000  0.4891300000000  0.4610920000000 1.0
C      1  0.5510020000000  0.5157080000000  0.5541990000000 1.0
C      1  0.5303450000000  0.4624970000000  0.4944210000000 1.0
C      1  0.4577960000000  0.4634650000000  0.5584030000000 1.0
C      1  0.4655670000000  0.4353640000000  0.4747150000000 1.0
C      1  0.4663620000000  0.4849340000000  0.5750480000000 1.0
C      1  0.4772250000000  0.5766220000000  0.4806760000000 1.0
C      1  0.5278500000000  0.5343770000000  0.5489040000000 1.0
C      1  0.4751940000000  0.5071900000000  0.5259680000000 1.0
C      1  0.5456620000000  0.4701260000000  0.5504440000000 1.0
C      1  0.5431590000000  0.4893850000000  0.5066860000000 1.0
C      1  0.5196670000000  0.4355170000000  0.4321860000000 1.0
C      1  0.4420950000000  0.4485840000000  0.4685200000000 1.0
C      1  0.4932750000000  0.5559790000000  0.4480110000000 1.0
C      1  0.4789760000000  0.4930610000000  0.4743820000000 1.0
C      1  0.5437720000000  0.5869930000000  0.5308760000000 1.0
C      1  0.4396650000000  0.4737130000000  0.5375970000000 1.0
C      1  0.4265900000000  0.5268730000000  0.5321090000000 1.0
C      1  0.4919720000000  0.4810430000000  0.4261350000000 1.0
C      1  0.4296210000000  0.4585250000000  0.4924250000000 1.0
C      1  0.4827660000000  0.4771540000000  0.4995890000000 1.0
C      1  0.4470750000000  0.4942800000000  0.4669100000000 1.0
C      1  0.4353060000000  0.4862680000000  0.4925160000000 1.0
C      1  0.4910080000000  0.5696670000000  0.5518630000000 1.0
C      1  0.4936300000000  0.5824290000000  0.5277470000000 1.0
C      1  0.5710880000000  0.5077090000000  0.5358280000000 1.0
C      1  0.5752640000000  0.4922870000000  0.4697930000000 1.0
C      1  0.5143330000000  0.4602850000000  0.4211980000000 1.0
END
