TITL C-17747-7785-3 -0.148901885442134 125000 -638.353489014003 0 0 93 (C1) n - 1
REM
REM in /rds/project/t2_vol4/rds-t2-cs072/BORA/CARBON/from-Arr/AIRSS/Generating-Clusters/GAP-ML-2020/Only-C1/SD-CG/HFTN-CG
REM
REM
REM
REM
REM
REM ./C.cell (11c1c37f851c82e70ff6c80c92926a4b)
REM AIRSS Version 0.9.1 bugfix July 2018 build 013d7b7c2542+ Fri, 06 Jul 2018 19:26:36 +0100
REM compiler GCC version 9.3.0
REM options -cpp -mtune=generic -march=x86-64 -g -O0
REM seed -419006425 -1727886464 535414293 2025341092 -952183477 -440869261 525993538 -949131996 -319024580 -1694823113 -235408845 718743430 261569776 -388662159 1105564289 -1231089009 -620200508 1135729234 -1789512917 696357314 -692956193 -1617635304 -2060757828 1902850336 896401145 -634578899 -522229089 -1355253519 -2031615995 1818461800 1859349705 -2101391887 -328206289
REM
CELL 1.54180   50.00000   50.00000   50.00000   90.00000   90.00000   90.00000
LATT -1
SFAC C  
C      1  0.5397070000000  0.5166670000000  0.4303440000000 1.0
C      1  0.5641310000000  0.4574960000000  0.5159720000000 1.0
C      1  0.5282600000000  0.4467740000000  0.4430150000000 1.0
C      1  0.5457040000000  0.5263330000000  0.5812560000000 1.0
C      1  0.5626310000000  0.5221950000000  0.4978690000000 1.0
C      1  0.5681300000000  0.4388750000000  0.4697570000000 1.0
C      1  0.5370360000000  0.4657820000000  0.5684620000000 1.0
C      1  0.4120760000000  0.4826960000000  0.4610350000000 1.0
C      1  0.4436260000000  0.5071440000000  0.5530130000000 1.0
C      1  0.5351210000000  0.5031430000000  0.4997770000000 1.0
C      1  0.5197690000000  0.4687500000000  0.4260970000000 1.0
C      1  0.4538570000000  0.4884140000000  0.5730480000000 1.0
C      1  0.5297020000000  0.4495950000000  0.5447370000000 1.0
C      1  0.5398730000000  0.4437280000000  0.5187560000000 1.0
C      1  0.4748430000000  0.4556570000000  0.4406420000000 1.0
C      1  0.4417690000000  0.4654360000000  0.5055180000000 1.0
C      1  0.5895400000000  0.4782790000000  0.4815340000000 1.0
C      1  0.4945960000000  0.4786290000000  0.5558480000000 1.0
C      1  0.4233660000000  0.4885910000000  0.5092470000000 1.0
C      1  0.5777400000000  0.4551310000000  0.4906580000000 1.0
C      1  0.4621230000000  0.4245970000000  0.5071130000000 1.0
C      1  0.5154010000000  0.5471420000000  0.4516000000000 1.0
C      1  0.4839230000000  0.5694110000000  0.5481420000000 1.0
C      1  0.4705050000000  0.4870290000000  0.4753430000000 1.0
C      1  0.4716000000000  0.4770380000000  0.5033710000000 1.0
C      1  0.4942710000000  0.4555260000000  0.5136080000000 1.0
C      1  0.5301170000000  0.5585900000000  0.5145220000000 1.0
C      1  0.5317300000000  0.4934510000000  0.5273780000000 1.0
C      1  0.4625900000000  0.5494460000000  0.5518370000000 1.0
C      1  0.4685050000000  0.5281530000000  0.5072960000000 1.0
C      1  0.5031540000000  0.5624170000000  0.5029710000000 1.0
C      1  0.4439860000000  0.4417800000000  0.5229910000000 1.0
C      1  0.4625770000000  0.4318930000000  0.4802320000000 1.0
C      1  0.5060820000000  0.5100990000000  0.4958810000000 1.0
C      1  0.4990100000000  0.4926160000000  0.4734920000000 1.0
C      1  0.4796710000000  0.5618870000000  0.4504430000000 1.0
C      1  0.4310350000000  0.5369260000000  0.4579080000000 1.0
C      1  0.4836400000000  0.4360470000000  0.4609270000000 1.0
C      1  0.5395240000000  0.5471730000000  0.4666930000000 1.0
C      1  0.4447590000000  0.5329840000000  0.4344580000000 1.0
C      1  0.5164130000000  0.5325450000000  0.4271430000000 1.0
C      1  0.4547570000000  0.4696730000000  0.4562450000000 1.0
C      1  0.4299270000000  0.5096210000000  0.5281790000000 1.0
C      1  0.5636310000000  0.5074120000000  0.5701150000000 1.0
C      1  0.4149890000000  0.4999350000000  0.4843710000000 1.0
C      1  0.4347540000000  0.4858950000000  0.4424850000000 1.0
C      1  0.4477890000000  0.5050370000000  0.4270870000000 1.0
C      1  0.5728570000000  0.5165450000000  0.4694460000000 1.0
C      1  0.5171740000000  0.4468400000000  0.4975170000000 1.0
C      1  0.5722330000000  0.5246640000000  0.5478170000000 1.0
C      1  0.4916250000000  0.5076750000000  0.5441830000000 1.0
C      1  0.5293950000000  0.5482910000000  0.5421690000000 1.0
C      1  0.4402240000000  0.4521530000000  0.4763350000000 1.0
C      1  0.4249790000000  0.5272290000000  0.4825750000000 1.0
C      1  0.4851240000000  0.5841320000000  0.4937160000000 1.0
C      1  0.4693690000000  0.5224070000000  0.5605060000000 1.0
C      1  0.5410980000000  0.4829650000000  0.4798680000000 1.0
C      1  0.4776930000000  0.5723990000000  0.5198880000000 1.0
C      1  0.5087940000000  0.5618460000000  0.5597450000000 1.0
C      1  0.4732310000000  0.5066030000000  0.5860790000000 1.0
C      1  0.5070920000000  0.5497490000000  0.5843050000000 1.0
C      1  0.5630610000000  0.4831860000000  0.5312820000000 1.0
C      1  0.5814000000000  0.4914230000000  0.4592330000000 1.0
C      1  0.4565240000000  0.5509660000000  0.5236660000000 1.0
C      1  0.5015220000000  0.5015590000000  0.5924950000000 1.0
C      1  0.5538220000000  0.5441200000000  0.5579710000000 1.0
C      1  0.4608740000000  0.4447860000000  0.5463760000000 1.0
C      1  0.4825710000000  0.5030630000000  0.5160980000000 1.0
C      1  0.5177530000000  0.4683430000000  0.4764360000000 1.0
C      1  0.4781810000000  0.5012330000000  0.4258990000000 1.0
C      1  0.5743680000000  0.5113980000000  0.5233060000000 1.0
C      1  0.4827790000000  0.5094570000000  0.4561960000000 1.0
C      1  0.4892380000000  0.5279050000000  0.4180450000000 1.0
C      1  0.5112490000000  0.4688310000000  0.5336770000000 1.0
C      1  0.4373410000000  0.5317840000000  0.5095810000000 1.0
C      1  0.4685790000000  0.4665710000000  0.5620250000000 1.0
C      1  0.4901780000000  0.5375290000000  0.4637510000000 1.0
C      1  0.4924230000000  0.5371060000000  0.4919530000000 1.0
C      1  0.5602050000000  0.4809340000000  0.5609090000000 1.0
C      1  0.5564600000000  0.4499100000000  0.4481060000000 1.0
C      1  0.4911680000000  0.4732370000000  0.4247130000000 1.0
C      1  0.4132370000000  0.4548860000000  0.4677960000000 1.0
C      1  0.4696510000000  0.5466940000000  0.4284700000000 1.0
C      1  0.4766810000000  0.5829160000000  0.4683110000000 1.0
C      1  0.5183840000000  0.5254850000000  0.5909080000000 1.0
C      1  0.5134990000000  0.4794020000000  0.5783790000000 1.0
C      1  0.5469980000000  0.5479160000000  0.4944570000000 1.0
C      1  0.5201440000000  0.5157180000000  0.5434890000000 1.0
C      1  0.5116080000000  0.4395390000000  0.4656950000000 1.0
C      1  0.5644890000000  0.4766120000000  0.4406140000000 1.0
C      1  0.5418440000000  0.4882900000000  0.4280120000000 1.0
C      1  0.4799390000000  0.4334700000000  0.5273680000000 1.0
C      1  0.5550050000000  0.5285940000000  0.4522200000000 1.0
END
