TITL C-17748-6619-3 -0.156869718118366 125000 -677.27278376477 0 0 97 (C1) n - 1
REM
REM in /rds/project/t2_vol4/rds-t2-cs072/BORA/CARBON/from-Arr/AIRSS/Generating-Clusters/GAP-ML-2020/Only-C1/SD-CG/HFTN-CG
REM
REM
REM
REM
REM
REM ./C.cell (11c1c37f851c82e70ff6c80c92926a4b)
REM AIRSS Version 0.9.1 bugfix July 2018 build 013d7b7c2542+ Fri, 06 Jul 2018 19:26:36 +0100
REM compiler GCC version 9.3.0
REM options -cpp -mtune=generic -march=x86-64 -g -O0
REM seed 789199946 1364736098 452646685 2062445950 -680540388 -1587931465 1398539898 -605240587 -860494808 -1003261800 1568867808 -1967467127 359787680 857236083 -655598814 -1726782941 2088002209 -1521684544 1715710018 -823095556 -503182888 1795734390 -2030641601 758975700 157443447 -1361913949 -980626708 1706066302 -576039444 -1914465232 1961854120 865208337 -1469133579
REM
CELL 1.54180   50.00000   50.00000   50.00000   90.00000   90.00000   90.00000
LATT -1
SFAC C  
C      1  0.5149630000000  0.5820210000000  0.5272000000000 1.0
C      1  0.4815270000000  0.5235950000000  0.4488180000000 1.0
C      1  0.5234070000000  0.5847850000000  0.5000150000000 1.0
C      1  0.5594910000000  0.5520590000000  0.5036850000000 1.0
C      1  0.5739540000000  0.4992540000000  0.4542630000000 1.0
C      1  0.4793530000000  0.5376410000000  0.5131400000000 1.0
C      1  0.4512270000000  0.5724540000000  0.4960990000000 1.0
C      1  0.5332680000000  0.4354210000000  0.5446100000000 1.0
C      1  0.5212160000000  0.4061120000000  0.4824160000000 1.0
C      1  0.5235830000000  0.4938060000000  0.4852550000000 1.0
C      1  0.4766230000000  0.5852600000000  0.5002730000000 1.0
C      1  0.4852260000000  0.5145030000000  0.4978100000000 1.0
C      1  0.5449060000000  0.5703010000000  0.4878760000000 1.0
C      1  0.4661470000000  0.4909400000000  0.5831610000000 1.0
C      1  0.4538350000000  0.5190430000000  0.4630160000000 1.0
C      1  0.5006030000000  0.4155800000000  0.4653990000000 1.0
C      1  0.5833320000000  0.4828710000000  0.5270720000000 1.0
C      1  0.5559190000000  0.4837200000000  0.4375200000000 1.0
C      1  0.5679210000000  0.4787220000000  0.5491430000000 1.0
C      1  0.5279740000000  0.4673800000000  0.4923350000000 1.0
C      1  0.4863770000000  0.5844620000000  0.5277290000000 1.0
C      1  0.4682870000000  0.4706600000000  0.5381260000000 1.0
C      1  0.4847220000000  0.4526220000000  0.5577440000000 1.0
C      1  0.5867020000000  0.4726670000000  0.5022820000000 1.0
C      1  0.5798200000000  0.4554630000000  0.4647800000000 1.0
C      1  0.4776290000000  0.5670300000000  0.5496140000000 1.0
C      1  0.4351240000000  0.5651470000000  0.4739210000000 1.0
C      1  0.5420620000000  0.4200550000000  0.5213420000000 1.0
C      1  0.5870280000000  0.4820800000000  0.4734270000000 1.0
C      1  0.4941180000000  0.5424540000000  0.5406510000000 1.0
C      1  0.5322610000000  0.5264600000000  0.4273490000000 1.0
C      1  0.5015090000000  0.4943190000000  0.5115220000000 1.0
C      1  0.5081340000000  0.5688880000000  0.4589930000000 1.0
C      1  0.5443010000000  0.5100710000000  0.4969830000000 1.0
C      1  0.4988040000000  0.5153260000000  0.5537620000000 1.0
C      1  0.4982910000000  0.5065110000000  0.4704240000000 1.0
C      1  0.5154630000000  0.5134000000000  0.5791460000000 1.0
C      1  0.4284350000000  0.4969580000000  0.5507160000000 1.0
C      1  0.4342190000000  0.5386880000000  0.5340600000000 1.0
C      1  0.4851080000000  0.4696800000000  0.5111170000000 1.0
C      1  0.4477880000000  0.5092550000000  0.5684290000000 1.0
C      1  0.4667750000000  0.5649680000000  0.4329990000000 1.0
C      1  0.4440640000000  0.5724650000000  0.4486380000000 1.0
C      1  0.5589360000000  0.4559240000000  0.4458970000000 1.0
C      1  0.4726700000000  0.4129850000000  0.5068260000000 1.0
C      1  0.5069440000000  0.4848540000000  0.4253950000000 1.0
C      1  0.4456620000000  0.4517870000000  0.4832270000000 1.0
C      1  0.4535250000000  0.4258550000000  0.4889280000000 1.0
C      1  0.5029450000000  0.4331060000000  0.5464800000000 1.0
C      1  0.4446930000000  0.5744380000000  0.4210970000000 1.0
C      1  0.4145580000000  0.5135710000000  0.4840450000000 1.0
C      1  0.5407460000000  0.4343110000000  0.4506600000000 1.0
C      1  0.5419180000000  0.5222420000000  0.5722900000000 1.0
C      1  0.5162330000000  0.5028510000000  0.5338960000000 1.0
C      1  0.4093950000000  0.5033470000000  0.5097740000000 1.0
C      1  0.4579490000000  0.5628700000000  0.5684340000000 1.0
C      1  0.4496620000000  0.5455200000000  0.5093630000000 1.0
C      1  0.4758140000000  0.4123420000000  0.4786850000000 1.0
C      1  0.4609430000000  0.5018600000000  0.4886540000000 1.0
C      1  0.4201460000000  0.4901130000000  0.4679550000000 1.0
C      1  0.5435210000000  0.5457590000000  0.5565210000000 1.0
C      1  0.5134320000000  0.4852940000000  0.5863320000000 1.0
C      1  0.5088210000000  0.4532820000000  0.5044000000000 1.0
C      1  0.4746340000000  0.4972810000000  0.5557330000000 1.0
C      1  0.5484220000000  0.5410950000000  0.4466950000000 1.0
C      1  0.5106720000000  0.5404640000000  0.4199360000000 1.0
C      1  0.5480600000000  0.5420160000000  0.5289620000000 1.0
C      1  0.4465410000000  0.5383990000000  0.5609300000000 1.0
C      1  0.4917410000000  0.5511900000000  0.4404160000000 1.0
C      1  0.4175820000000  0.5162010000000  0.5331960000000 1.0
C      1  0.5458030000000  0.4172770000000  0.4739170000000 1.0
C      1  0.5788050000000  0.4454690000000  0.4914840000000 1.0
C      1  0.4627300000000  0.4849510000000  0.4394990000000 1.0
C      1  0.5005270000000  0.5835570000000  0.4829260000000 1.0
C      1  0.5211010000000  0.5577260000000  0.5420170000000 1.0
C      1  0.4397910000000  0.4971290000000  0.4492920000000 1.0
C      1  0.5477320000000  0.4568200000000  0.5578610000000 1.0
C      1  0.5381470000000  0.4750410000000  0.5782200000000 1.0
C      1  0.4371760000000  0.4744140000000  0.5356150000000 1.0
C      1  0.5192310000000  0.4066490000000  0.5111790000000 1.0
C      1  0.5561560000000  0.4970550000000  0.5692120000000 1.0
C      1  0.4825690000000  0.4770520000000  0.4610580000000 1.0
C      1  0.4950740000000  0.4151480000000  0.5245370000000 1.0
C      1  0.5645350000000  0.5289250000000  0.4883650000000 1.0
C      1  0.4356260000000  0.5355790000000  0.4810170000000 1.0
C      1  0.4998460000000  0.4610380000000  0.4409390000000 1.0
C      1  0.5330750000000  0.4968940000000  0.4254560000000 1.0
C      1  0.5117630000000  0.4355190000000  0.4465830000000 1.0
C      1  0.4221800000000  0.4667370000000  0.4853260000000 1.0
C      1  0.5683110000000  0.5263970000000  0.4603550000000 1.0
C      1  0.5356710000000  0.5622340000000  0.4614230000000 1.0
C      1  0.5378430000000  0.5163020000000  0.5226090000000 1.0
C      1  0.4880360000000  0.4727720000000  0.5801910000000 1.0
C      1  0.4678580000000  0.4723410000000  0.4863950000000 1.0
C      1  0.4826400000000  0.5014060000000  0.4269920000000 1.0
C      1  0.5601220000000  0.4251320000000  0.4979180000000 1.0
C      1  0.4199920000000  0.4763820000000  0.5120290000000 1.0
END
