TITL C-17755-6662-9 -2.13368414291212 125000 -26.2679909328 0 0 5 (C2v) n - 1
REM
REM in /rds/project/t2_vol4/rds-t2-cs072/BORA/CARBON/from-Arr/AIRSS/Generating-Clusters/GAP-ML-2020/Only-C1/SD-CG/HFTN-CG
REM
REM
REM
REM
REM
REM ./C.cell (11c1c37f851c82e70ff6c80c92926a4b)
REM AIRSS Version 0.9.1 bugfix July 2018 build 013d7b7c2542+ Fri, 06 Jul 2018 19:26:36 +0100
REM compiler GCC version 9.3.0
REM options -cpp -mtune=generic -march=x86-64 -g -O0
REM seed -1126532339 -1865926753 -1931758296 -369537061 -48488937 942905496 -1084259262 143869838 206604491 -17731178 1696825886 -1668093183 -178029876 1320419530 575808604 -437187871 1284524536 -1134524407 1725863696 371410194 724415401 -564346685 885087559 -1619019812 990409412 2047866730 -1241753796 1503935785 2064222059 -1910138834 810120966 -107537848 -2009058840
REM
CELL 1.54180   50.00000   50.00000   50.00000   90.00000   90.00000   90.00000
LATT -1
SFAC C  
C      1  0.5083990000000  0.5094070000000  0.5111510000000 1.0
C      1  0.5049800000000  0.4920760000000  0.4860070000000 1.0
C      1  0.5285940000000  0.5031690000000  0.4939270000000 1.0
C      1  0.4774450000000  0.4897270000000  0.4929280000000 1.0
C      1  0.4805810000000  0.5056210000000  0.5159860000000 1.0
END
