TITL C-173958-245-2 96.9672428191526 125000 -540.3393781485 0 0 78 (C1) n - 1
REM
REM in /rds/project/t2_vol4/rds-t2-cs072/BORA/CARBON/from-Arr/AIRSS/Generating-Clusters/GAP-ML-2020/Only-C1/SD-CG/HFTN-CG
REM
REM
REM
REM
REM
REM ./C.cell (11c1c37f851c82e70ff6c80c92926a4b)
REM AIRSS Version 0.9.1 bugfix July 2018 build 013d7b7c2542+ Fri, 06 Jul 2018 19:26:36 +0100
REM compiler GCC version 9.3.0
REM options -cpp -mtune=generic -march=x86-64 -g -O0
REM seed 849049081 -1950449911 95952449 1193126977 351013516 198675347 -1973452422 1758062727 1724750267 1222937254 -72737965 2068537187 -586285911 -1594702978 -1037824602 -838719371 -1481264890 1852244944 -162420304 35916889 -1217366549 -522363068 -59051000 -91910770 636653555 11014389 -149652393 -120877279 -860591966 252916551 -939133866 -875918174 -469936048
REM
CELL 1.54180   50.00000   50.00000   50.00000   90.00000   90.00000   90.00000
LATT -1
SFAC C  
C      1  0.4996410000000  0.4202240000000  0.4820770000000 1.0
C      1  0.5432020000000  0.5115700000000  0.4786020000000 1.0
C      1  0.5046310000000  0.5563580000000  0.4910510000000 1.0
C      1  0.5044440000000  0.5020610000000  0.4218340000000 1.0
C      1  0.5673720000000  0.5350650000000  0.5331630000000 1.0
C      1  0.5441370000000  0.4645450000000  0.4965230000000 1.0
C      1  0.5540110000000  0.5106380000000  0.5293390000000 1.0
C      1  0.4535970000000  0.4365120000000  0.5243480000000 1.0
C      1  0.4943780000000  0.5235070000000  0.5300210000000 1.0
C      1  0.5467470000000  0.5539860000000  0.5436070000000 1.0
C      1  0.5334400000000  0.4379440000000  0.4994530000000 1.0
C      1  0.4626750000000  0.4680010000000  0.5534740000000 1.0
C      1  0.4838890000000  0.4593500000000  0.4287450000000 1.0
C      1  0.4562550000000  0.4915590000000  0.4374540000000 1.0
C      1  0.5112260000000  0.5307670000000  0.5094090000000 1.0
C      1  0.4823660000000  0.5685510000000  0.5062050000000 1.0
C      1  0.4839280000000  0.5720600000000  0.5346450000000 1.0
C      1  0.5063310000000  0.4743540000000  0.5668860000000 1.0
C      1  0.4808810000000  0.5063230000000  0.4416870000000 1.0
C      1  0.4359530000000  0.4760550000000  0.4741920000000 1.0
C      1  0.4444550000000  0.4524820000000  0.4598700000000 1.0
C      1  0.5183480000000  0.5237090000000  0.5764410000000 1.0
C      1  0.4495290000000  0.5186500000000  0.5636530000000 1.0
C      1  0.5605400000000  0.4731000000000  0.4736600000000 1.0
C      1  0.5253950000000  0.5181860000000  0.4351010000000 1.0
C      1  0.5265570000000  0.4740120000000  0.5330090000000 1.0
C      1  0.4389490000000  0.5034980000000  0.5418280000000 1.0
C      1  0.5537540000000  0.5314260000000  0.4385070000000 1.0
C      1  0.4564600000000  0.5609920000000  0.5366010000000 1.0
C      1  0.4955630000000  0.5490210000000  0.4628120000000 1.0
C      1  0.5256980000000  0.4281740000000  0.4739690000000 1.0
C      1  0.4952820000000  0.4585500000000  0.4560290000000 1.0
C      1  0.4560770000000  0.5464080000000  0.5607150000000 1.0
C      1  0.5712040000000  0.5241790000000  0.4615990000000 1.0
C      1  0.5426000000000  0.4925920000000  0.5478200000000 1.0
C      1  0.5433020000000  0.4751010000000  0.4503420000000 1.0
C      1  0.4915490000000  0.4149560000000  0.5077950000000 1.0
C      1  0.5259130000000  0.4960880000000  0.5702210000000 1.0
C      1  0.4910800000000  0.5266190000000  0.5847930000000 1.0
C      1  0.4744610000000  0.5310810000000  0.4559680000000 1.0
C      1  0.5503920000000  0.5656840000000  0.4711560000000 1.0
C      1  0.5263040000000  0.4987500000000  0.4580560000000 1.0
C      1  0.4498100000000  0.5251320000000  0.4692580000000 1.0
C      1  0.4457800000000  0.5314840000000  0.4968050000000 1.0
C      1  0.4503210000000  0.5062670000000  0.5134240000000 1.0
C      1  0.5344040000000  0.5120010000000  0.5057570000000 1.0
C      1  0.4566650000000  0.4633740000000  0.4350420000000 1.0
C      1  0.4816810000000  0.5061920000000  0.5137580000000 1.0
C      1  0.5069440000000  0.4544010000000  0.5414130000000 1.0
C      1  0.4711530000000  0.5067710000000  0.5799280000000 1.0
C      1  0.4795080000000  0.4806350000000  0.5721510000000 1.0
C      1  0.4764320000000  0.4648830000000  0.5009200000000 1.0
C      1  0.4366380000000  0.4750650000000  0.5458160000000 1.0
C      1  0.4775480000000  0.4552660000000  0.5320670000000 1.0
C      1  0.5482830000000  0.5660860000000  0.5166770000000 1.0
C      1  0.4597770000000  0.4194490000000  0.5040690000000 1.0
C      1  0.5242590000000  0.4840400000000  0.5058550000000 1.0
C      1  0.4348720000000  0.4595030000000  0.5219330000000 1.0
C      1  0.5069590000000  0.4742770000000  0.4191360000000 1.0
C      1  0.4555170000000  0.5556200000000  0.5082240000000 1.0
C      1  0.5217480000000  0.4453540000000  0.4515040000000 1.0
C      1  0.5321080000000  0.5691770000000  0.4928840000000 1.0
C      1  0.4995290000000  0.5639880000000  0.5580160000000 1.0
C      1  0.5129300000000  0.4313480000000  0.5204600000000 1.0
C      1  0.5156230000000  0.5458600000000  0.4435780000000 1.0
C      1  0.4807300000000  0.5510460000000  0.5743890000000 1.0
C      1  0.4946350000000  0.4867350000000  0.4946990000000 1.0
C      1  0.5702980000000  0.4991210000000  0.4746480000000 1.0
C      1  0.5714890000000  0.5500350000000  0.5081850000000 1.0
C      1  0.5727200000000  0.5484660000000  0.4801520000000 1.0
C      1  0.4547950000000  0.4311550000000  0.4766860000000 1.0
C      1  0.5252900000000  0.5492570000000  0.5614430000000 1.0
C      1  0.5416470000000  0.5561670000000  0.4460720000000 1.0
C      1  0.5312790000000  0.4599660000000  0.4296470000000 1.0
C      1  0.4987900000000  0.4881320000000  0.4647230000000 1.0
C      1  0.4400690000000  0.5000370000000  0.4589960000000 1.0
C      1  0.4811900000000  0.4437800000000  0.4775900000000 1.0
C      1  0.4460610000000  0.4772410000000  0.5014370000000 1.0
END
