TITL C-17768-6578-7 -0.0294706798412344 125000 -441.347849640026 0 0 64 (C1) n - 1
REM
REM in /rds/project/t2_vol4/rds-t2-cs072/BORA/CARBON/from-Arr/AIRSS/Generating-Clusters/GAP-ML-2020/Only-C1/SD-CG/HFTN-CG
REM
REM
REM
REM
REM
REM ./C.cell (11c1c37f851c82e70ff6c80c92926a4b)
REM AIRSS Version 0.9.1 bugfix July 2018 build 013d7b7c2542+ Fri, 06 Jul 2018 19:26:36 +0100
REM compiler GCC version 9.3.0
REM options -cpp -mtune=generic -march=x86-64 -g -O0
REM seed -1760355466 1257659303 -1622056453 45399523 855110605 -1390449615 1097381842 1193137359 933871617 1772704109 -458526826 28800634 -1180618472 1694770407 -566566462 725418076 -1153627536 -1347725248 -2073983610 -541643140 1543274389 813477555 -1843100542 1313561798 82257174 -1558587234 -265727110 -562613683 1850086805 634357315 -1376718666 -1756653970 -1560820509
REM
CELL 1.54180   50.00000   50.00000   50.00000   90.00000   90.00000   90.00000
LATT -1
SFAC C  
C      1  0.5256610000000  0.4365600000000  0.5293230000000 1.0
C      1  0.5465820000000  0.4804210000000  0.5509620000000 1.0
C      1  0.4625790000000  0.4920610000000  0.5476420000000 1.0
C      1  0.5576930000000  0.5029730000000  0.5370180000000 1.0
C      1  0.4825720000000  0.5193980000000  0.4788490000000 1.0
C      1  0.4477870000000  0.5658780000000  0.4776100000000 1.0
C      1  0.5434700000000  0.5680960000000  0.4815660000000 1.0
C      1  0.5563350000000  0.4561030000000  0.5086830000000 1.0
C      1  0.4851940000000  0.4410610000000  0.4616610000000 1.0
C      1  0.4828930000000  0.4975750000000  0.4300780000000 1.0
C      1  0.4922340000000  0.5726720000000  0.4975390000000 1.0
C      1  0.4485220000000  0.4733770000000  0.4632190000000 1.0
C      1  0.5060220000000  0.4827010000000  0.4379310000000 1.0
C      1  0.4577260000000  0.4415010000000  0.4998200000000 1.0
C      1  0.5309130000000  0.4528410000000  0.4609460000000 1.0
C      1  0.4972490000000  0.4337270000000  0.5306840000000 1.0
C      1  0.4985350000000  0.4705390000000  0.5658070000000 1.0
C      1  0.5248520000000  0.5290860000000  0.4466360000000 1.0
C      1  0.4593680000000  0.4941620000000  0.4461380000000 1.0
C      1  0.5111550000000  0.4864580000000  0.5005650000000 1.0
C      1  0.4529400000000  0.5447050000000  0.4621060000000 1.0
C      1  0.4394470000000  0.5329490000000  0.5327860000000 1.0
C      1  0.5398450000000  0.5683580000000  0.5086520000000 1.0
C      1  0.5238100000000  0.4849020000000  0.5674310000000 1.0
C      1  0.4855000000000  0.4776150000000  0.5033710000000 1.0
C      1  0.4984050000000  0.5336920000000  0.4360270000000 1.0
C      1  0.4873390000000  0.5205310000000  0.4149060000000 1.0
C      1  0.5446920000000  0.4772050000000  0.4658670000000 1.0
C      1  0.5454330000000  0.4573260000000  0.5356740000000 1.0
C      1  0.5101890000000  0.5110450000000  0.5654770000000 1.0
C      1  0.5265600000000  0.5498600000000  0.4688840000000 1.0
C      1  0.5262490000000  0.4987680000000  0.4535860000000 1.0
C      1  0.4461380000000  0.4595580000000  0.5184010000000 1.0
C      1  0.5635770000000  0.5007890000000  0.5082720000000 1.0
C      1  0.4594070000000  0.4488820000000  0.4719000000000 1.0
C      1  0.5237660000000  0.5350730000000  0.5573410000000 1.0
C      1  0.4827630000000  0.4280680000000  0.5065030000000 1.0
C      1  0.4845250000000  0.4960730000000  0.5677090000000 1.0
C      1  0.4539290000000  0.5135890000000  0.4677240000000 1.0
C      1  0.5111860000000  0.5063120000000  0.4788900000000 1.0
C      1  0.4587670000000  0.5453150000000  0.5182430000000 1.0
C      1  0.5260940000000  0.4319220000000  0.4802700000000 1.0
C      1  0.4796810000000  0.4996250000000  0.5224200000000 1.0
C      1  0.5094900000000  0.5034400000000  0.5259570000000 1.0
C      1  0.4362280000000  0.4856350000000  0.5104780000000 1.0
C      1  0.4831370000000  0.5444800000000  0.4588420000000 1.0
C      1  0.4597890000000  0.4629920000000  0.5428660000000 1.0
C      1  0.4388890000000  0.4919890000000  0.4830300000000 1.0
C      1  0.5131080000000  0.5712450000000  0.5190790000000 1.0
C      1  0.4395320000000  0.5054600000000  0.5335620000000 1.0
C      1  0.5391700000000  0.4340220000000  0.5038640000000 1.0
C      1  0.5483630000000  0.5297150000000  0.5424800000000 1.0
C      1  0.4844390000000  0.4510890000000  0.5495350000000 1.0
C      1  0.5591290000000  0.4782000000000  0.4916000000000 1.0
C      1  0.4638360000000  0.5676370000000  0.5006190000000 1.0
C      1  0.4796580000000  0.5258380000000  0.5077420000000 1.0
C      1  0.5003440000000  0.5637950000000  0.4716580000000 1.0
C      1  0.5102530000000  0.5507060000000  0.5376960000000 1.0
C      1  0.5548840000000  0.5458100000000  0.5199360000000 1.0
C      1  0.4979720000000  0.4264830000000  0.4822280000000 1.0
C      1  0.5258360000000  0.5282040000000  0.4911650000000 1.0
C      1  0.5552100000000  0.5260370000000  0.4996620000000 1.0
C      1  0.5056750000000  0.4564430000000  0.4476310000000 1.0
C      1  0.5074710000000  0.5314290000000  0.5152510000000 1.0
END
