TITL C-173966-9594-3 0.170985344684079 125000 -531.699768703689 0 0 77 (C1) n - 1
REM
REM in /rds/project/t2_vol4/rds-t2-cs072/BORA/CARBON/from-Arr/AIRSS/Generating-Clusters/GAP-ML-2020/Only-C1/SD-CG/HFTN-CG
REM
REM
REM
REM
REM
REM ./C.cell (11c1c37f851c82e70ff6c80c92926a4b)
REM AIRSS Version 0.9.1 bugfix July 2018 build 013d7b7c2542+ Fri, 06 Jul 2018 19:26:36 +0100
REM compiler GCC version 9.3.0
REM options -cpp -mtune=generic -march=x86-64 -g -O0
REM seed -392993787 405997376 66585683 1755859083 -1452900890 1101398850 -2034369583 -270456247 1386440382 1360343176 -733342885 323442908 172909189 170527452 83054781 984356760 714461274 1610046737 -1290626719 2118512553 -940632751 1053439260 -2026205161 -1767551854 1729415047 -552289024 -1224265798 -1915977362 766254252 1306828201 -1824014451 1241866278 -2079576391
REM
CELL 1.54180   50.00000   50.00000   50.00000   90.00000   90.00000   90.00000
LATT -1
SFAC C  
C      1  0.5378510000000  0.4783290000000  0.5647140000000 1.0
C      1  0.4246210000000  0.5116020000000  0.4774490000000 1.0
C      1  0.5484960000000  0.5485180000000  0.5373320000000 1.0
C      1  0.4173610000000  0.4849470000000  0.4805700000000 1.0
C      1  0.4768990000000  0.5515630000000  0.5468720000000 1.0
C      1  0.5697850000000  0.4540500000000  0.4951950000000 1.0
C      1  0.4700900000000  0.4773850000000  0.4896870000000 1.0
C      1  0.4456700000000  0.4388970000000  0.5121910000000 1.0
C      1  0.4463020000000  0.5457200000000  0.5110220000000 1.0
C      1  0.5277870000000  0.4495550000000  0.4740700000000 1.0
C      1  0.4721830000000  0.5080600000000  0.5661810000000 1.0
C      1  0.5193100000000  0.4771580000000  0.4845640000000 1.0
C      1  0.5278580000000  0.5159610000000  0.5779110000000 1.0
C      1  0.5722550000000  0.5035370000000  0.4754080000000 1.0
C      1  0.4804800000000  0.4596730000000  0.4491360000000 1.0
C      1  0.4597560000000  0.4829020000000  0.5162620000000 1.0
C      1  0.4855250000000  0.5337450000000  0.5674820000000 1.0
C      1  0.5361460000000  0.4868440000000  0.5070950000000 1.0
C      1  0.4994980000000  0.5612520000000  0.5312140000000 1.0
C      1  0.4809180000000  0.5226040000000  0.4959990000000 1.0
C      1  0.5135430000000  0.5378680000000  0.5691090000000 1.0
C      1  0.4916530000000  0.4379470000000  0.5087240000000 1.0
C      1  0.4571430000000  0.4558420000000  0.5312610000000 1.0
C      1  0.5077720000000  0.5007280000000  0.4712710000000 1.0
C      1  0.5195900000000  0.4350960000000  0.5019810000000 1.0
C      1  0.4518960000000  0.5420420000000  0.5382440000000 1.0
C      1  0.4774560000000  0.5078370000000  0.5223060000000 1.0
C      1  0.4770320000000  0.5019830000000  0.4748860000000 1.0
C      1  0.5234860000000  0.5349720000000  0.4360260000000 1.0
C      1  0.5052150000000  0.5048340000000  0.5327570000000 1.0
C      1  0.4245020000000  0.4523860000000  0.5018980000000 1.0
C      1  0.4386190000000  0.5495960000000  0.4556510000000 1.0
C      1  0.4959630000000  0.4582710000000  0.5559260000000 1.0
C      1  0.5113050000000  0.5548640000000  0.4542200000000 1.0
C      1  0.4793690000000  0.5303390000000  0.4329320000000 1.0
C      1  0.4702080000000  0.5532170000000  0.4939150000000 1.0
C      1  0.4609640000000  0.4540420000000  0.4719910000000 1.0
C      1  0.4315890000000  0.5222600000000  0.5034110000000 1.0
C      1  0.5491070000000  0.5479470000000  0.4850610000000 1.0
C      1  0.5154980000000  0.4904140000000  0.5790240000000 1.0
C      1  0.5192510000000  0.5536990000000  0.4823230000000 1.0
C      1  0.4517600000000  0.5135530000000  0.5450960000000 1.0
C      1  0.4975390000000  0.5640710000000  0.5032010000000 1.0
C      1  0.4340800000000  0.4992450000000  0.5221690000000 1.0
C      1  0.5097320000000  0.4555560000000  0.4501690000000 1.0
C      1  0.5125650000000  0.4776230000000  0.5253890000000 1.0
C      1  0.5110410000000  0.5230010000000  0.4903320000000 1.0
C      1  0.5605440000000  0.5464130000000  0.5105280000000 1.0
C      1  0.4167910000000  0.4786300000000  0.5094960000000 1.0
C      1  0.5749970000000  0.5227810000000  0.5189860000000 1.0
C      1  0.5219210000000  0.4760660000000  0.4325450000000 1.0
C      1  0.4835950000000  0.5545020000000  0.4477680000000 1.0
C      1  0.4810140000000  0.4433800000000  0.5380480000000 1.0
C      1  0.4377170000000  0.5221130000000  0.4541450000000 1.0
C      1  0.5628440000000  0.5235230000000  0.5453960000000 1.0
C      1  0.4638340000000  0.5088660000000  0.4462520000000 1.0
C      1  0.4306690000000  0.4591660000000  0.4742110000000 1.0
C      1  0.5794570000000  0.5004790000000  0.5029220000000 1.0
C      1  0.5452340000000  0.4910860000000  0.4398840000000 1.0
C      1  0.5509280000000  0.5053770000000  0.5629020000000 1.0
C      1  0.5621310000000  0.4470290000000  0.5194710000000 1.0
C      1  0.5010600000000  0.4919000000000  0.4228120000000 1.0
C      1  0.4962560000000  0.4674680000000  0.5021910000000 1.0
C      1  0.5592560000000  0.5277270000000  0.4666570000000 1.0
C      1  0.5566420000000  0.4552240000000  0.4709590000000 1.0
C      1  0.5620160000000  0.4812570000000  0.4598010000000 1.0
C      1  0.4625340000000  0.5587540000000  0.4664510000000 1.0
C      1  0.4664980000000  0.4337960000000  0.4935940000000 1.0
C      1  0.5455530000000  0.5199900000000  0.4429940000000 1.0
C      1  0.5644940000000  0.4774420000000  0.5129290000000 1.0
C      1  0.4761740000000  0.4834940000000  0.4335650000000 1.0
C      1  0.5254710000000  0.5135760000000  0.5138570000000 1.0
C      1  0.5228700000000  0.5544490000000  0.5471220000000 1.0
C      1  0.5034350000000  0.5199160000000  0.4234560000000 1.0
C      1  0.4897010000000  0.4838490000000  0.5701040000000 1.0
C      1  0.5357210000000  0.4409380000000  0.5249940000000 1.0
C      1  0.5239690000000  0.4592720000000  0.5463310000000 1.0
END
