TITL C-173964-9361-9 0.21749667965729 125000 -633.362273199634 0 0 90 (C1) n - 1
REM
REM in /rds/project/t2_vol4/rds-t2-cs072/BORA/CARBON/from-Arr/AIRSS/Generating-Clusters/GAP-ML-2020/Only-C1/SD-CG/HFTN-CG
REM
REM
REM
REM
REM
REM ./C.cell (11c1c37f851c82e70ff6c80c92926a4b)
REM AIRSS Version 0.9.1 bugfix July 2018 build 013d7b7c2542+ Fri, 06 Jul 2018 19:26:36 +0100
REM compiler GCC version 9.3.0
REM options -cpp -mtune=generic -march=x86-64 -g -O0
REM seed -1748900710 1558757956 -1932627986 1757774431 1550403641 -601319346 -98492585 1935576121 -2118361132 -447576255 -1520781545 -745853289 -722000136 411450117 -827625175 1268571538 701877217 1142300856 -1134337617 -1773456786 918011560 1095878490 -461248252 1994999039 -1250314573 -368264532 -2044656800 -1106766974 425365128 -1624868997 -240984601 -1345593984 2105565601
REM
CELL 1.54180   50.00000   50.00000   50.00000   90.00000   90.00000   90.00000
LATT -1
SFAC C  
C      1  0.4853440000000  0.4378990000000  0.4383140000000 1.0
C      1  0.4956660000000  0.5161700000000  0.5902020000000 1.0
C      1  0.5147630000000  0.5757870000000  0.4787860000000 1.0
C      1  0.5326690000000  0.4371110000000  0.5221800000000 1.0
C      1  0.5624200000000  0.5219840000000  0.5468280000000 1.0
C      1  0.5689350000000  0.4795620000000  0.4606650000000 1.0
C      1  0.5384000000000  0.5529330000000  0.5159110000000 1.0
C      1  0.4708720000000  0.4554520000000  0.5692890000000 1.0
C      1  0.5319970000000  0.4295880000000  0.4929820000000 1.0
C      1  0.4637270000000  0.4479910000000  0.4258540000000 1.0
C      1  0.4539630000000  0.5264270000000  0.5639430000000 1.0
C      1  0.5855300000000  0.4862090000000  0.5236000000000 1.0
C      1  0.5187230000000  0.4783600000000  0.4914220000000 1.0
C      1  0.4857250000000  0.4732960000000  0.5377170000000 1.0
C      1  0.5443260000000  0.5444090000000  0.5448000000000 1.0
C      1  0.4961630000000  0.4587300000000  0.4912380000000 1.0
C      1  0.4248010000000  0.5251290000000  0.4785130000000 1.0
C      1  0.4860730000000  0.4492910000000  0.5182920000000 1.0
C      1  0.4917260000000  0.4986800000000  0.5271050000000 1.0
C      1  0.5625140000000  0.5257510000000  0.4565970000000 1.0
C      1  0.5076460000000  0.4361220000000  0.4745970000000 1.0
C      1  0.4579180000000  0.4886170000000  0.4903090000000 1.0
C      1  0.4370620000000  0.5005880000000  0.4664480000000 1.0
C      1  0.5546250000000  0.4356680000000  0.4793820000000 1.0
C      1  0.4190480000000  0.5269440000000  0.5067050000000 1.0
C      1  0.5128940000000  0.5490560000000  0.4407150000000 1.0
C      1  0.4905530000000  0.4890220000000  0.5917250000000 1.0
C      1  0.4409950000000  0.4646110000000  0.5045050000000 1.0
C      1  0.5833170000000  0.5382610000000  0.5059080000000 1.0
C      1  0.4496950000000  0.5147250000000  0.4427110000000 1.0
C      1  0.5562060000000  0.5067410000000  0.5008270000000 1.0
C      1  0.4785380000000  0.5333180000000  0.5766880000000 1.0
C      1  0.5224940000000  0.5204630000000  0.5817450000000 1.0
C      1  0.4655580000000  0.4805660000000  0.5828180000000 1.0
C      1  0.5692180000000  0.4758940000000  0.5452130000000 1.0
C      1  0.5543910000000  0.4580870000000  0.5252980000000 1.0
C      1  0.4875890000000  0.5743360000000  0.4703460000000 1.0
C      1  0.4473190000000  0.4693530000000  0.4325530000000 1.0
C      1  0.5139610000000  0.4978090000000  0.4708370000000 1.0
C      1  0.5346720000000  0.4946880000000  0.5776840000000 1.0
C      1  0.5628580000000  0.5532560000000  0.4964820000000 1.0
C      1  0.4738130000000  0.5073360000000  0.5064810000000 1.0
C      1  0.5552130000000  0.5504690000000  0.4684180000000 1.0
C      1  0.5109820000000  0.4799630000000  0.4125870000000 1.0
C      1  0.5304180000000  0.5242810000000  0.5054870000000 1.0
C      1  0.5130840000000  0.4452660000000  0.4446470000000 1.0
C      1  0.5778400000000  0.4628170000000  0.5064890000000 1.0
C      1  0.4718290000000  0.5749630000000  0.4941900000000 1.0
C      1  0.4996000000000  0.4550150000000  0.5610020000000 1.0
C      1  0.4105400000000  0.5036900000000  0.5176400000000 1.0
C      1  0.4569420000000  0.4474770000000  0.5232170000000 1.0
C      1  0.4338800000000  0.4770310000000  0.5504670000000 1.0
C      1  0.4802200000000  0.4252020000000  0.4646510000000 1.0
C      1  0.4770330000000  0.4739030000000  0.4738840000000 1.0
C      1  0.5768700000000  0.5152380000000  0.5217780000000 1.0
C      1  0.4782750000000  0.5614210000000  0.5405310000000 1.0
C      1  0.5308090000000  0.5620140000000  0.4595650000000 1.0
C      1  0.5108130000000  0.5222730000000  0.4843690000000 1.0
C      1  0.4470530000000  0.5620280000000  0.4950350000000 1.0
C      1  0.4495850000000  0.4527920000000  0.5505850000000 1.0
C      1  0.5232100000000  0.5431690000000  0.5639910000000 1.0
C      1  0.4322400000000  0.4716580000000  0.4565080000000 1.0
C      1  0.5722470000000  0.4571460000000  0.4792720000000 1.0
C      1  0.4360720000000  0.5487750000000  0.5180960000000 1.0
C      1  0.5507840000000  0.4830690000000  0.4386800000000 1.0
C      1  0.5285280000000  0.4655160000000  0.4303360000000 1.0
C      1  0.4224900000000  0.4800820000000  0.5238870000000 1.0
C      1  0.4364560000000  0.4507300000000  0.4773640000000 1.0
C      1  0.4546060000000  0.4303010000000  0.4732560000000 1.0
C      1  0.4893100000000  0.5734130000000  0.5167970000000 1.0
C      1  0.5167740000000  0.5722820000000  0.5070000000000 1.0
C      1  0.4950130000000  0.5509030000000  0.5614220000000 1.0
C      1  0.5581660000000  0.4967070000000  0.5612120000000 1.0
C      1  0.4846370000000  0.5559280000000  0.4488540000000 1.0
C      1  0.5082980000000  0.4388540000000  0.5363770000000 1.0
C      1  0.4847490000000  0.5274710000000  0.4918590000000 1.0
C      1  0.4584220000000  0.5419630000000  0.4494510000000 1.0
C      1  0.4873560000000  0.4922840000000  0.4251220000000 1.0
C      1  0.5191710000000  0.5014920000000  0.5221760000000 1.0
C      1  0.5706860000000  0.5048570000000  0.4738880000000 1.0
C      1  0.4469630000000  0.4975750000000  0.5681010000000 1.0
C      1  0.4922430000000  0.4886890000000  0.4554800000000 1.0
C      1  0.4402810000000  0.5478180000000  0.4711390000000 1.0
C      1  0.5485580000000  0.5133200000000  0.4354300000000 1.0
C      1  0.5129410000000  0.4747710000000  0.5804230000000 1.0
C      1  0.4584850000000  0.4950630000000  0.4240730000000 1.0
C      1  0.4524990000000  0.5469880000000  0.5418750000000 1.0
C      1  0.5386840000000  0.4830200000000  0.5104720000000 1.0
C      1  0.5247040000000  0.5268400000000  0.4257830000000 1.0
C      1  0.5097360000000  0.5072590000000  0.4129150000000 1.0
END
