TITL C-173965-9317-1 -0.0387149473397552 125000 -423.363224799646 0 0 61 (C1) n - 1
REM
REM in /rds/project/t2_vol4/rds-t2-cs072/BORA/CARBON/from-Arr/AIRSS/Generating-Clusters/GAP-ML-2020/Only-C1/SD-CG/HFTN-CG
REM
REM
REM
REM
REM
REM ./C.cell (11c1c37f851c82e70ff6c80c92926a4b)
REM AIRSS Version 0.9.1 bugfix July 2018 build 013d7b7c2542+ Fri, 06 Jul 2018 19:26:36 +0100
REM compiler GCC version 9.3.0
REM options -cpp -mtune=generic -march=x86-64 -g -O0
REM seed -350879249 -1697614238 509350472 1882325177 -1829988504 -459966432 -1934965942 401299762 -1787878757 532131437 -1311405786 -890402507 -1462720170 324671065 170702342 1777225751 -1220935779 1075325966 565800882 -661801217 -735573805 -1986095915 1607731246 2051831803 612589385 424427543 828451306 -482459691 -696503290 -1900115056 427201434 1658384607 206873432
REM
CELL 1.54180   50.00000   50.00000   50.00000   90.00000   90.00000   90.00000
LATT -1
SFAC C  
C      1  0.4767010000000  0.5322760000000  0.4430600000000 1.0
C      1  0.5555650000000  0.5170830000000  0.4818380000000 1.0
C      1  0.4769760000000  0.4454980000000  0.5003730000000 1.0
C      1  0.4789370000000  0.5102170000000  0.4933720000000 1.0
C      1  0.4494660000000  0.5321040000000  0.5464610000000 1.0
C      1  0.5208130000000  0.5145980000000  0.5705700000000 1.0
C      1  0.5036120000000  0.4753850000000  0.5337770000000 1.0
C      1  0.5225930000000  0.5298600000000  0.4463580000000 1.0
C      1  0.4899650000000  0.5224950000000  0.5155510000000 1.0
C      1  0.5182520000000  0.5152520000000  0.5191250000000 1.0
C      1  0.5563190000000  0.4937590000000  0.5447920000000 1.0
C      1  0.5142970000000  0.4822070000000  0.4860830000000 1.0
C      1  0.4521000000000  0.4930530000000  0.4516330000000 1.0
C      1  0.5633320000000  0.4905670000000  0.4901390000000 1.0
C      1  0.4319480000000  0.4914100000000  0.4964980000000 1.0
C      1  0.4738380000000  0.5411670000000  0.5552390000000 1.0
C      1  0.4939680000000  0.5044460000000  0.5382960000000 1.0
C      1  0.4747330000000  0.5676470000000  0.5076440000000 1.0
C      1  0.4993240000000  0.5176930000000  0.4338390000000 1.0
C      1  0.4852980000000  0.5531550000000  0.4607170000000 1.0
C      1  0.4829500000000  0.4932750000000  0.5780120000000 1.0
C      1  0.5458310000000  0.5379030000000  0.5000750000000 1.0
C      1  0.5002010000000  0.4339040000000  0.4868120000000 1.0
C      1  0.4784790000000  0.5471850000000  0.5274640000000 1.0
C      1  0.5553530000000  0.4821870000000  0.5166640000000 1.0
C      1  0.4558940000000  0.4723400000000  0.5401510000000 1.0
C      1  0.4430290000000  0.4780120000000  0.4747450000000 1.0
C      1  0.5141650000000  0.5508190000000  0.4632670000000 1.0
C      1  0.5480660000000  0.4680180000000  0.5550300000000 1.0
C      1  0.4981310000000  0.4894210000000  0.4300710000000 1.0
C      1  0.5568420000000  0.4724800000000  0.4686700000000 1.0
C      1  0.4317310000000  0.5207580000000  0.4981250000000 1.0
C      1  0.5236260000000  0.4860890000000  0.5124970000000 1.0
C      1  0.4729000000000  0.4778060000000  0.4384340000000 1.0
C      1  0.5289480000000  0.4357150000000  0.4927000000000 1.0
C      1  0.4526530000000  0.5210980000000  0.4530540000000 1.0
C      1  0.5552980000000  0.4546470000000  0.5293990000000 1.0
C      1  0.4742920000000  0.4532100000000  0.4531610000000 1.0
C      1  0.5418650000000  0.4480270000000  0.4695170000000 1.0
C      1  0.4922760000000  0.5200160000000  0.5645190000000 1.0
C      1  0.4943180000000  0.4961760000000  0.4774930000000 1.0
C      1  0.5400770000000  0.4369540000000  0.5173060000000 1.0
C      1  0.4937560000000  0.5896030000000  0.5069050000000 1.0
C      1  0.4597160000000  0.4548610000000  0.4777210000000 1.0
C      1  0.5286150000000  0.5579610000000  0.4873330000000 1.0
C      1  0.5453450000000  0.5151530000000  0.4544680000000 1.0
C      1  0.4785380000000  0.4590440000000  0.5259320000000 1.0
C      1  0.4457980000000  0.5354570000000  0.4779790000000 1.0
C      1  0.5220070000000  0.4498000000000  0.4485520000000 1.0
C      1  0.4376460000000  0.4888230000000  0.5249320000000 1.0
C      1  0.5123630000000  0.4873700000000  0.5791230000000 1.0
C      1  0.5395370000000  0.5320660000000  0.5273270000000 1.0
C      1  0.4359880000000  0.5181900000000  0.5277330000000 1.0
C      1  0.5457370000000  0.4877850000000  0.4468430000000 1.0
C      1  0.4662540000000  0.5562740000000  0.4817530000000 1.0
C      1  0.5198900000000  0.4694580000000  0.5588130000000 1.0
C      1  0.5163440000000  0.5794340000000  0.4998770000000 1.0
C      1  0.5438470000000  0.5183840000000  0.5518390000000 1.0
C      1  0.5225130000000  0.4750790000000  0.4356880000000 1.0
C      1  0.4631440000000  0.4799940000000  0.5664120000000 1.0
C      1  0.4979980000000  0.4393550000000  0.4582360000000 1.0
END
