TITL C-17746-6580-10 19.7321290096335 125000 -426.459440259243 0 0 60 (C1) n - 1
REM
REM in /rds/project/t2_vol4/rds-t2-cs072/BORA/CARBON/from-Arr/AIRSS/Generating-Clusters/GAP-ML-2020/Only-C1/SD-CG/HFTN-CG
REM
REM
REM
REM
REM
REM ./C.cell (11c1c37f851c82e70ff6c80c92926a4b)
REM AIRSS Version 0.9.1 bugfix July 2018 build 013d7b7c2542+ Fri, 06 Jul 2018 19:26:36 +0100
REM compiler GCC version 9.3.0
REM options -cpp -mtune=generic -march=x86-64 -g -O0
REM seed -468371957 -1005163130 -1394035679 74018501 2067496733 1461071500 369540284 -1489713409 -319436488 -1122668396 -678203171 1112989962 -1112099481 -207323125 1879540887 108163535 100338067 -1325285292 -880489098 -993175404 2039536039 -2110504563 45148755 1501585489 1750658147 -978418392 -891626395 -1553017413 160121758 138330920 -1098618687 -540271711 657516467
REM
CELL 1.54180   50.00000   50.00000   50.00000   90.00000   90.00000   90.00000
LATT -1
SFAC C  
C      1  0.5349650000000  0.4484950000000  0.4619790000000 1.0
C      1  0.5063580000000  0.4879900000000  0.5667670000000 1.0
C      1  0.4991260000000  0.5576430000000  0.4410460000000 1.0
C      1  0.5543430000000  0.4658810000000  0.4737790000000 1.0
C      1  0.5383290000000  0.5461390000000  0.5366750000000 1.0
C      1  0.4803410000000  0.5304040000000  0.5667420000000 1.0
C      1  0.5548830000000  0.4656840000000  0.5020730000000 1.0
C      1  0.5456330000000  0.4859260000000  0.5423470000000 1.0
C      1  0.4431320000000  0.4874380000000  0.4773050000000 1.0
C      1  0.5132150000000  0.5111250000000  0.4432480000000 1.0
C      1  0.5498050000000  0.5397820000000  0.5121420000000 1.0
C      1  0.4584430000000  0.4892450000000  0.5569870000000 1.0
C      1  0.5149830000000  0.4335480000000  0.4761100000000 1.0
C      1  0.4703510000000  0.5239960000000  0.5197850000000 1.0
C      1  0.5304400000000  0.5025220000000  0.5603200000000 1.0
C      1  0.5328880000000  0.4603840000000  0.5413790000000 1.0
C      1  0.4953810000000  0.4570580000000  0.4412440000000 1.0
C      1  0.4835980000000  0.5046610000000  0.4410080000000 1.0
C      1  0.4561350000000  0.5558040000000  0.5027070000000 1.0
C      1  0.4560190000000  0.5356480000000  0.5510860000000 1.0
C      1  0.4417830000000  0.5103000000000  0.5459760000000 1.0
C      1  0.4370650000000  0.4826870000000  0.5047900000000 1.0
C      1  0.5039450000000  0.5009920000000  0.4978040000000 1.0
C      1  0.5117810000000  0.5591040000000  0.5335540000000 1.0
C      1  0.5148330000000  0.4333230000000  0.5046450000000 1.0
C      1  0.4651530000000  0.4414810000000  0.5023830000000 1.0
C      1  0.4817210000000  0.5498370000000  0.4609290000000 1.0
C      1  0.4342210000000  0.5078230000000  0.5180900000000 1.0
C      1  0.5367510000000  0.4478040000000  0.5165320000000 1.0
C      1  0.4621870000000  0.4653260000000  0.5422600000000 1.0
C      1  0.5199440000000  0.5126980000000  0.4737940000000 1.0
C      1  0.5068580000000  0.5558100000000  0.5036250000000 1.0
C      1  0.4679980000000  0.5240450000000  0.4550310000000 1.0
C      1  0.5542260000000  0.4906100000000  0.4589800000000 1.0
C      1  0.5589610000000  0.4903000000000  0.5170560000000 1.0
C      1  0.5292530000000  0.5306800000000  0.5588180000000 1.0
C      1  0.5227950000000  0.4630310000000  0.4400000000000 1.0
C      1  0.5329180000000  0.4894700000000  0.4393890000000 1.0
C      1  0.4757130000000  0.4776660000000  0.4426110000000 1.0
C      1  0.5081260000000  0.4617440000000  0.5550720000000 1.0
C      1  0.4661600000000  0.4436500000000  0.4743590000000 1.0
C      1  0.4497160000000  0.4607630000000  0.5169870000000 1.0
C      1  0.5531760000000  0.5148360000000  0.4745330000000 1.0
C      1  0.4563560000000  0.4683110000000  0.4621810000000 1.0
C      1  0.4891950000000  0.4356370000000  0.5175480000000 1.0
C      1  0.5459100000000  0.5510060000000  0.4408100000000 1.0
C      1  0.4907510000000  0.4377870000000  0.4619560000000 1.0
C      1  0.5203380000000  0.5405240000000  0.4374680000000 1.0
C      1  0.4862780000000  0.4498050000000  0.5423240000000 1.0
C      1  0.4483180000000  0.5151030000000  0.4733690000000 1.0
C      1  0.4451580000000  0.5281880000000  0.4987460000000 1.0
C      1  0.5607720000000  0.5151000000000  0.5026470000000 1.0
C      1  0.5346350000000  0.5533330000000  0.4920360000000 1.0
C      1  0.5470190000000  0.5430240000000  0.4668240000000 1.0
C      1  0.4816710000000  0.5014010000000  0.5698760000000 1.0
C      1  0.5033830000000  0.5440370000000  0.5585990000000 1.0
C      1  0.4970340000000  0.4769580000000  0.4912290000000 1.0
C      1  0.4602260000000  0.5530570000000  0.5303500000000 1.0
C      1  0.4982770000000  0.5232130000000  0.5140150000000 1.0
C      1  0.4810270000000  0.5601640000000  0.4880770000000 1.0
END
