TITL C-173959-351-9 0.151120770678412 125000 -374.568474258424 0 0 56 (C1) n - 1
REM
REM in /rds/project/t2_vol4/rds-t2-cs072/BORA/CARBON/from-Arr/AIRSS/Generating-Clusters/GAP-ML-2020/Only-C1/SD-CG/HFTN-CG
REM
REM
REM
REM
REM
REM ./C.cell (11c1c37f851c82e70ff6c80c92926a4b)
REM AIRSS Version 0.9.1 bugfix July 2018 build 013d7b7c2542+ Fri, 06 Jul 2018 19:26:36 +0100
REM compiler GCC version 9.3.0
REM options -cpp -mtune=generic -march=x86-64 -g -O0
REM seed 705691125 -1970281595 -450865749 274243264 -288769686 435953098 1605091088 -1675571365 -39796693 2044549375 -259100136 398351240 -1791018753 1044757476 -177321037 856900801 -853323914 335550565 1620823665 869807300 492846311 1458496005 -908470799 564794787 -1454380574 593795798 -886839946 -1760277650 2013929352 -270562325 5562786 1600095850 811969608
REM
CELL 1.54180   50.00000   50.00000   50.00000   90.00000   90.00000   90.00000
LATT -1
SFAC C  
C      1  0.5187450000000  0.4973290000000  0.5353550000000 1.0
C      1  0.4897770000000  0.5539190000000  0.4590160000000 1.0
C      1  0.4906580000000  0.4645250000000  0.5213000000000 1.0
C      1  0.5186390000000  0.4531160000000  0.5229190000000 1.0
C      1  0.4910830000000  0.4764030000000  0.4297630000000 1.0
C      1  0.5580650000000  0.5108430000000  0.5535410000000 1.0
C      1  0.5171190000000  0.4936460000000  0.5779810000000 1.0
C      1  0.5107200000000  0.5372870000000  0.5554720000000 1.0
C      1  0.5582660000000  0.5492730000000  0.4824050000000 1.0
C      1  0.5269530000000  0.4432460000000  0.4969670000000 1.0
C      1  0.4747980000000  0.4620420000000  0.4481600000000 1.0
C      1  0.4468800000000  0.5258230000000  0.4817280000000 1.0
C      1  0.4481200000000  0.4952250000000  0.5194250000000 1.0
C      1  0.5139950000000  0.4625360000000  0.4418150000000 1.0
C      1  0.5651330000000  0.5008040000000  0.4810150000000 1.0
C      1  0.4762290000000  0.5566070000000  0.4829680000000 1.0
C      1  0.4982720000000  0.4429840000000  0.4545080000000 1.0
C      1  0.4727510000000  0.5347090000000  0.5260390000000 1.0
C      1  0.5300690000000  0.5146590000000  0.5580600000000 1.0
C      1  0.5269200000000  0.4697110000000  0.5684750000000 1.0
C      1  0.4513270000000  0.4791640000000  0.5433750000000 1.0
C      1  0.4971080000000  0.5040410000000  0.4302390000000 1.0
C      1  0.4599580000000  0.5449280000000  0.5003850000000 1.0
C      1  0.4679160000000  0.5086990000000  0.4682820000000 1.0
C      1  0.5025190000000  0.4437530000000  0.4817060000000 1.0
C      1  0.5272060000000  0.5055210000000  0.5086880000000 1.0
C      1  0.5587420000000  0.5258680000000  0.4678920000000 1.0
C      1  0.5277880000000  0.4834260000000  0.4576040000000 1.0
C      1  0.5015250000000  0.5429010000000  0.5291240000000 1.0
C      1  0.5184970000000  0.5508940000000  0.4613430000000 1.0
C      1  0.4913310000000  0.5127570000000  0.4887250000000 1.0
C      1  0.5232200000000  0.5072110000000  0.4413100000000 1.0
C      1  0.4897520000000  0.5014740000000  0.5789290000000 1.0
C      1  0.4664710000000  0.4771510000000  0.4726190000000 1.0
C      1  0.5312050000000  0.5514670000000  0.4878270000000 1.0
C      1  0.4713270000000  0.4955610000000  0.5570990000000 1.0
C      1  0.5154980000000  0.5334340000000  0.5058700000000 1.0
C      1  0.4615970000000  0.4566490000000  0.5283190000000 1.0
C      1  0.5486580000000  0.4524610000000  0.4831320000000 1.0
C      1  0.4877980000000  0.5304370000000  0.5710320000000 1.0
C      1  0.5351780000000  0.5304090000000  0.4493340000000 1.0
C      1  0.4292400000000  0.4928540000000  0.4983400000000 1.0
C      1  0.5618350000000  0.4915520000000  0.5347850000000 1.0
C      1  0.4762240000000  0.5202470000000  0.4414920000000 1.0
C      1  0.5106480000000  0.4909450000000  0.4869810000000 1.0
C      1  0.5339490000000  0.4702230000000  0.5412100000000 1.0
C      1  0.4908810000000  0.4915700000000  0.5340300000000 1.0
C      1  0.5539470000000  0.4762860000000  0.4696360000000 1.0
C      1  0.4426990000000  0.4692230000000  0.4884950000000 1.0
C      1  0.5564370000000  0.5010880000000  0.5084840000000 1.0
C      1  0.4223040000000  0.5151160000000  0.4841210000000 1.0
C      1  0.4464680000000  0.4481770000000  0.5076680000000 1.0
C      1  0.4755050000000  0.5072740000000  0.5142270000000 1.0
C      1  0.4751070000000  0.5471590000000  0.4359150000000 1.0
C      1  0.4910020000000  0.4686720000000  0.4912510000000 1.0
C      1  0.4659410000000  0.5267230000000  0.5536190000000 1.0
END
