TITL C-176665-7058-3 -0.0134723298176471 125000 -43.7962931236403 0 0 7 (C2v) n - 1
REM
REM in /rds/project/t2_vol4/rds-t2-cs072/BORA/CARBON/from-Arr/AIRSS/Generating-Clusters/GAP-ML-2020/Only-C1/SD-CG/HFTN-CG
REM
REM
REM
REM
REM
REM ./C.cell (11c1c37f851c82e70ff6c80c92926a4b)
REM AIRSS Version 0.9.1 bugfix July 2018 build 013d7b7c2542+ Fri, 06 Jul 2018 19:26:36 +0100
REM compiler GCC version 9.3.0
REM options -cpp -mtune=generic -march=x86-64 -g -O0
REM seed 1014443111 -400120559 -626276350 -13802878 -660668329 -1488641213 1716193797 -1566568310 1568617744 -1348731087 -1938286750 3653742 -2101400660 -927309301 -422426148 1908109762 115136596 2092754608 330078291 144267204 769769803 -310012780 -1955100933 1360360899 1641264184 -962085272 762314289 -2033581747 -1145733960 773307097 -1772849358 366040973 1863396489
REM
CELL 1.54180   50.00000   50.00000   50.00000   90.00000   90.00000   90.00000
LATT -1
SFAC C  
C      1  0.4992880000000  0.5029980000000  0.5013660000000 1.0
C      1  0.4764160000000  0.5444490000000  0.5230950000000 1.0
C      1  0.5008310000000  0.5513930000000  0.5205750000000 1.0
C      1  0.5045180000000  0.4809700000000  0.4913290000000 1.0
C      1  0.5099630000000  0.4580330000000  0.4808780000000 1.0
C      1  0.5153010000000  0.4355490000000  0.4706330000000 1.0
C      1  0.4936830000000  0.5266070000000  0.5121230000000 1.0
END
