TITL C-17762-6598-4 0.0457429256296381 125000 -282.882358715254 0 0 43 (C1) n - 1
REM
REM in /rds/project/t2_vol4/rds-t2-cs072/BORA/CARBON/from-Arr/AIRSS/Generating-Clusters/GAP-ML-2020/Only-C1/SD-CG/HFTN-CG
REM
REM
REM
REM
REM
REM ./C.cell (11c1c37f851c82e70ff6c80c92926a4b)
REM AIRSS Version 0.9.1 bugfix July 2018 build 013d7b7c2542+ Fri, 06 Jul 2018 19:26:36 +0100
REM compiler GCC version 9.3.0
REM options -cpp -mtune=generic -march=x86-64 -g -O0
REM seed -550712859 -1209998654 -962876606 1975252185 820608323 -582848231 208975518 -1688488586 994982048 -1139404810 -1897511271 -710465584 -1229535430 -829188998 -571419718 2116619006 -1858627796 -1292745905 562572580 742894742 1677916740 1453151757 -494245577 1226202672 1502327584 -1322556631 -426667366 -1648422875 470569792 -1408740755 -107204887 1413180823 -1085448298
REM
CELL 1.54180   50.00000   50.00000   50.00000   90.00000   90.00000   90.00000
LATT -1
SFAC C  
C      1  0.4515080000000  0.4609650000000  0.4961440000000 1.0
C      1  0.4827980000000  0.5316910000000  0.4736040000000 1.0
C      1  0.4643940000000  0.5045020000000  0.4388510000000 1.0
C      1  0.4783600000000  0.5276080000000  0.4434610000000 1.0
C      1  0.4812310000000  0.5014100000000  0.4800070000000 1.0
C      1  0.4644860000000  0.5447820000000  0.4937060000000 1.0
C      1  0.5070640000000  0.4414130000000  0.4625160000000 1.0
C      1  0.5069670000000  0.5559640000000  0.5049200000000 1.0
C      1  0.5442790000000  0.4639810000000  0.4785170000000 1.0
C      1  0.5463410000000  0.5134730000000  0.4642190000000 1.0
C      1  0.5083340000000  0.5420770000000  0.4794250000000 1.0
C      1  0.5327100000000  0.4420070000000  0.4656880000000 1.0
C      1  0.4749150000000  0.4630310000000  0.5124620000000 1.0
C      1  0.4887880000000  0.4613070000000  0.4614260000000 1.0
C      1  0.4379390000000  0.4846060000000  0.5064010000000 1.0
C      1  0.5563380000000  0.4667870000000  0.5031320000000 1.0
C      1  0.5018610000000  0.5132190000000  0.5460720000000 1.0
C      1  0.5474200000000  0.5230380000000  0.5551780000000 1.0
C      1  0.4922600000000  0.5039800000000  0.4376260000000 1.0
C      1  0.4604620000000  0.4642760000000  0.4689670000000 1.0
C      1  0.4810910000000  0.4921040000000  0.5079290000000 1.0
C      1  0.4560750000000  0.5039110000000  0.5225970000000 1.0
C      1  0.4557890000000  0.4931230000000  0.4651460000000 1.0
C      1  0.5447220000000  0.4840440000000  0.5232220000000 1.0
C      1  0.5078390000000  0.4880070000000  0.5602720000000 1.0
C      1  0.4697100000000  0.5031600000000  0.5488180000000 1.0
C      1  0.5266250000000  0.5468190000000  0.5225830000000 1.0
C      1  0.5288950000000  0.4913430000000  0.4747690000000 1.0
C      1  0.5546250000000  0.5331330000000  0.4828690000000 1.0
C      1  0.4799140000000  0.4787340000000  0.5567490000000 1.0
C      1  0.5324440000000  0.5380640000000  0.4661080000000 1.0
C      1  0.5267330000000  0.5017160000000  0.5037830000000 1.0
C      1  0.4799960000000  0.5627950000000  0.5074190000000 1.0
C      1  0.5034140000000  0.5034580000000  0.5187610000000 1.0
C      1  0.4368960000000  0.5043630000000  0.4852680000000 1.0
C      1  0.5015890000000  0.4889600000000  0.4627340000000 1.0
C      1  0.5089470000000  0.4501360000000  0.5414410000000 1.0
C      1  0.5215010000000  0.5348460000000  0.5486470000000 1.0
C      1  0.4467990000000  0.5253900000000  0.5034990000000 1.0
C      1  0.5445910000000  0.5274280000000  0.5095890000000 1.0
C      1  0.4818010000000  0.4561560000000  0.5386370000000 1.0
C      1  0.5557000000000  0.5107710000000  0.5322950000000 1.0
C      1  0.5258460000000  0.4714190000000  0.5445410000000 1.0
END
