TITL C-17749-6681-4 0.00638590350761497 125000 -29.1208935430424 0 0 5 (C2v) n - 1
REM
REM in /rds/project/t2_vol4/rds-t2-cs072/BORA/CARBON/from-Arr/AIRSS/Generating-Clusters/GAP-ML-2020/Only-C1/SD-CG/HFTN-CG
REM
REM
REM
REM
REM
REM ./C.cell (11c1c37f851c82e70ff6c80c92926a4b)
REM AIRSS Version 0.9.1 bugfix July 2018 build 013d7b7c2542+ Fri, 06 Jul 2018 19:26:36 +0100
REM compiler GCC version 9.3.0
REM options -cpp -mtune=generic -march=x86-64 -g -O0
REM seed 1966412150 1892908245 665100528 -1587399556 -1015431406 711296002 1094638375 -826163845 -1090625557 506857167 -894473542 232356421 -1487452989 -1201535212 -1058428379 77245182 -1948213397 1594241011 -807724807 -1738180356 397799186 819489312 21391578 345636195 -642110061 114986133 1813998166 -1385486311 951797733 -670580354 1290313627 -1853694527 1436873537
REM
CELL 1.54180   50.00000   50.00000   50.00000   90.00000   90.00000   90.00000
LATT -1
SFAC C  
C      1  0.4702670000000  0.5023530000000  0.4853780000000 1.0
C      1  0.4843940000000  0.5233060000000  0.4822040000000 1.0
C      1  0.5156990000000  0.4911150000000  0.5112250000000 1.0
C      1  0.4951920000000  0.5027210000000  0.4965620000000 1.0
C      1  0.5344470000000  0.4805050000000  0.5246300000000 1.0
END
