TITL C-176646-6887-8 -0.0802709658366468 125000 -304.85080605053 0 0 46 (C1) n - 1
REM
REM in /rds/project/t2_vol4/rds-t2-cs072/BORA/CARBON/from-Arr/AIRSS/Generating-Clusters/GAP-ML-2020/Only-C1/SD-CG/HFTN-CG
REM
REM
REM
REM
REM
REM ./C.cell (11c1c37f851c82e70ff6c80c92926a4b)
REM AIRSS Version 0.9.1 bugfix July 2018 build 013d7b7c2542+ Fri, 06 Jul 2018 19:26:36 +0100
REM compiler GCC version 9.3.0
REM options -cpp -mtune=generic -march=x86-64 -g -O0
REM seed 1653462323 -806376014 -1859478207 175335940 -1472139134 -1901013424 2006799184 -693440421 1030456101 -1998316495 -1705721357 146107570 -23248726 -1979315413 1758624953 -1793606264 -85609272 1672759406 -1888248507 160859163 -1492757357 1715656830 -1707766598 844145355 -105959335 1471826919 -675954126 -520563347 -2133428017 1375448533 2034956130 1901700304 1637916174
REM
CELL 1.54180   50.00000   50.00000   50.00000   90.00000   90.00000   90.00000
LATT -1
SFAC C  
C      1  0.5402050000000  0.5021280000000  0.4970900000000 1.0
C      1  0.5119010000000  0.4761840000000  0.4660700000000 1.0
C      1  0.4797350000000  0.5334530000000  0.4519600000000 1.0
C      1  0.4463980000000  0.4702300000000  0.4680190000000 1.0
C      1  0.4551250000000  0.4755260000000  0.5354210000000 1.0
C      1  0.5467240000000  0.5388170000000  0.5092600000000 1.0
C      1  0.5603360000000  0.5208720000000  0.4908510000000 1.0
C      1  0.5215990000000  0.5202670000000  0.4544780000000 1.0
C      1  0.5073100000000  0.4555240000000  0.5429170000000 1.0
C      1  0.5437350000000  0.4780190000000  0.5104130000000 1.0
C      1  0.4977210000000  0.5152670000000  0.4404310000000 1.0
C      1  0.5278640000000  0.5515180000000  0.4907430000000 1.0
C      1  0.5427200000000  0.5124610000000  0.5560980000000 1.0
C      1  0.5032720000000  0.4788490000000  0.5609340000000 1.0
C      1  0.5145880000000  0.5034420000000  0.4808020000000 1.0
C      1  0.4659680000000  0.5377910000000  0.5295350000000 1.0
C      1  0.4895510000000  0.4881060000000  0.4481250000000 1.0
C      1  0.5156330000000  0.4707270000000  0.5167120000000 1.0
C      1  0.4442800000000  0.5352210000000  0.5095760000000 1.0
C      1  0.5601850000000  0.5266820000000  0.4633570000000 1.0
C      1  0.5254240000000  0.4940840000000  0.5612020000000 1.0
C      1  0.4243470000000  0.5165270000000  0.5199460000000 1.0
C      1  0.5072800000000  0.4569530000000  0.4892950000000 1.0
C      1  0.5602230000000  0.4677830000000  0.4730020000000 1.0
C      1  0.4997650000000  0.5543060000000  0.4962010000000 1.0
C      1  0.5093310000000  0.5272370000000  0.5334150000000 1.0
C      1  0.4991570000000  0.4970950000000  0.5208860000000 1.0
C      1  0.4540050000000  0.5372640000000  0.4834980000000 1.0
C      1  0.4916990000000  0.5464010000000  0.5225220000000 1.0
C      1  0.5413090000000  0.4785910000000  0.4557720000000 1.0
C      1  0.4910010000000  0.4345110000000  0.5410170000000 1.0
C      1  0.4560610000000  0.5190080000000  0.4605580000000 1.0
C      1  0.4766980000000  0.4354010000000  0.5169510000000 1.0
C      1  0.4801850000000  0.4908960000000  0.5442160000000 1.0
C      1  0.4392380000000  0.5002100000000  0.5364920000000 1.0
C      1  0.4541570000000  0.4547560000000  0.5160380000000 1.0
C      1  0.4895130000000  0.5060040000000  0.4954840000000 1.0
C      1  0.4931710000000  0.4343920000000  0.4941920000000 1.0
C      1  0.5654170000000  0.4631770000000  0.4984430000000 1.0
C      1  0.5465420000000  0.5053560000000  0.4482790000000 1.0
C      1  0.5355630000000  0.5433750000000  0.4641940000000 1.0
C      1  0.4616910000000  0.4903120000000  0.4557280000000 1.0
C      1  0.5371400000000  0.5310260000000  0.5356880000000 1.0
C      1  0.4800560000000  0.5494480000000  0.4762800000000 1.0
C      1  0.4426940000000  0.4595870000000  0.4905890000000 1.0
C      1  0.4634830000000  0.5152130000000  0.5473170000000 1.0
END
