TITL C-17766-6653-6 -0.24506641290264 125000 -641.114947413046 0 0 93 (C1) n - 1
REM
REM in /rds/project/t2_vol4/rds-t2-cs072/BORA/CARBON/from-Arr/AIRSS/Generating-Clusters/GAP-ML-2020/Only-C1/SD-CG/HFTN-CG
REM
REM
REM
REM
REM
REM ./C.cell (11c1c37f851c82e70ff6c80c92926a4b)
REM AIRSS Version 0.9.1 bugfix July 2018 build 013d7b7c2542+ Fri, 06 Jul 2018 19:26:36 +0100
REM compiler GCC version 9.3.0
REM options -cpp -mtune=generic -march=x86-64 -g -O0
REM seed 1819205610 364882522 -792152244 -261360453 454190289 468814638 -1301715065 -1528453873 134199447 -1734479854 1230165032 -1622588627 -1548008190 1034363581 -1843898180 931610374 820078258 -796339995 -296806663 -1212098148 2090777135 393768863 908927474 750560237 1046979495 229168612 -763485576 -977422283 424387907 273605954 -1278720447 549945818 875548739
REM
CELL 1.54180   50.00000   50.00000   50.00000   90.00000   90.00000   90.00000
LATT -1
SFAC C  
C      1  0.4764920000000  0.4871780000000  0.4744020000000 1.0
C      1  0.4775690000000  0.4894350000000  0.5235830000000 1.0
C      1  0.4144320000000  0.4910490000000  0.5205950000000 1.0
C      1  0.4890370000000  0.5955090000000  0.5104150000000 1.0
C      1  0.5810360000000  0.5232610000000  0.4595060000000 1.0
C      1  0.4992690000000  0.4281600000000  0.5341890000000 1.0
C      1  0.5626090000000  0.4532160000000  0.5105110000000 1.0
C      1  0.4667180000000  0.5153050000000  0.5606860000000 1.0
C      1  0.6047380000000  0.4792500000000  0.4860090000000 1.0
C      1  0.4409810000000  0.5434970000000  0.4924240000000 1.0
C      1  0.4847050000000  0.5305170000000  0.5406350000000 1.0
C      1  0.5435420000000  0.4886760000000  0.4848620000000 1.0
C      1  0.5775100000000  0.4964380000000  0.4515000000000 1.0
C      1  0.5572180000000  0.5177750000000  0.5237770000000 1.0
C      1  0.5138210000000  0.4916470000000  0.4351050000000 1.0
C      1  0.4917190000000  0.4539920000000  0.4975450000000 1.0
C      1  0.4719180000000  0.4234490000000  0.5264510000000 1.0
C      1  0.4636480000000  0.5842540000000  0.4964730000000 1.0
C      1  0.5058390000000  0.4517900000000  0.5490140000000 1.0
C      1  0.4444240000000  0.4551910000000  0.5051950000000 1.0
C      1  0.5439020000000  0.4849890000000  0.5590400000000 1.0
C      1  0.5095510000000  0.5908910000000  0.4906760000000 1.0
C      1  0.5323280000000  0.5736540000000  0.4974200000000 1.0
C      1  0.4549260000000  0.4445420000000  0.5325440000000 1.0
C      1  0.5146440000000  0.5267040000000  0.5489380000000 1.0
C      1  0.4608110000000  0.4617920000000  0.5546150000000 1.0
C      1  0.4752450000000  0.5579650000000  0.5329590000000 1.0
C      1  0.5444180000000  0.5563140000000  0.4771070000000 1.0
C      1  0.5658350000000  0.5118430000000  0.4970080000000 1.0
C      1  0.4236880000000  0.4765600000000  0.4989480000000 1.0
C      1  0.4841230000000  0.5171700000000  0.5139950000000 1.0
C      1  0.5533160000000  0.4934570000000  0.4390510000000 1.0
C      1  0.5217590000000  0.4221390000000  0.5177830000000 1.0
C      1  0.5459370000000  0.4404150000000  0.4625220000000 1.0
C      1  0.4573130000000  0.4896720000000  0.5460650000000 1.0
C      1  0.4997860000000  0.5382120000000  0.5868010000000 1.0
C      1  0.4883960000000  0.4010250000000  0.4899570000000 1.0
C      1  0.5031660000000  0.4738570000000  0.4821950000000 1.0
C      1  0.5188630000000  0.4877920000000  0.5026280000000 1.0
C      1  0.5617730000000  0.4945930000000  0.5391920000000 1.0
C      1  0.4410430000000  0.5694170000000  0.5072940000000 1.0
C      1  0.5298850000000  0.5016270000000  0.4588850000000 1.0
C      1  0.4663350000000  0.5838130000000  0.4681820000000 1.0
C      1  0.4778000000000  0.4802560000000  0.4083180000000 1.0
C      1  0.4900280000000  0.5010570000000  0.4239750000000 1.0
C      1  0.5591680000000  0.4602840000000  0.4806520000000 1.0
C      1  0.4693590000000  0.5319390000000  0.4924530000000 1.0
C      1  0.4513020000000  0.4337610000000  0.4851120000000 1.0
C      1  0.4672660000000  0.4145720000000  0.4996160000000 1.0
C      1  0.5141200000000  0.5500330000000  0.5677190000000 1.0
C      1  0.5749860000000  0.4757770000000  0.5225530000000 1.0
C      1  0.4374870000000  0.5252340000000  0.5559920000000 1.0
C      1  0.5879580000000  0.4920240000000  0.5026460000000 1.0
C      1  0.5657260000000  0.5362800000000  0.4777400000000 1.0
C      1  0.4818290000000  0.5160850000000  0.4686750000000 1.0
C      1  0.5314810000000  0.4494570000000  0.4388270000000 1.0
C      1  0.4299780000000  0.5011330000000  0.5407240000000 1.0
C      1  0.5120990000000  0.5220040000000  0.4723130000000 1.0
C      1  0.4589580000000  0.4454970000000  0.4603700000000 1.0
C      1  0.5128980000000  0.5168930000000  0.5029650000000 1.0
C      1  0.4337930000000  0.5411370000000  0.4651040000000 1.0
C      1  0.5490970000000  0.4608340000000  0.5729050000000 1.0
C      1  0.4864200000000  0.4639530000000  0.5671300000000 1.0
C      1  0.5835920000000  0.4742050000000  0.4695680000000 1.0
C      1  0.5087250000000  0.4322070000000  0.4443840000000 1.0
C      1  0.4303410000000  0.5516600000000  0.5539000000000 1.0
C      1  0.4966550000000  0.4898200000000  0.5752870000000 1.0
C      1  0.4459800000000  0.5637180000000  0.5350260000000 1.0
C      1  0.4783130000000  0.5219300000000  0.4394360000000 1.0
C      1  0.4535260000000  0.4742380000000  0.4608830000000 1.0
C      1  0.5165050000000  0.5722810000000  0.5465940000000 1.0
C      1  0.4555580000000  0.5606290000000  0.4537820000000 1.0
C      1  0.4954330000000  0.5860720000000  0.4654030000000 1.0
C      1  0.4772210000000  0.4558710000000  0.4158930000000 1.0
C      1  0.5353330000000  0.4749020000000  0.4269710000000 1.0
C      1  0.5020940000000  0.5646720000000  0.4494150000000 1.0
C      1  0.4776760000000  0.5502860000000  0.4396270000000 1.0
C      1  0.4277020000000  0.5144830000000  0.4622920000000 1.0
C      1  0.4803620000000  0.4404550000000  0.4397680000000 1.0
C      1  0.5144160000000  0.4105580000000  0.4919020000000 1.0
C      1  0.5057420000000  0.4809590000000  0.5309730000000 1.0
C      1  0.4295980000000  0.4885060000000  0.4706570000000 1.0
C      1  0.4691230000000  0.4729440000000  0.5017770000000 1.0
C      1  0.5241710000000  0.4211780000000  0.4670060000000 1.0
C      1  0.5308120000000  0.5620430000000  0.5238750000000 1.0
C      1  0.4792020000000  0.5573220000000  0.5024890000000 1.0
C      1  0.5165170000000  0.4973690000000  0.5554960000000 1.0
C      1  0.5350930000000  0.4497430000000  0.5519040000000 1.0
C      1  0.5315990000000  0.5322460000000  0.5249750000000 1.0
C      1  0.5219080000000  0.5482800000000  0.4614560000000 1.0
C      1  0.5437060000000  0.4385510000000  0.5260590000000 1.0
C      1  0.4844560000000  0.5143270000000  0.5848500000000 1.0
C      1  0.4926230000000  0.5822990000000  0.5358760000000 1.0
END
