TITL C-184286-3572-13 -222.602346244994 125000 -421.437733885148 0 0 62 (C1) n - 1
REM
REM in /rds/project/t2_vol4/rds-t2-cs072/BORA/CARBON/from-Arr/AIRSS/Generating-Clusters/GAP-ML-2020/Only-C1/SD-CG/HFTN-CG
REM
REM
REM
REM
REM
REM ./C.cell (11c1c37f851c82e70ff6c80c92926a4b)
REM AIRSS Version 0.9.1 bugfix July 2018 build 013d7b7c2542+ Fri, 06 Jul 2018 19:26:36 +0100
REM compiler GCC version 9.3.0
REM options -cpp -mtune=generic -march=x86-64 -g -O0
REM seed -81256416 1345265641 1796004770 338619489 -669603315 1833331325 2008185596 -1399596921 2092857086 314867709 -1359289941 -534604818 -1283625004 -719278582 -678004833 -1882654752 -1652508435 -1422373584 -1123043360 1376163166 284031431 -513537237 -1686877763 -662863579 1095715455 -1263528095 1087532650 -1429829539 695684185 -1917678873 -200242905 1890466171 -359427560
REM
CELL 1.54180   50.00000   50.00000   50.00000   90.00000   90.00000   90.00000
LATT -1
SFAC C  
C      1  0.4731290000000  0.4876180000000  0.5007410000000 1.0
C      1  0.5339860000000  0.5396090000000  0.5467230000000 1.0
C      1  0.4987510000000  0.5134750000000  0.4739240000000 1.0
C      1  0.4990850000000  0.5537450000000  0.4462730000000 1.0
C      1  0.5250280000000  0.4469230000000  0.4994790000000 1.0
C      1  0.4914480000000  0.5231420000000  0.5624380000000 1.0
C      1  0.5451310000000  0.5220760000000  0.4571800000000 1.0
C      1  0.4666780000000  0.5662710000000  0.5362810000000 1.0
C      1  0.5269130000000  0.4415360000000  0.4504830000000 1.0
C      1  0.5608260000000  0.5150400000000  0.5021320000000 1.0
C      1  0.5138510000000  0.4673380000000  0.5632780000000 1.0
C      1  0.5040360000000  0.5117990000000  0.4266800000000 1.0
C      1  0.5156660000000  0.4481090000000  0.5427930000000 1.0
C      1  0.4535540000000  0.5393820000000  0.4755150000000 1.0
C      1  0.4951960000000  0.4858540000000  0.4782610000000 1.0
C      1  0.5001330000000  0.4336500000000  0.4999820000000 1.0
C      1  0.5283980000000  0.4943060000000  0.5652890000000 1.0
C      1  0.4678170000000  0.5160980000000  0.5122030000000 1.0
C      1  0.4459490000000  0.5342610000000  0.5033310000000 1.0
C      1  0.4884910000000  0.5281960000000  0.4441730000000 1.0
C      1  0.5103800000000  0.5683900000000  0.5163910000000 1.0
C      1  0.4749450000000  0.5085230000000  0.5422200000000 1.0
C      1  0.4540390000000  0.4634790000000  0.5004920000000 1.0
C      1  0.5213940000000  0.4754720000000  0.4904470000000 1.0
C      1  0.4511750000000  0.4648300000000  0.5471890000000 1.0
C      1  0.4938710000000  0.5640830000000  0.5389130000000 1.0
C      1  0.4962290000000  0.5595630000000  0.4915970000000 1.0
C      1  0.5168100000000  0.4927470000000  0.5150140000000 1.0
C      1  0.4896010000000  0.4786870000000  0.5736630000000 1.0
C      1  0.5428290000000  0.5379240000000  0.5008330000000 1.0
C      1  0.5041500000000  0.5037720000000  0.5776560000000 1.0
C      1  0.4659790000000  0.4492560000000  0.5274800000000 1.0
C      1  0.5161610000000  0.5198000000000  0.5093380000000 1.0
C      1  0.4920970000000  0.4392620000000  0.5269580000000 1.0
C      1  0.5560200000000  0.4722210000000  0.5252360000000 1.0
C      1  0.5029110000000  0.4830460000000  0.4237550000000 1.0
C      1  0.5383300000000  0.4509950000000  0.5253950000000 1.0
C      1  0.4248810000000  0.4681470000000  0.5367320000000 1.0
C      1  0.5002120000000  0.4429510000000  0.4517620000000 1.0
C      1  0.4603100000000  0.5216900000000  0.4539880000000 1.0
C      1  0.5072410000000  0.5454350000000  0.5560620000000 1.0
C      1  0.4615250000000  0.4517670000000  0.4740580000000 1.0
C      1  0.5368260000000  0.5441920000000  0.4728830000000 1.0
C      1  0.5323860000000  0.5115210000000  0.4341330000000 1.0
C      1  0.4531630000000  0.4957160000000  0.4495730000000 1.0
C      1  0.5135910000000  0.5594960000000  0.4680230000000 1.0
C      1  0.4552540000000  0.5594590000000  0.5135760000000 1.0
C      1  0.4654490000000  0.4850400000000  0.5596500000000 1.0
C      1  0.5596250000000  0.4994890000000  0.5266460000000 1.0
C      1  0.5320170000000  0.4828450000000  0.4294400000000 1.0
C      1  0.4259020000000  0.4675100000000  0.5108940000000 1.0
C      1  0.5467490000000  0.4782350000000  0.4747000000000 1.0
C      1  0.5447010000000  0.5124970000000  0.5494680000000 1.0
C      1  0.5581960000000  0.5036090000000  0.4760420000000 1.0
C      1  0.4850300000000  0.4366860000000  0.4754720000000 1.0
C      1  0.5414300000000  0.4652470000000  0.4492140000000 1.0
C      1  0.4865820000000  0.4634180000000  0.4358370000000 1.0
C      1  0.5353830000000  0.5552380000000  0.5223130000000 1.0
C      1  0.4925140000000  0.5289680000000  0.4978720000000 1.0
C      1  0.4907190000000  0.4871560000000  0.5249060000000 1.0
C      1  0.4673760000000  0.5632000000000  0.4868560000000 1.0
C      1  0.4619540000000  0.4700090000000  0.4501620000000 1.0
END
