TITL C-184262-2370-2 0.143953318176977 125000 -581.02797879209 0 0 86 (C1) n - 1
REM
REM in /rds/project/t2_vol4/rds-t2-cs072/BORA/CARBON/from-Arr/AIRSS/Generating-Clusters/GAP-ML-2020/Only-C1/SD-CG/HFTN-CG
REM
REM
REM
REM
REM
REM ./C.cell (11c1c37f851c82e70ff6c80c92926a4b)
REM AIRSS Version 0.9.1 bugfix July 2018 build 013d7b7c2542+ Fri, 06 Jul 2018 19:26:36 +0100
REM compiler GCC version 9.3.0
REM options -cpp -mtune=generic -march=x86-64 -g -O0
REM seed -1554934374 1751478254 1148472633 -1992742415 -102550524 1222609359 -1961258750 -305346936 -1165606101 -594887192 949211068 1228243460 -755669108 -238561444 292642974 2010522456 1109258337 393644522 -807166414 -1894513128 -1363570945 -780862151 2003666779 1280054299 467722690 1490310356 -308376791 491312903 953354880 1963855439 -118010122 -906398520 1628913161
REM
CELL 1.54180   50.00000   50.00000   50.00000   90.00000   90.00000   90.00000
LATT -1
SFAC C  
C      1  0.4446880000000  0.4511870000000  0.4612770000000 1.0
C      1  0.4268600000000  0.5007010000000  0.5377870000000 1.0
C      1  0.5166730000000  0.4911620000000  0.4640970000000 1.0
C      1  0.5517010000000  0.4487780000000  0.4823570000000 1.0
C      1  0.4595640000000  0.5311930000000  0.4358920000000 1.0
C      1  0.5411600000000  0.5262060000000  0.4418760000000 1.0
C      1  0.5595110000000  0.4805810000000  0.4469880000000 1.0
C      1  0.4899230000000  0.4499710000000  0.4913070000000 1.0
C      1  0.4694800000000  0.4911150000000  0.5627290000000 1.0
C      1  0.5088180000000  0.4338590000000  0.5572400000000 1.0
C      1  0.4549400000000  0.4326380000000  0.5523630000000 1.0
C      1  0.4918810000000  0.4072270000000  0.4819130000000 1.0
C      1  0.5528250000000  0.5244310000000  0.5574000000000 1.0
C      1  0.4358470000000  0.5207080000000  0.4761860000000 1.0
C      1  0.4558480000000  0.4991850000000  0.4712450000000 1.0
C      1  0.4698560000000  0.5616310000000  0.5390510000000 1.0
C      1  0.4860110000000  0.4854430000000  0.4282210000000 1.0
C      1  0.4289820000000  0.4755910000000  0.5233870000000 1.0
C      1  0.4262770000000  0.5306650000000  0.5280140000000 1.0
C      1  0.4741460000000  0.5302220000000  0.5409640000000 1.0
C      1  0.5426280000000  0.4336530000000  0.5237080000000 1.0
C      1  0.4715220000000  0.5571560000000  0.4428000000000 1.0
C      1  0.4644940000000  0.5178880000000  0.5158510000000 1.0
C      1  0.4668130000000  0.4402110000000  0.4481880000000 1.0
C      1  0.5644220000000  0.5369590000000  0.4559530000000 1.0
C      1  0.4377380000000  0.5371100000000  0.4544040000000 1.0
C      1  0.5639900000000  0.5522640000000  0.4814370000000 1.0
C      1  0.5056540000000  0.4601390000000  0.4598070000000 1.0
C      1  0.5218140000000  0.5431170000000  0.5166980000000 1.0
C      1  0.5348330000000  0.5101230000000  0.5760480000000 1.0
C      1  0.5737680000000  0.4926390000000  0.4937940000000 1.0
C      1  0.5061690000000  0.5212360000000  0.4145510000000 1.0
C      1  0.4788860000000  0.4195430000000  0.4635820000000 1.0
C      1  0.5176760000000  0.5146970000000  0.5090600000000 1.0
C      1  0.4965870000000  0.4764990000000  0.5020630000000 1.0
C      1  0.5106240000000  0.5261360000000  0.5741140000000 1.0
C      1  0.5704510000000  0.5409900000000  0.5073330000000 1.0
C      1  0.4735040000000  0.5667670000000  0.5107320000000 1.0
C      1  0.4994820000000  0.4745040000000  0.5309240000000 1.0
C      1  0.5374530000000  0.4286070000000  0.4956810000000 1.0
C      1  0.4254950000000  0.4689800000000  0.4957470000000 1.0
C      1  0.5474690000000  0.4613450000000  0.5267830000000 1.0
C      1  0.4803870000000  0.4384380000000  0.5589940000000 1.0
C      1  0.4727290000000  0.5069510000000  0.4462310000000 1.0
C      1  0.5435750000000  0.5692980000000  0.4933560000000 1.0
C      1  0.5080240000000  0.5817650000000  0.4596060000000 1.0
C      1  0.4517280000000  0.5604160000000  0.4646410000000 1.0
C      1  0.5862580000000  0.5199100000000  0.4555110000000 1.0
C      1  0.4758460000000  0.4674100000000  0.5480560000000 1.0
C      1  0.4524020000000  0.5593400000000  0.4933420000000 1.0
C      1  0.5114740000000  0.4956410000000  0.4202890000000 1.0
C      1  0.5758070000000  0.5138820000000  0.5132470000000 1.0
C      1  0.5526110000000  0.4541100000000  0.4546580000000 1.0
C      1  0.5325580000000  0.4817030000000  0.5754300000000 1.0
C      1  0.5074310000000  0.4250620000000  0.5008220000000 1.0
C      1  0.4995120000000  0.5556650000000  0.5005930000000 1.0
C      1  0.5516460000000  0.4734480000000  0.5001580000000 1.0
C      1  0.5148520000000  0.5531470000000  0.5630880000000 1.0
C      1  0.4990020000000  0.5620360000000  0.4426890000000 1.0
C      1  0.5135940000000  0.5356350000000  0.4382750000000 1.0
C      1  0.4918670000000  0.5669080000000  0.5570380000000 1.0
C      1  0.5242210000000  0.4568040000000  0.5690370000000 1.0
C      1  0.4763270000000  0.5011610000000  0.4957970000000 1.0
C      1  0.5275580000000  0.4743440000000  0.5439740000000 1.0
C      1  0.4911120000000  0.5123260000000  0.5568590000000 1.0
C      1  0.4404020000000  0.5338620000000  0.5024190000000 1.0
C      1  0.4857810000000  0.4596780000000  0.4394210000000 1.0
C      1  0.5170310000000  0.4240630000000  0.5316370000000 1.0
C      1  0.4500600000000  0.5297340000000  0.5615500000000 1.0
C      1  0.5083940000000  0.5017950000000  0.5350650000000 1.0
C      1  0.4606420000000  0.4447250000000  0.5052330000000 1.0
C      1  0.5168570000000  0.5737780000000  0.4843250000000 1.0
C      1  0.5239010000000  0.4893100000000  0.4933080000000 1.0
C      1  0.4948490000000  0.5240120000000  0.4895420000000 1.0
C      1  0.5681490000000  0.5111060000000  0.5392910000000 1.0
C      1  0.5768740000000  0.4961160000000  0.4655960000000 1.0
C      1  0.4515860000000  0.4554050000000  0.5317810000000 1.0
C      1  0.4397010000000  0.5494990000000  0.5462320000000 1.0
C      1  0.5362600000000  0.4970580000000  0.4403430000000 1.0
C      1  0.4384360000000  0.4442350000000  0.4884910000000 1.0
C      1  0.4989920000000  0.5157770000000  0.4610820000000 1.0
C      1  0.5271190000000  0.4442770000000  0.4526110000000 1.0
C      1  0.5410320000000  0.5501740000000  0.5491030000000 1.0
C      1  0.5479000000000  0.5564240000000  0.5205520000000 1.0
C      1  0.4358770000000  0.4780480000000  0.4697840000000 1.0
C      1  0.4431750000000  0.5024650000000  0.5613880000000 1.0
END
