TITL C-18091-5828-3 -150.664972366071 125000 -737.538205784717 0 0 108 (C1) n - 1
REM
REM in /rds/project/t2_vol4/rds-t2-cs072/BORA/CARBON/from-Arr/AIRSS/Generating-Clusters/GAP-ML-2020/Only-C1/SD-CG/HFTN-CG
REM
REM
REM
REM
REM
REM ./C.cell (11c1c37f851c82e70ff6c80c92926a4b)
REM AIRSS Version 0.9.1 bugfix July 2018 build 013d7b7c2542+ Fri, 06 Jul 2018 19:26:36 +0100
REM compiler GCC version 9.3.0
REM options -cpp -mtune=generic -march=x86-64 -g -O0
REM seed 1034551386 2069529501 -39145415 998939967 -49694875 -1555442289 -113679600 1633582889 1017404063 -97451073 -1682254799 -68399080 -199569364 2002100146 1532396782 -2120797821 -1482187947 128295256 2065149665 465835088 2091311838 -982429898 -1137123120 -1199482442 1251936973 320621582 1136127676 1271073438 -1739795020 -1600389991 -713166036 -2035562131 -271671212
REM
CELL 1.54180   50.00000   50.00000   50.00000   90.00000   90.00000   90.00000
LATT -1
SFAC C  
C      1  0.4382860000000  0.4427900000000  0.4809560000000 1.0
C      1  0.5072020000000  0.5722840000000  0.4840770000000 1.0
C      1  0.5550490000000  0.5171810000000  0.4760290000000 1.0
C      1  0.5697350000000  0.5462870000000  0.4765300000000 1.0
C      1  0.4994260000000  0.4013690000000  0.4720170000000 1.0
C      1  0.4360150000000  0.4450730000000  0.5360090000000 1.0
C      1  0.5242540000000  0.5233100000000  0.4299870000000 1.0
C      1  0.5036350000000  0.5796340000000  0.5633320000000 1.0
C      1  0.5000640000000  0.4622720000000  0.4992200000000 1.0
C      1  0.4863380000000  0.5244870000000  0.5725950000000 1.0
C      1  0.4898250000000  0.4568770000000  0.5240960000000 1.0
C      1  0.5625270000000  0.4761430000000  0.5517870000000 1.0
C      1  0.4450370000000  0.4940660000000  0.5660550000000 1.0
C      1  0.4653270000000  0.4310260000000  0.4775140000000 1.0
C      1  0.5971150000000  0.5319410000000  0.5172370000000 1.0
C      1  0.5055980000000  0.4471380000000  0.5737990000000 1.0
C      1  0.4839100000000  0.4801500000000  0.4611170000000 1.0
C      1  0.5002840000000  0.5402670000000  0.4220960000000 1.0
C      1  0.4313270000000  0.5494290000000  0.4961500000000 1.0
C      1  0.5406570000000  0.5692420000000  0.5129260000000 1.0
C      1  0.5083990000000  0.5955630000000  0.5384000000000 1.0
C      1  0.5783210000000  0.4834520000000  0.5016950000000 1.0
C      1  0.5265540000000  0.4950700000000  0.5758030000000 1.0
C      1  0.4733410000000  0.5003210000000  0.5214810000000 1.0
C      1  0.5352340000000  0.4925150000000  0.5132570000000 1.0
C      1  0.5397620000000  0.4397530000000  0.5328250000000 1.0
C      1  0.5304110000000  0.5674840000000  0.5620250000000 1.0
C      1  0.4594240000000  0.4358260000000  0.5507730000000 1.0
C      1  0.4579230000000  0.5266020000000  0.5275250000000 1.0
C      1  0.4223470000000  0.5303680000000  0.4772870000000 1.0
C      1  0.5120210000000  0.5603650000000  0.5108000000000 1.0
C      1  0.5963430000000  0.5082210000000  0.5329830000000 1.0
C      1  0.4183280000000  0.4692670000000  0.5360000000000 1.0
C      1  0.5281100000000  0.5676480000000  0.4422620000000 1.0
C      1  0.4727930000000  0.4155540000000  0.5038380000000 1.0
C      1  0.5743570000000  0.4996770000000  0.4605950000000 1.0
C      1  0.4869630000000  0.3932280000000  0.4958460000000 1.0
C      1  0.4268250000000  0.4418270000000  0.5074200000000 1.0
C      1  0.5483460000000  0.4545720000000  0.5739930000000 1.0
C      1  0.5129560000000  0.4881330000000  0.4951680000000 1.0
C      1  0.5281500000000  0.5147410000000  0.4606280000000 1.0
C      1  0.5464130000000  0.4270820000000  0.5103020000000 1.0
C      1  0.4672810000000  0.4982150000000  0.4772090000000 1.0
C      1  0.4882020000000  0.4529330000000  0.4749980000000 1.0
C      1  0.4743310000000  0.4326670000000  0.5269310000000 1.0
C      1  0.4876070000000  0.5793680000000  0.5244790000000 1.0
C      1  0.4169850000000  0.5085290000000  0.4946680000000 1.0
C      1  0.5831450000000  0.5161690000000  0.4409330000000 1.0
C      1  0.5505530000000  0.5231820000000  0.5491100000000 1.0
C      1  0.4808860000000  0.5386970000000  0.5469180000000 1.0
C      1  0.5699890000000  0.5408070000000  0.4446070000000 1.0
C      1  0.5001040000000  0.5643480000000  0.4352060000000 1.0
C      1  0.4805840000000  0.5759020000000  0.4763330000000 1.0
C      1  0.5451210000000  0.5461720000000  0.4326010000000 1.0
C      1  0.5259820000000  0.5140340000000  0.5323980000000 1.0
C      1  0.4772030000000  0.5245100000000  0.4832970000000 1.0
C      1  0.4767560000000  0.4490470000000  0.5717910000000 1.0
C      1  0.4247300000000  0.4950560000000  0.5456640000000 1.0
C      1  0.4890940000000  0.4303700000000  0.4360170000000 1.0
C      1  0.4255270000000  0.5165230000000  0.5242800000000 1.0
C      1  0.4576620000000  0.4859720000000  0.5016630000000 1.0
C      1  0.4579630000000  0.5431120000000  0.4406470000000 1.0
C      1  0.5518010000000  0.5673100000000  0.4865640000000 1.0
C      1  0.5224420000000  0.4725040000000  0.4197220000000 1.0
C      1  0.4279210000000  0.4659040000000  0.4665820000000 1.0
C      1  0.4693580000000  0.4767800000000  0.4334400000000 1.0
C      1  0.5443390000000  0.4308790000000  0.4828050000000 1.0
C      1  0.4749100000000  0.5278520000000  0.4229190000000 1.0
C      1  0.4154920000000  0.5455680000000  0.5215930000000 1.0
C      1  0.4950220000000  0.5134230000000  0.5034110000000 1.0
C      1  0.5693830000000  0.5230860000000  0.5262910000000 1.0
C      1  0.4819100000000  0.5668560000000  0.5505440000000 1.0
C      1  0.4313630000000  0.5045840000000  0.4403870000000 1.0
C      1  0.5288630000000  0.4644920000000  0.4507120000000 1.0
C      1  0.5217520000000  0.4189960000000  0.4692670000000 1.0
C      1  0.5305290000000  0.5740210000000  0.4690890000000 1.0
C      1  0.5049040000000  0.5330040000000  0.5227650000000 1.0
C      1  0.5365500000000  0.5835440000000  0.5365950000000 1.0
C      1  0.4818280000000  0.5006170000000  0.4192920000000 1.0
C      1  0.5340920000000  0.5407290000000  0.5674370000000 1.0
C      1  0.5143340000000  0.5221580000000  0.5792050000000 1.0
C      1  0.5095400000000  0.4413010000000  0.4556970000000 1.0
C      1  0.4337850000000  0.5298710000000  0.4504720000000 1.0
C      1  0.4690670000000  0.5722620000000  0.5021860000000 1.0
C      1  0.4394970000000  0.4789820000000  0.4425850000000 1.0
C      1  0.4754100000000  0.5652210000000  0.4504230000000 1.0
C      1  0.5256060000000  0.4669220000000  0.5853220000000 1.0
C      1  0.4882430000000  0.4815760000000  0.5407200000000 1.0
C      1  0.4099140000000  0.4649300000000  0.5091960000000 1.0
C      1  0.5587680000000  0.5058890000000  0.5035300000000 1.0
C      1  0.4122960000000  0.4813320000000  0.4864840000000 1.0
C      1  0.4666370000000  0.5046280000000  0.5785940000000 1.0
C      1  0.5535450000000  0.4545370000000  0.4664340000000 1.0
C      1  0.5117230000000  0.4987040000000  0.4167140000000 1.0
C      1  0.5385790000000  0.4710350000000  0.5342930000000 1.0
C      1  0.5943390000000  0.5431210000000  0.4930860000000 1.0
C      1  0.5544770000000  0.4999660000000  0.5663010000000 1.0
C      1  0.5159130000000  0.4888760000000  0.5478830000000 1.0
C      1  0.5862750000000  0.4813090000000  0.5309420000000 1.0
C      1  0.4808660000000  0.4517310000000  0.4194680000000 1.0
C      1  0.5040380000000  0.4576190000000  0.4058480000000 1.0
C      1  0.4707920000000  0.4776100000000  0.5662270000000 1.0
C      1  0.4769200000000  0.4135830000000  0.4550330000000 1.0
C      1  0.5150930000000  0.4891570000000  0.4654390000000 1.0
C      1  0.5319290000000  0.4352290000000  0.5606160000000 1.0
C      1  0.5739610000000  0.4731650000000  0.4742000000000 1.0
C      1  0.4018500000000  0.5615160000000  0.5367320000000 1.0
C      1  0.4595050000000  0.5437710000000  0.5027670000000 1.0
END
