TITL C-18098-6052-8 -0.0555820319135185 125000 -551.635880054763 0 0 81 (C1) n - 1
REM
REM in /rds/project/t2_vol4/rds-t2-cs072/BORA/CARBON/from-Arr/AIRSS/Generating-Clusters/GAP-ML-2020/Only-C1/SD-CG/HFTN-CG
REM
REM
REM
REM
REM
REM ./C.cell (11c1c37f851c82e70ff6c80c92926a4b)
REM AIRSS Version 0.9.1 bugfix July 2018 build 013d7b7c2542+ Fri, 06 Jul 2018 19:26:36 +0100
REM compiler GCC version 9.3.0
REM options -cpp -mtune=generic -march=x86-64 -g -O0
REM seed -140282536 315302359 -2013338132 -1967894957 -1955470183 -729280387 -1752906866 -2067349043 -95149083 1872688323 -945309651 -1857015974 1011661749 84959538 1528535482 -1331053573 -2020927290 1491072005 -1164661619 -1362943152 -107468697 -891982253 -1335480775 -517822746 786785479 -72085567 436042448 72147379 1836115320 1018794012 976023399 -1921759299 -43271399
REM
CELL 1.54180   50.00000   50.00000   50.00000   90.00000   90.00000   90.00000
LATT -1
SFAC C  
C      1  0.5667680000000  0.5200320000000  0.4700320000000 1.0
C      1  0.5622940000000  0.5004610000000  0.4935400000000 1.0
C      1  0.4490120000000  0.5318740000000  0.5537020000000 1.0
C      1  0.4678080000000  0.5196680000000  0.5703950000000 1.0
C      1  0.4253690000000  0.4841370000000  0.4902070000000 1.0
C      1  0.4446050000000  0.4907780000000  0.4483360000000 1.0
C      1  0.5085570000000  0.5440360000000  0.4993700000000 1.0
C      1  0.5200080000000  0.5101880000000  0.4711600000000 1.0
C      1  0.5703840000000  0.5017850000000  0.5228200000000 1.0
C      1  0.4941860000000  0.5756740000000  0.4594940000000 1.0
C      1  0.4397720000000  0.4704960000000  0.4688990000000 1.0
C      1  0.5614650000000  0.5478910000000  0.4730120000000 1.0
C      1  0.4478400000000  0.4743600000000  0.5570560000000 1.0
C      1  0.5025230000000  0.4286060000000  0.4676710000000 1.0
C      1  0.5138600000000  0.5107680000000  0.4172140000000 1.0
C      1  0.4919650000000  0.4607790000000  0.5299970000000 1.0
C      1  0.5580660000000  0.5512290000000  0.5253720000000 1.0
C      1  0.5652560000000  0.4754410000000  0.5317580000000 1.0
C      1  0.4321560000000  0.5124770000000  0.4868780000000 1.0
C      1  0.4362370000000  0.5159640000000  0.4573930000000 1.0
C      1  0.5032690000000  0.4198490000000  0.4960850000000 1.0
C      1  0.4271920000000  0.4731120000000  0.5156720000000 1.0
C      1  0.4843980000000  0.4542840000000  0.4370350000000 1.0
C      1  0.5108980000000  0.4546890000000  0.4276980000000 1.0
C      1  0.5637990000000  0.4558380000000  0.5115260000000 1.0
C      1  0.5475130000000  0.5091900000000  0.4517570000000 1.0
C      1  0.4505400000000  0.5535950000000  0.5132760000000 1.0
C      1  0.4925070000000  0.4813700000000  0.4472360000000 1.0
C      1  0.5242990000000  0.4661900000000  0.4928280000000 1.0
C      1  0.4724800000000  0.4635430000000  0.5049190000000 1.0
C      1  0.5180730000000  0.5187170000000  0.5699590000000 1.0
C      1  0.4474860000000  0.4538910000000  0.5193470000000 1.0
C      1  0.5244700000000  0.4427890000000  0.4501980000000 1.0
C      1  0.5113550000000  0.5543050000000  0.4507400000000 1.0
C      1  0.4894640000000  0.5560610000000  0.5493750000000 1.0
C      1  0.5447570000000  0.4842670000000  0.4406360000000 1.0
C      1  0.5003330000000  0.5007320000000  0.5204350000000 1.0
C      1  0.5113850000000  0.5683880000000  0.5352730000000 1.0
C      1  0.5120450000000  0.4391980000000  0.5575070000000 1.0
C      1  0.5192540000000  0.4844290000000  0.4261690000000 1.0
C      1  0.4652670000000  0.5607020000000  0.4903550000000 1.0
C      1  0.4599440000000  0.4525080000000  0.4782440000000 1.0
C      1  0.5178360000000  0.4736490000000  0.5202420000000 1.0
C      1  0.4316510000000  0.5173310000000  0.5362400000000 1.0
C      1  0.4297860000000  0.4888530000000  0.5395500000000 1.0
C      1  0.4872550000000  0.5786410000000  0.4856190000000 1.0
C      1  0.5353870000000  0.5121320000000  0.4954350000000 1.0
C      1  0.5618150000000  0.5252090000000  0.5381180000000 1.0
C      1  0.5378650000000  0.4751040000000  0.5424930000000 1.0
C      1  0.5017710000000  0.5328660000000  0.4270250000000 1.0
C      1  0.5127420000000  0.4900230000000  0.5670360000000 1.0
C      1  0.5245980000000  0.4645580000000  0.5658220000000 1.0
C      1  0.4827830000000  0.4925700000000  0.4972100000000 1.0
C      1  0.5401730000000  0.5324530000000  0.5578770000000 1.0
C      1  0.4575280000000  0.5339150000000  0.4495130000000 1.0
C      1  0.4682170000000  0.4917940000000  0.5661770000000 1.0
C      1  0.4932920000000  0.5337870000000  0.5676580000000 1.0
C      1  0.4748700000000  0.5230490000000  0.4298620000000 1.0
C      1  0.4618210000000  0.5533760000000  0.5399110000000 1.0
C      1  0.5328630000000  0.4287530000000  0.5421160000000 1.0
C      1  0.4869130000000  0.4177920000000  0.5176530000000 1.0
C      1  0.4557840000000  0.4483790000000  0.5459040000000 1.0
C      1  0.5379690000000  0.5628840000000  0.4629350000000 1.0
C      1  0.5258410000000  0.4356440000000  0.4991090000000 1.0
C      1  0.4699200000000  0.4947540000000  0.4350310000000 1.0
C      1  0.5454160000000  0.4343450000000  0.5189650000000 1.0
C      1  0.5041000000000  0.4856840000000  0.4759150000000 1.0
C      1  0.5361590000000  0.5579880000000  0.5434490000000 1.0
C      1  0.4904770000000  0.4863650000000  0.5489150000000 1.0
C      1  0.5586870000000  0.5609720000000  0.4997960000000 1.0
C      1  0.4326390000000  0.5302990000000  0.5106740000000 1.0
C      1  0.5541760000000  0.4705760000000  0.4870110000000 1.0
C      1  0.4635810000000  0.5135680000000  0.4899400000000 1.0
C      1  0.5469210000000  0.4614760000000  0.4581200000000 1.0
C      1  0.5352450000000  0.5752660000000  0.4895510000000 1.0
C      1  0.5025940000000  0.5353370000000  0.4724510000000 1.0
C      1  0.5100610000000  0.5728070000000  0.5043950000000 1.0
C      1  0.4847700000000  0.4351770000000  0.5421120000000 1.0
C      1  0.4773000000000  0.4390100000000  0.4597260000000 1.0
C      1  0.4721360000000  0.5367690000000  0.4745650000000 1.0
C      1  0.5182030000000  0.5225540000000  0.5153030000000 1.0
END
