TITL C-184272-2484-1 -454.536129019676 125000 -109.965414160392 0 0 17 (C1) n - 1
REM
REM in /rds/project/t2_vol4/rds-t2-cs072/BORA/CARBON/from-Arr/AIRSS/Generating-Clusters/GAP-ML-2020/Only-C1/SD-CG/HFTN-CG
REM
REM
REM
REM
REM
REM ./C.cell (11c1c37f851c82e70ff6c80c92926a4b)
REM AIRSS Version 0.9.1 bugfix July 2018 build 013d7b7c2542+ Fri, 06 Jul 2018 19:26:36 +0100
REM compiler GCC version 9.3.0
REM options -cpp -mtune=generic -march=x86-64 -g -O0
REM seed -2071945295 2109959920 15113155 1159319340 1354517435 -655523106 436901884 -1282874178 -1025155842 1198401457 -1327826336 452758544 -144602450 365442519 930667265 -1584078270 -340528150 -786122714 887581064 296410020 291992865 777466918 -1551044715 162302279 -456526113 1395361473 159211499 -1769590543 161269265 -1187765475 -261006858 -394103268 1716328812
REM
CELL 1.54180   50.00000   50.00000   50.00000   90.00000   90.00000   90.00000
LATT -1
SFAC C  
C      1  0.5367860000000  0.5448180000000  0.4673860000000 1.0
C      1  0.4852750000000  0.4825100000000  0.5306980000000 1.0
C      1  0.4868010000000  0.5184780000000  0.4951060000000 1.0
C      1  0.5093620000000  0.5155940000000  0.5508080000000 1.0
C      1  0.5120410000000  0.4457900000000  0.5081300000000 1.0
C      1  0.4940510000000  0.5159080000000  0.4674190000000 1.0
C      1  0.5125920000000  0.5349260000000  0.5343110000000 1.0
C      1  0.4883100000000  0.4923350000000  0.4542320000000 1.0
C      1  0.5113290000000  0.5366960000000  0.4610730000000 1.0
C      1  0.4738570000000  0.4966270000000  0.5078340000000 1.0
C      1  0.4746370000000  0.4730440000000  0.4648330000000 1.0
C      1  0.4717780000000  0.4720310000000  0.4919140000000 1.0
C      1  0.4888810000000  0.4587890000000  0.5122510000000 1.0
C      1  0.5049040000000  0.5374420000000  0.5076800000000 1.0
C      1  0.5179300000000  0.5504590000000  0.4868240000000 1.0
C      1  0.5336680000000  0.4328670000000  0.5064000000000 1.0
C      1  0.4978000000000  0.4916870000000  0.5531000000000 1.0
END
