TITL C-18079-7433-6 -0.125695216232928 125000 -354.44297759598 0 0 51 (C1) n - 1
REM
REM in /rds/project/t2_vol4/rds-t2-cs072/BORA/CARBON/from-Arr/AIRSS/Generating-Clusters/GAP-ML-2020/Only-C1/SD-CG/HFTN-CG
REM
REM
REM
REM
REM
REM ./C.cell (11c1c37f851c82e70ff6c80c92926a4b)
REM AIRSS Version 0.9.1 bugfix July 2018 build 013d7b7c2542+ Fri, 06 Jul 2018 19:26:36 +0100
REM compiler GCC version 9.3.0
REM options -cpp -mtune=generic -march=x86-64 -g -O0
REM seed 442178181 449671107 -740188801 -524684184 1259416230 161316875 1170563111 -1815248183 -264685229 2053056306 -419224908 1864972012 380276491 2053717628 -1458503663 -40356975 -1021709578 -953266845 1252813584 -1829236815 651788058 -690834611 -357726399 1905209255 795016329 1159731152 -645794303 -1324326694 -488932998 1981470584 -1338058814 -342300265 -1315444754
REM
CELL 1.54180   50.00000   50.00000   50.00000   90.00000   90.00000   90.00000
LATT -1
SFAC C  
C      1  0.5149710000000  0.4398710000000  0.5085380000000 1.0
C      1  0.4492900000000  0.4740010000000  0.4753950000000 1.0
C      1  0.4591890000000  0.4661940000000  0.5458880000000 1.0
C      1  0.5550630000000  0.5419290000000  0.5203940000000 1.0
C      1  0.5022150000000  0.4978700000000  0.4947600000000 1.0
C      1  0.4374880000000  0.4955560000000  0.5254710000000 1.0
C      1  0.5703090000000  0.5180330000000  0.5124500000000 1.0
C      1  0.5218490000000  0.5114970000000  0.5060360000000 1.0
C      1  0.4990070000000  0.5148190000000  0.4492810000000 1.0
C      1  0.5258900000000  0.4689290000000  0.4699820000000 1.0
C      1  0.4702070000000  0.4388250000000  0.4967990000000 1.0
C      1  0.4737300000000  0.5156650000000  0.5511080000000 1.0
C      1  0.5616010000000  0.4945830000000  0.5287140000000 1.0
C      1  0.5236870000000  0.5361790000000  0.4485530000000 1.0
C      1  0.5201360000000  0.4919180000000  0.5576190000000 1.0
C      1  0.5376540000000  0.5563150000000  0.5019820000000 1.0
C      1  0.4879700000000  0.4376370000000  0.5191360000000 1.0
C      1  0.4730800000000  0.5381750000000  0.5321950000000 1.0
C      1  0.4407480000000  0.4665310000000  0.5230790000000 1.0
C      1  0.4596270000000  0.5356630000000  0.5075020000000 1.0
C      1  0.5823210000000  0.5123500000000  0.4883370000000 1.0
C      1  0.5497180000000  0.4754690000000  0.4843960000000 1.0
C      1  0.4984060000000  0.5590980000000  0.4874510000000 1.0
C      1  0.5029180000000  0.4887720000000  0.4652790000000 1.0
C      1  0.4845110000000  0.5026030000000  0.4245500000000 1.0
C      1  0.4546010000000  0.4953430000000  0.5491000000000 1.0
C      1  0.4470570000000  0.4562030000000  0.4979770000000 1.0
C      1  0.4719920000000  0.4779450000000  0.4313380000000 1.0
C      1  0.5695510000000  0.4929710000000  0.4767490000000 1.0
C      1  0.4512300000000  0.5150350000000  0.4544480000000 1.0
C      1  0.5504640000000  0.4723150000000  0.5142440000000 1.0
C      1  0.5014540000000  0.5141360000000  0.5598830000000 1.0
C      1  0.5238710000000  0.5517190000000  0.4749650000000 1.0
C      1  0.4767460000000  0.4699060000000  0.4602840000000 1.0
C      1  0.5155920000000  0.5379050000000  0.5517960000000 1.0
C      1  0.5121300000000  0.4664410000000  0.5471000000000 1.0
C      1  0.4829810000000  0.4862420000000  0.5091380000000 1.0
C      1  0.5453830000000  0.5043370000000  0.5495070000000 1.0
C      1  0.4742620000000  0.5454600000000  0.4845310000000 1.0
C      1  0.5134540000000  0.4452550000000  0.4803220000000 1.0
C      1  0.5401330000000  0.5405070000000  0.4279430000000 1.0
C      1  0.4420470000000  0.5129770000000  0.5037070000000 1.0
C      1  0.4852140000000  0.4541850000000  0.5429030000000 1.0
C      1  0.5426560000000  0.5328920000000  0.5453800000000 1.0
C      1  0.4985110000000  0.5520720000000  0.5342040000000 1.0
C      1  0.4571590000000  0.5014840000000  0.4295550000000 1.0
C      1  0.5112830000000  0.5640950000000  0.5127160000000 1.0
C      1  0.4740290000000  0.5296570000000  0.4611400000000 1.0
C      1  0.4410070000000  0.5009960000000  0.4769610000000 1.0
C      1  0.4856720000000  0.4446790000000  0.4733740000000 1.0
C      1  0.5299350000000  0.4567640000000  0.5258420000000 1.0
END
