TITL C-184291-2589-7 23.7008291424073 125000 -36.3840988396965 0 0 6 (Cs) n - 1
REM
REM in /rds/project/t2_vol4/rds-t2-cs072/BORA/CARBON/from-Arr/AIRSS/Generating-Clusters/GAP-ML-2020/Only-C1/SD-CG/HFTN-CG
REM
REM
REM
REM
REM
REM ./C.cell (11c1c37f851c82e70ff6c80c92926a4b)
REM AIRSS Version 0.9.1 bugfix July 2018 build 013d7b7c2542+ Fri, 06 Jul 2018 19:26:36 +0100
REM compiler GCC version 9.3.0
REM options -cpp -mtune=generic -march=x86-64 -g -O0
REM seed -2037311387 -2139475003 -159183521 359620966 -108606499 -217274506 -1011453004 -556427047 168487135 -1307623979 1585857930 -2007711505 646048913 655065893 -1226359392 516095194 -1977968817 1337157306 -1375473605 -874777053 1935464426 -1458108366 1008278836 -1608614790 614238448 1744761784 1541907798 198302234 620734841 108274637 -1746127523 979268560 -1054232014
REM
CELL 1.54180   50.00000   50.00000   50.00000   90.00000   90.00000   90.00000
LATT -1
SFAC C  
C      1  0.4850080000000  0.5024090000000  0.5090420000000 1.0
C      1  0.4591040000000  0.4931760000000  0.5096450000000 1.0
C      1  0.5294400000000  0.5098880000000  0.4824660000000 1.0
C      1  0.4721810000000  0.4928490000000  0.5314180000000 1.0
C      1  0.5073760000000  0.5076090000000  0.4956850000000 1.0
C      1  0.5468920000000  0.4940690000000  0.4717440000000 1.0
END
