TITL C-184287-2493-8 0.00986112299332841 125000 -362.928208751725 0 0 54 (C1) n - 1
REM
REM in /rds/project/t2_vol4/rds-t2-cs072/BORA/CARBON/from-Arr/AIRSS/Generating-Clusters/GAP-ML-2020/Only-C1/SD-CG/HFTN-CG
REM
REM
REM
REM
REM
REM ./C.cell (11c1c37f851c82e70ff6c80c92926a4b)
REM AIRSS Version 0.9.1 bugfix July 2018 build 013d7b7c2542+ Fri, 06 Jul 2018 19:26:36 +0100
REM compiler GCC version 9.3.0
REM options -cpp -mtune=generic -march=x86-64 -g -O0
REM seed 329154596 -1526010308 1738840179 -503978634 568727047 380835368 -1497755520 -1229876750 -137858607 -793234872 406804369 1699835889 -125671991 -451277629 -456538773 -1907170210 -1534743896 -642411603 1337910891 1919696255 -802587946 981757097 -2145732683 666396462 -1648343066 -192089308 190364322 1018429524 1081322294 -88008857 -1035242602 1168959792 105645399
REM
CELL 1.54180   50.00000   50.00000   50.00000   90.00000   90.00000   90.00000
LATT -1
SFAC C  
C      1  0.5355370000000  0.5357950000000  0.5548710000000 1.0
C      1  0.5540120000000  0.5499380000000  0.5110520000000 1.0
C      1  0.5162340000000  0.4469890000000  0.4527150000000 1.0
C      1  0.5420640000000  0.4567300000000  0.5354210000000 1.0
C      1  0.5561820000000  0.4524410000000  0.5104040000000 1.0
C      1  0.4946290000000  0.4706190000000  0.4851710000000 1.0
C      1  0.4868090000000  0.4562680000000  0.5368470000000 1.0
C      1  0.5163400000000  0.4325820000000  0.4779350000000 1.0
C      1  0.5141420000000  0.4679100000000  0.5306370000000 1.0
C      1  0.4883540000000  0.5455560000000  0.5631820000000 1.0
C      1  0.4854310000000  0.5050610000000  0.4363870000000 1.0
C      1  0.5611660000000  0.4743510000000  0.5268050000000 1.0
C      1  0.4904710000000  0.5175680000000  0.4967370000000 1.0
C      1  0.5517840000000  0.5021040000000  0.5226440000000 1.0
C      1  0.5053550000000  0.5633260000000  0.4999680000000 1.0
C      1  0.4379830000000  0.5319300000000  0.4867830000000 1.0
C      1  0.5406720000000  0.4612560000000  0.4588670000000 1.0
C      1  0.4462080000000  0.4952210000000  0.4577750000000 1.0
C      1  0.4726920000000  0.4216650000000  0.5012040000000 1.0
C      1  0.4482570000000  0.5297810000000  0.5344400000000 1.0
C      1  0.4685250000000  0.4831300000000  0.4451520000000 1.0
C      1  0.5285450000000  0.5472990000000  0.4982890000000 1.0
C      1  0.4909220000000  0.4380880000000  0.4881890000000 1.0
C      1  0.4523330000000  0.4798900000000  0.5014890000000 1.0
C      1  0.4894150000000  0.5618650000000  0.4787900000000 1.0
C      1  0.5226500000000  0.5333350000000  0.4645550000000 1.0
C      1  0.4803060000000  0.5454980000000  0.5009000000000 1.0
C      1  0.4763860000000  0.4350520000000  0.5233560000000 1.0
C      1  0.4324080000000  0.5071580000000  0.5276600000000 1.0
C      1  0.4763190000000  0.5299730000000  0.4469810000000 1.0
C      1  0.5372890000000  0.4878700000000  0.4481680000000 1.0
C      1  0.5360820000000  0.4985070000000  0.4972780000000 1.0
C      1  0.4459590000000  0.4825420000000  0.5297730000000 1.0
C      1  0.5134510000000  0.5492170000000  0.5655870000000 1.0
C      1  0.4976110000000  0.5462600000000  0.4567140000000 1.0
C      1  0.5094550000000  0.4902360000000  0.4394000000000 1.0
C      1  0.4685230000000  0.4764860000000  0.5464840000000 1.0
C      1  0.5682260000000  0.5276470000000  0.5220290000000 1.0
C      1  0.4324470000000  0.4875720000000  0.4827170000000 1.0
C      1  0.5514700000000  0.4987090000000  0.4717270000000 1.0
C      1  0.4945220000000  0.4685080000000  0.4542900000000 1.0
C      1  0.5106280000000  0.4933920000000  0.5458850000000 1.0
C      1  0.4527810000000  0.5440560000000  0.5088100000000 1.0
C      1  0.5184330000000  0.5208120000000  0.4916470000000 1.0
C      1  0.4788840000000  0.4921240000000  0.4952600000000 1.0
C      1  0.4837570000000  0.4992800000000  0.5531040000000 1.0
C      1  0.5428480000000  0.5164020000000  0.4528890000000 1.0
C      1  0.4711880000000  0.5258090000000  0.5531970000000 1.0
C      1  0.5581510000000  0.5474290000000  0.5393070000000 1.0
C      1  0.5320780000000  0.5100520000000  0.5444310000000 1.0
C      1  0.4506080000000  0.5239660000000  0.4604050000000 1.0
C      1  0.4244670000000  0.5097900000000  0.4979550000000 1.0
C      1  0.5386240000000  0.4515290000000  0.4879430000000 1.0
C      1  0.5203860000000  0.4734250000000  0.4997940000000 1.0
END
