TITL C-184267-2463-12 -0.00985169545958193 125000 -709.175088797712 0 0 101 (C1) n - 1
REM
REM in /rds/project/t2_vol4/rds-t2-cs072/BORA/CARBON/from-Arr/AIRSS/Generating-Clusters/GAP-ML-2020/Only-C1/SD-CG/HFTN-CG
REM
REM
REM
REM
REM
REM ./C.cell (11c1c37f851c82e70ff6c80c92926a4b)
REM AIRSS Version 0.9.1 bugfix July 2018 build 013d7b7c2542+ Fri, 06 Jul 2018 19:26:36 +0100
REM compiler GCC version 9.3.0
REM options -cpp -mtune=generic -march=x86-64 -g -O0
REM seed 1219101893 -288739568 -979950913 453109852 -1090900241 1802706534 332040753 290520844 1180762721 737090249 1553240554 571350328 2103722457 1379996952 1876124435 1426220625 -2117551078 819558898 89959717 -1013252077 -1402773201 -768135382 558485648 1867152696 -101051097 -792350199 960742767 506418560 -397015535 852858548 1373965654 -5713286 393436166
REM
CELL 1.54180   50.00000   50.00000   50.00000   90.00000   90.00000   90.00000
LATT -1
SFAC C  
C      1  0.5108050000000  0.4279750000000  0.4260980000000 1.0
C      1  0.4942970000000  0.4247650000000  0.4482730000000 1.0
C      1  0.5165560000000  0.4540570000000  0.4141550000000 1.0
C      1  0.5413220000000  0.5085200000000  0.5139960000000 1.0
C      1  0.4210180000000  0.5267390000000  0.5305980000000 1.0
C      1  0.5360060000000  0.4398360000000  0.4280540000000 1.0
C      1  0.5444040000000  0.4666350000000  0.5390730000000 1.0
C      1  0.5318580000000  0.5074550000000  0.4881450000000 1.0
C      1  0.5818690000000  0.5087840000000  0.5348290000000 1.0
C      1  0.5909910000000  0.4986060000000  0.4908160000000 1.0
C      1  0.5095850000000  0.5270570000000  0.4834880000000 1.0
C      1  0.5874490000000  0.5217360000000  0.5089520000000 1.0
C      1  0.5052980000000  0.4971650000000  0.5403870000000 1.0
C      1  0.4604760000000  0.4994700000000  0.4805540000000 1.0
C      1  0.4948070000000  0.5224910000000  0.5836580000000 1.0
C      1  0.4495560000000  0.5234930000000  0.5681070000000 1.0
C      1  0.5606720000000  0.5030280000000  0.5718190000000 1.0
C      1  0.4908460000000  0.5038920000000  0.4746250000000 1.0
C      1  0.4936760000000  0.4513540000000  0.4611550000000 1.0
C      1  0.5187540000000  0.5082320000000  0.5879130000000 1.0
C      1  0.4490310000000  0.5033190000000  0.4526640000000 1.0
C      1  0.4977030000000  0.4664480000000  0.5765270000000 1.0
C      1  0.5024030000000  0.5644850000000  0.4470710000000 1.0
C      1  0.4237990000000  0.4446530000000  0.4506870000000 1.0
C      1  0.5027530000000  0.4245210000000  0.5031980000000 1.0
C      1  0.4773720000000  0.4084110000000  0.4891310000000 1.0
C      1  0.4100340000000  0.5122180000000  0.4811870000000 1.0
C      1  0.4138450000000  0.5079010000000  0.5095900000000 1.0
C      1  0.5398220000000  0.5767260000000  0.4924290000000 1.0
C      1  0.4720520000000  0.4806940000000  0.5776790000000 1.0
C      1  0.5214280000000  0.4802650000000  0.5829310000000 1.0
C      1  0.4532670000000  0.5491320000000  0.5560330000000 1.0
C      1  0.4325040000000  0.4832320000000  0.5455560000000 1.0
C      1  0.4793320000000  0.5611160000000  0.5572380000000 1.0
C      1  0.5458070000000  0.4769250000000  0.5679830000000 1.0
C      1  0.4614500000000  0.5302400000000  0.4442970000000 1.0
C      1  0.4868350000000  0.5784660000000  0.5361960000000 1.0
C      1  0.4365000000000  0.5512260000000  0.5326570000000 1.0
C      1  0.4205840000000  0.4956420000000  0.4592830000000 1.0
C      1  0.5373600000000  0.5246720000000  0.4333520000000 1.0
C      1  0.4296670000000  0.5103020000000  0.5528560000000 1.0
C      1  0.5486560000000  0.4429540000000  0.5195880000000 1.0
C      1  0.5147170000000  0.4694670000000  0.5331880000000 1.0
C      1  0.5673730000000  0.4504380000000  0.4984380000000 1.0
C      1  0.4457550000000  0.5663040000000  0.5102440000000 1.0
C      1  0.4643940000000  0.4838690000000  0.4366530000000 1.0
C      1  0.4164010000000  0.5383120000000  0.4798460000000 1.0
C      1  0.4870180000000  0.4508060000000  0.4906380000000 1.0
C      1  0.4702870000000  0.5800860000000  0.5123010000000 1.0
C      1  0.5566190000000  0.4821090000000  0.4401910000000 1.0
C      1  0.4854910000000  0.5240200000000  0.4290290000000 1.0
C      1  0.4995100000000  0.4745340000000  0.5041940000000 1.0
C      1  0.4559530000000  0.4474970000000  0.4910660000000 1.0
C      1  0.4589510000000  0.5533400000000  0.4611170000000 1.0
C      1  0.5374320000000  0.5654850000000  0.5375070000000 1.0
C      1  0.5162170000000  0.4687750000000  0.4561570000000 1.0
C      1  0.4686190000000  0.4585270000000  0.4471360000000 1.0
C      1  0.4678730000000  0.4466630000000  0.5498090000000 1.0
C      1  0.5442890000000  0.4557180000000  0.4519310000000 1.0
C      1  0.5277840000000  0.5418200000000  0.5550580000000 1.0
C      1  0.5210160000000  0.5204350000000  0.5310910000000 1.0
C      1  0.4512570000000  0.4394840000000  0.4611840000000 1.0
C      1  0.4839330000000  0.4955870000000  0.5212480000000 1.0
C      1  0.5143490000000  0.5859120000000  0.5006530000000 1.0
C      1  0.5364180000000  0.4968520000000  0.4273650000000 1.0
C      1  0.4982290000000  0.4498670000000  0.5504930000000 1.0
C      1  0.4553750000000  0.5222310000000  0.4972660000000 1.0
C      1  0.4677360000000  0.4239740000000  0.5327270000000 1.0
C      1  0.5103530000000  0.5392830000000  0.4322650000000 1.0
C      1  0.5743130000000  0.5455530000000  0.4989630000000 1.0
C      1  0.5201760000000  0.5480080000000  0.4612620000000 1.0
C      1  0.5629680000000  0.5274270000000  0.4482940000000 1.0
C      1  0.5759210000000  0.5014330000000  0.4485790000000 1.0
C      1  0.4877300000000  0.5831210000000  0.4896140000000 1.0
C      1  0.4528940000000  0.4684200000000  0.5599020000000 1.0
C      1  0.5610860000000  0.4883090000000  0.5241580000000 1.0
C      1  0.4418620000000  0.5495590000000  0.4852640000000 1.0
C      1  0.5544520000000  0.5635400000000  0.5133250000000 1.0
C      1  0.5443370000000  0.5627700000000  0.4684030000000 1.0
C      1  0.5858790000000  0.5096910000000  0.5613570000000 1.0
C      1  0.5117800000000  0.4808900000000  0.4267110000000 1.0
C      1  0.4966020000000  0.4244270000000  0.5324360000000 1.0
C      1  0.4865190000000  0.4957900000000  0.4246270000000 1.0
C      1  0.5774100000000  0.4763730000000  0.5034880000000 1.0
C      1  0.4711750000000  0.4150880000000  0.4619490000000 1.0
C      1  0.4766470000000  0.5217230000000  0.5153830000000 1.0
C      1  0.4701050000000  0.5089910000000  0.5815330000000 1.0
C      1  0.5399260000000  0.5223810000000  0.5755220000000 1.0
C      1  0.4570340000000  0.4207670000000  0.5067930000000 1.0
C      1  0.5317710000000  0.4297830000000  0.4996370000000 1.0
C      1  0.4152410000000  0.4689490000000  0.4525740000000 1.0
C      1  0.5134200000000  0.4861390000000  0.4810260000000 1.0
C      1  0.4264830000000  0.4827880000000  0.5171310000000 1.0
C      1  0.5984800000000  0.4987740000000  0.4644520000000 1.0
C      1  0.5004400000000  0.5459420000000  0.5685370000000 1.0
C      1  0.5016690000000  0.5337690000000  0.5102400000000 1.0
C      1  0.5499390000000  0.4395690000000  0.4779200000000 1.0
C      1  0.4808470000000  0.5715480000000  0.4633850000000 1.0
C      1  0.4456270000000  0.4744940000000  0.4967770000000 1.0
C      1  0.5671950000000  0.5467130000000  0.4703200000000 1.0
C      1  0.5142760000000  0.5810350000000  0.5288140000000 1.0
END
