TITL C-184286-3572-10 105.824501862827 125000 -268.775549705338 0 0 41 (C1) n - 1
REM
REM in /rds/project/t2_vol4/rds-t2-cs072/BORA/CARBON/from-Arr/AIRSS/Generating-Clusters/GAP-ML-2020/Only-C1/SD-CG/HFTN-CG
REM
REM
REM
REM
REM
REM ./C.cell (11c1c37f851c82e70ff6c80c92926a4b)
REM AIRSS Version 0.9.1 bugfix July 2018 build 013d7b7c2542+ Fri, 06 Jul 2018 19:26:36 +0100
REM compiler GCC version 9.3.0
REM options -cpp -mtune=generic -march=x86-64 -g -O0
REM seed -1920198574 -677017237 7772999 246904188 -1150348151 1667423359 1531265494 -1896539284 -601766913 -1258963389 -1798102518 -1963656444 1029585453 -1999546587 1833420424 -1868756129 771723708 1075047216 271911588 -1208076857 1043596504 -1356399032 -230449355 720989237 -1374483184 1460096372 591377405 -1640622524 1591746503 946094837 237125879 -286863986 1898232794
REM
CELL 1.54180   50.00000   50.00000   50.00000   90.00000   90.00000   90.00000
LATT -1
SFAC C  
C      1  0.5072640000000  0.4536570000000  0.5215660000000 1.0
C      1  0.4547670000000  0.4980680000000  0.5468420000000 1.0
C      1  0.5055450000000  0.5573440000000  0.4988060000000 1.0
C      1  0.4950940000000  0.5016140000000  0.5211440000000 1.0
C      1  0.5486380000000  0.4873520000000  0.4644560000000 1.0
C      1  0.4665380000000  0.4540380000000  0.4824730000000 1.0
C      1  0.4684430000000  0.5644650000000  0.5241590000000 1.0
C      1  0.4970190000000  0.5030680000000  0.5526610000000 1.0
C      1  0.5610820000000  0.5205980000000  0.4970370000000 1.0
C      1  0.5228750000000  0.4745570000000  0.4640450000000 1.0
C      1  0.5024210000000  0.4578800000000  0.4527270000000 1.0
C      1  0.5307500000000  0.5551000000000  0.5072620000000 1.0
C      1  0.4747590000000  0.5184690000000  0.5077490000000 1.0
C      1  0.5291930000000  0.4701870000000  0.5308360000000 1.0
C      1  0.4766930000000  0.4798590000000  0.5524500000000 1.0
C      1  0.4833640000000  0.4692380000000  0.5262620000000 1.0
C      1  0.4593100000000  0.4718010000000  0.4613270000000 1.0
C      1  0.4855410000000  0.5746660000000  0.5081260000000 1.0
C      1  0.5486470000000  0.4747280000000  0.5109370000000 1.0
C      1  0.4377210000000  0.4964770000000  0.5262320000000 1.0
C      1  0.4919770000000  0.4423730000000  0.4762150000000 1.0
C      1  0.5447470000000  0.4685540000000  0.4839020000000 1.0
C      1  0.5504280000000  0.5152400000000  0.4706590000000 1.0
C      1  0.4527170000000  0.4976910000000  0.5009290000000 1.0
C      1  0.5074830000000  0.4392570000000  0.4984400000000 1.0
C      1  0.5609130000000  0.4993470000000  0.5161260000000 1.0
C      1  0.5453940000000  0.5138720000000  0.5358910000000 1.0
C      1  0.4973100000000  0.5300440000000  0.4890970000000 1.0
C      1  0.4672390000000  0.5381200000000  0.5302900000000 1.0
C      1  0.5301330000000  0.5297720000000  0.4587820000000 1.0
C      1  0.4477040000000  0.4962420000000  0.4716260000000 1.0
C      1  0.4575370000000  0.5156530000000  0.4550810000000 1.0
C      1  0.5030160000000  0.5260610000000  0.4592090000000 1.0
C      1  0.4832590000000  0.5090490000000  0.4462160000000 1.0
C      1  0.5016200000000  0.4876750000000  0.4825330000000 1.0
C      1  0.5255560000000  0.4957110000000  0.5463100000000 1.0
C      1  0.4633850000000  0.4689760000000  0.5057460000000 1.0
C      1  0.4712950000000  0.5214790000000  0.5531020000000 1.0
C      1  0.4814290000000  0.4774920000000  0.4459130000000 1.0
C      1  0.5145980000000  0.5071290000000  0.4991730000000 1.0
C      1  0.5466000000000  0.5370980000000  0.5176620000000 1.0
END
