TITL C-184267-2463-6 -119.483588504682 125000 -855.770464841557 0 0 122 (C1) n - 1
REM
REM in /rds/project/t2_vol4/rds-t2-cs072/BORA/CARBON/from-Arr/AIRSS/Generating-Clusters/GAP-ML-2020/Only-C1/SD-CG/HFTN-CG
REM
REM
REM
REM
REM
REM ./C.cell (11c1c37f851c82e70ff6c80c92926a4b)
REM AIRSS Version 0.9.1 bugfix July 2018 build 013d7b7c2542+ Fri, 06 Jul 2018 19:26:36 +0100
REM compiler GCC version 9.3.0
REM options -cpp -mtune=generic -march=x86-64 -g -O0
REM seed -766467695 -115825370 1754617239 1283688692 917188109 -1826291826 -679506616 803943535 89694098 1973191027 -621407717 -907772703 -2009805652 -689351942 1405159722 1515487014 -1435855222 915923234 -1622368653 -2034786772 -1044171514 1340535714 313171571 754385620 1801496223 -958189215 1893175426 -1211322846 -1001522876 -411179457 399340118 1752403266 2101267923
REM
CELL 1.54180   50.00000   50.00000   50.00000   90.00000   90.00000   90.00000
LATT -1
SFAC C  
C      1  0.5609210000000  0.4409010000000  0.4582940000000 1.0
C      1  0.5201300000000  0.4520780000000  0.4994570000000 1.0
C      1  0.5321420000000  0.5548430000000  0.5623830000000 1.0
C      1  0.4287850000000  0.5490030000000  0.5202170000000 1.0
C      1  0.5307630000000  0.4890910000000  0.4836870000000 1.0
C      1  0.4798720000000  0.5616800000000  0.5720050000000 1.0
C      1  0.5555990000000  0.4730150000000  0.5710940000000 1.0
C      1  0.5054890000000  0.5328780000000  0.4149790000000 1.0
C      1  0.4840090000000  0.4609160000000  0.4206930000000 1.0
C      1  0.5101850000000  0.4828320000000  0.5969170000000 1.0
C      1  0.4502660000000  0.5266660000000  0.5884970000000 1.0
C      1  0.5244710000000  0.4389590000000  0.5528150000000 1.0
C      1  0.4574320000000  0.4353990000000  0.4533870000000 1.0
C      1  0.4806780000000  0.4246330000000  0.4940760000000 1.0
C      1  0.4193250000000  0.5447940000000  0.4937140000000 1.0
C      1  0.5699450000000  0.5573630000000  0.4654240000000 1.0
C      1  0.4975320000000  0.5079080000000  0.6051480000000 1.0
C      1  0.5472830000000  0.5734140000000  0.4570970000000 1.0
C      1  0.4540640000000  0.4306090000000  0.4808990000000 1.0
C      1  0.5015270000000  0.4120390000000  0.4756080000000 1.0
C      1  0.4688940000000  0.5795470000000  0.4973840000000 1.0
C      1  0.4910730000000  0.4943610000000  0.5258490000000 1.0
C      1  0.5177430000000  0.4864470000000  0.5348520000000 1.0
C      1  0.5507370000000  0.5057720000000  0.4673710000000 1.0
C      1  0.4483480000000  0.5706060000000  0.4519140000000 1.0
C      1  0.4804160000000  0.5442190000000  0.4249240000000 1.0
C      1  0.5263300000000  0.5517220000000  0.4197150000000 1.0
C      1  0.5382620000000  0.4874180000000  0.5888810000000 1.0
C      1  0.5146660000000  0.5277450000000  0.5951440000000 1.0
C      1  0.4743540000000  0.4746430000000  0.5090630000000 1.0
C      1  0.4910430000000  0.4667540000000  0.5797810000000 1.0
C      1  0.5313590000000  0.4601290000000  0.4253400000000 1.0
C      1  0.4403560000000  0.4858380000000  0.5718890000000 1.0
C      1  0.4632480000000  0.4351370000000  0.5370280000000 1.0
C      1  0.4563240000000  0.4678370000000  0.4199900000000 1.0
C      1  0.5101820000000  0.4635210000000  0.5565640000000 1.0
C      1  0.5895640000000  0.4632920000000  0.4864300000000 1.0
C      1  0.4215550000000  0.5161860000000  0.4914460000000 1.0
C      1  0.5499650000000  0.5382540000000  0.5055410000000 1.0
C      1  0.5244650000000  0.4064760000000  0.4877990000000 1.0
C      1  0.4415250000000  0.4546490000000  0.4411800000000 1.0
C      1  0.5228590000000  0.5685520000000  0.4429550000000 1.0
C      1  0.5529800000000  0.5454550000000  0.4132610000000 1.0
C      1  0.4740550000000  0.4427760000000  0.5840590000000 1.0
C      1  0.5621750000000  0.4307570000000  0.5108130000000 1.0
C      1  0.4751600000000  0.5712180000000  0.5445690000000 1.0
C      1  0.4820170000000  0.5375610000000  0.4535850000000 1.0
C      1  0.4973120000000  0.5118710000000  0.4568540000000 1.0
C      1  0.4583080000000  0.5194340000000  0.5364940000000 1.0
C      1  0.5121720000000  0.5147870000000  0.4825120000000 1.0
C      1  0.5076430000000  0.4235000000000  0.4504080000000 1.0
C      1  0.4856610000000  0.4233300000000  0.5240180000000 1.0
C      1  0.5794390000000  0.5333660000000  0.4541150000000 1.0
C      1  0.4328680000000  0.4601830000000  0.5646100000000 1.0
C      1  0.5402860000000  0.5812930000000  0.4835480000000 1.0
C      1  0.5394400000000  0.5160700000000  0.5876980000000 1.0
C      1  0.5720520000000  0.5224280000000  0.5190300000000 1.0
C      1  0.5723070000000  0.4402190000000  0.4855510000000 1.0
C      1  0.4257650000000  0.4966660000000  0.4400740000000 1.0
C      1  0.4612230000000  0.5512230000000  0.5890640000000 1.0
C      1  0.5329680000000  0.4223020000000  0.5092130000000 1.0
C      1  0.4575620000000  0.5616410000000  0.5191150000000 1.0
C      1  0.4553350000000  0.4398600000000  0.5645420000000 1.0
C      1  0.4978550000000  0.5218870000000  0.5086010000000 1.0
C      1  0.5540860000000  0.4764810000000  0.4284870000000 1.0
C      1  0.5069550000000  0.5475860000000  0.5750350000000 1.0
C      1  0.4189360000000  0.4946930000000  0.5274370000000 1.0
C      1  0.4296700000000  0.5208850000000  0.5391020000000 1.0
C      1  0.4323400000000  0.5135240000000  0.5689970000000 1.0
C      1  0.4384760000000  0.5365710000000  0.4185310000000 1.0
C      1  0.5224390000000  0.5627200000000  0.5378630000000 1.0
C      1  0.4987570000000  0.5680930000000  0.4620420000000 1.0
C      1  0.5870740000000  0.5067410000000  0.5008880000000 1.0
C      1  0.5810550000000  0.5077570000000  0.4711810000000 1.0
C      1  0.5255760000000  0.5156970000000  0.5443970000000 1.0
C      1  0.4936720000000  0.4632350000000  0.4659740000000 1.0
C      1  0.4533380000000  0.5318820000000  0.4638590000000 1.0
C      1  0.5229680000000  0.5363440000000  0.5224660000000 1.0
C      1  0.5737760000000  0.4879930000000  0.5541980000000 1.0
C      1  0.5141750000000  0.5052940000000  0.4289790000000 1.0
C      1  0.4854690000000  0.4410260000000  0.4439130000000 1.0
C      1  0.4197350000000  0.4684880000000  0.4833450000000 1.0
C      1  0.4238910000000  0.4726080000000  0.4552480000000 1.0
C      1  0.5140430000000  0.4225340000000  0.5321090000000 1.0
C      1  0.5473470000000  0.5282480000000  0.5624430000000 1.0
C      1  0.5019570000000  0.5228870000000  0.5580750000000 1.0
C      1  0.4368950000000  0.4481200000000  0.4949070000000 1.0
C      1  0.4327740000000  0.5525460000000  0.4678460000000 1.0
C      1  0.5698610000000  0.4446920000000  0.5348040000000 1.0
C      1  0.5877070000000  0.4793460000000  0.4631210000000 1.0
C      1  0.5084600000000  0.4756260000000  0.4189150000000 1.0
C      1  0.5311930000000  0.4771810000000  0.5107170000000 1.0
C      1  0.4413580000000  0.4920550000000  0.4155690000000 1.0
C      1  0.4948880000000  0.5858980000000  0.5062790000000 1.0
C      1  0.4656860000000  0.4919590000000  0.4865960000000 1.0
C      1  0.5323970000000  0.4405010000000  0.4478240000000 1.0
C      1  0.4123420000000  0.4915280000000  0.5001570000000 1.0
C      1  0.4704990000000  0.5080450000000  0.5965560000000 1.0
C      1  0.5224210000000  0.4629570000000  0.4706200000000 1.0
C      1  0.5838730000000  0.4700910000000  0.5340760000000 1.0
C      1  0.5724010000000  0.4634710000000  0.4453380000000 1.0
C      1  0.4697750000000  0.4890730000000  0.5745960000000 1.0
C      1  0.5634400000000  0.5274390000000  0.4299340000000 1.0
C      1  0.4910270000000  0.4529470000000  0.4951460000000 1.0
C      1  0.4554250000000  0.5581880000000  0.4249270000000 1.0
C      1  0.5924390000000  0.4800610000000  0.5091090000000 1.0
C      1  0.4685590000000  0.5318470000000  0.5115860000000 1.0
C      1  0.5124410000000  0.5812570000000  0.4851530000000 1.0
C      1  0.4530990000000  0.5174020000000  0.4893940000000 1.0
C      1  0.4308340000000  0.4708840000000  0.5387260000000 1.0
C      1  0.4499970000000  0.4565280000000  0.5209960000000 1.0
C      1  0.5457940000000  0.5035370000000  0.4363370000000 1.0
C      1  0.4997570000000  0.5794560000000  0.5334120000000 1.0
C      1  0.5603940000000  0.5634920000000  0.4930440000000 1.0
C      1  0.4415280000000  0.5155320000000  0.4007620000000 1.0
C      1  0.5693210000000  0.5156290000000  0.5470630000000 1.0
C      1  0.4304790000000  0.5247990000000  0.4443040000000 1.0
C      1  0.5373280000000  0.5292500000000  0.4788150000000 1.0
C      1  0.5514390000000  0.4472860000000  0.5566210000000 1.0
C      1  0.4706050000000  0.5790250000000  0.4683460000000 1.0
C      1  0.4786550000000  0.5060250000000  0.5505520000000 1.0
C      1  0.4809180000000  0.4890830000000  0.4641220000000 1.0
END
