TITL C-184276-2670-9 -18.9464326064192 125000 -343.878560963187 0 0 50 (C1) n - 1
REM
REM in /rds/project/t2_vol4/rds-t2-cs072/BORA/CARBON/from-Arr/AIRSS/Generating-Clusters/GAP-ML-2020/Only-C1/SD-CG/HFTN-CG
REM
REM
REM
REM
REM
REM ./C.cell (11c1c37f851c82e70ff6c80c92926a4b)
REM AIRSS Version 0.9.1 bugfix July 2018 build 013d7b7c2542+ Fri, 06 Jul 2018 19:26:36 +0100
REM compiler GCC version 9.3.0
REM options -cpp -mtune=generic -march=x86-64 -g -O0
REM seed 1771725634 -80932307 873837905 267216461 1240261653 1129196971 -471292630 940922550 -895826140 -407828252 788066978 -303381464 519801014 -1038162673 -1857372904 -1921370780 298196556 -1968318144 968681385 1441923987 -1305658790 936406254 1455618823 -682366644 967575060 -1997327762 -157228284 1949634786 -343075829 600928193 1370404469 464194971 -532358074
REM
CELL 1.54180   50.00000   50.00000   50.00000   90.00000   90.00000   90.00000
LATT -1
SFAC C  
C      1  0.4308010000000  0.4902820000000  0.4510010000000 1.0
C      1  0.5251680000000  0.5231570000000  0.5600490000000 1.0
C      1  0.4441800000000  0.4724010000000  0.4928350000000 1.0
C      1  0.4995210000000  0.4841150000000  0.5435080000000 1.0
C      1  0.4540820000000  0.5338870000000  0.5024080000000 1.0
C      1  0.5092750000000  0.4629310000000  0.5237600000000 1.0
C      1  0.4344480000000  0.5191920000000  0.4887360000000 1.0
C      1  0.4720530000000  0.5528500000000  0.4894220000000 1.0
C      1  0.5449510000000  0.4579100000000  0.4916870000000 1.0
C      1  0.5519860000000  0.4600130000000  0.5425780000000 1.0
C      1  0.5291350000000  0.4449260000000  0.4724030000000 1.0
C      1  0.4414740000000  0.5003570000000  0.5313050000000 1.0
C      1  0.5304680000000  0.5249400000000  0.4933690000000 1.0
C      1  0.5248370000000  0.4634960000000  0.4496910000000 1.0
C      1  0.4740930000000  0.4715620000000  0.5544140000000 1.0
C      1  0.5415430000000  0.4866610000000  0.4541410000000 1.0
C      1  0.4618080000000  0.5190170000000  0.5255670000000 1.0
C      1  0.4926670000000  0.4871080000000  0.4868580000000 1.0
C      1  0.4628630000000  0.4575740000000  0.5081440000000 1.0
C      1  0.5529700000000  0.5300050000000  0.5570410000000 1.0
C      1  0.4770530000000  0.5469090000000  0.4610180000000 1.0
C      1  0.4913060000000  0.4596100000000  0.5009040000000 1.0
C      1  0.4908960000000  0.5122690000000  0.5289740000000 1.0
C      1  0.5040640000000  0.5427030000000  0.4524080000000 1.0
C      1  0.5339750000000  0.5453850000000  0.5143500000000 1.0
C      1  0.5540530000000  0.5067090000000  0.4973960000000 1.0
C      1  0.5092300000000  0.5560350000000  0.5241030000000 1.0
C      1  0.5529730000000  0.4833720000000  0.4812070000000 1.0
C      1  0.4578970000000  0.4565600000000  0.5363150000000 1.0
C      1  0.4809120000000  0.5059050000000  0.4402110000000 1.0
C      1  0.5058440000000  0.5182640000000  0.4360240000000 1.0
C      1  0.4616340000000  0.5263810000000  0.4485750000000 1.0
C      1  0.4913980000000  0.5623200000000  0.5053710000000 1.0
C      1  0.5323120000000  0.5119460000000  0.4459860000000 1.0
C      1  0.4378470000000  0.5149410000000  0.4606040000000 1.0
C      1  0.4500400000000  0.4767140000000  0.4647260000000 1.0
C      1  0.5056530000000  0.5339500000000  0.5424260000000 1.0
C      1  0.4968400000000  0.4598250000000  0.4516680000000 1.0
C      1  0.5285740000000  0.5343580000000  0.4650540000000 1.0
C      1  0.5562480000000  0.5400960000000  0.5301830000000 1.0
C      1  0.5228310000000  0.4947160000000  0.5588080000000 1.0
C      1  0.5367250000000  0.4570410000000  0.5204020000000 1.0
C      1  0.4793150000000  0.4823320000000  0.4585740000000 1.0
C      1  0.5667140000000  0.5046620000000  0.5490400000000 1.0
C      1  0.5013070000000  0.4435650000000  0.4765900000000 1.0
C      1  0.4479880000000  0.4793900000000  0.5483640000000 1.0
C      1  0.5011580000000  0.5105620000000  0.4996980000000 1.0
C      1  0.4309820000000  0.4943600000000  0.5051120000000 1.0
C      1  0.5490030000000  0.4832370000000  0.5556600000000 1.0
C      1  0.5669030000000  0.5135030000000  0.5213310000000 1.0
END
