TITL C-184288-2686-3 -70.4960403283732 125000 -948.407095662717 0 0 135 (C1) n - 1
REM
REM in /rds/project/t2_vol4/rds-t2-cs072/BORA/CARBON/from-Arr/AIRSS/Generating-Clusters/GAP-ML-2020/Only-C1/SD-CG/HFTN-CG
REM
REM
REM
REM
REM
REM ./C.cell (11c1c37f851c82e70ff6c80c92926a4b)
REM AIRSS Version 0.9.1 bugfix July 2018 build 013d7b7c2542+ Fri, 06 Jul 2018 19:26:36 +0100
REM compiler GCC version 9.3.0
REM options -cpp -mtune=generic -march=x86-64 -g -O0
REM seed -448264337 1690474651 1866171810 329762310 -1638592590 -77951667 -1473196362 2028153711 -748630928 -735385800 -479124227 -1576821093 1059780390 -1974832920 -94972104 1368325638 -1009976147 1004881254 -661448877 -1758121791 1675836974 -1443061493 -235099832 -47046961 1976429047 255621413 123123085 -372088143 -582186632 -1789975285 1738142956 1799233869 -883214929
REM
CELL 1.54180   50.00000   50.00000   50.00000   90.00000   90.00000   90.00000
LATT -1
SFAC C  
C      1  0.4535270000000  0.4761600000000  0.5891260000000 1.0
C      1  0.4641170000000  0.4904190000000  0.4024470000000 1.0
C      1  0.5249240000000  0.4738070000000  0.5131480000000 1.0
C      1  0.4493360000000  0.5048300000000  0.5933700000000 1.0
C      1  0.5706850000000  0.5471870000000  0.4408080000000 1.0
C      1  0.4222250000000  0.5382320000000  0.4513700000000 1.0
C      1  0.4159390000000  0.5429430000000  0.4791500000000 1.0
C      1  0.4607330000000  0.5376100000000  0.4164010000000 1.0
C      1  0.5739500000000  0.4499710000000  0.5364120000000 1.0
C      1  0.4140480000000  0.5105340000000  0.4449590000000 1.0
C      1  0.5218630000000  0.5040880000000  0.5713600000000 1.0
C      1  0.4939020000000  0.4625750000000  0.4788980000000 1.0
C      1  0.5221950000000  0.5272920000000  0.4705550000000 1.0
C      1  0.4365990000000  0.4461650000000  0.5464160000000 1.0
C      1  0.4996870000000  0.5045930000000  0.5078560000000 1.0
C      1  0.5118210000000  0.4932950000000  0.5307210000000 1.0
C      1  0.5642350000000  0.5672730000000  0.4613440000000 1.0
C      1  0.5790310000000  0.4996900000000  0.4380920000000 1.0
C      1  0.5182240000000  0.4151170000000  0.4512430000000 1.0
C      1  0.4744850000000  0.5072360000000  0.5501700000000 1.0
C      1  0.5812930000000  0.4821780000000  0.4630980000000 1.0
C      1  0.4435700000000  0.5671930000000  0.5522850000000 1.0
C      1  0.4291380000000  0.4981790000000  0.4243790000000 1.0
C      1  0.4435310000000  0.5521240000000  0.4365730000000 1.0
C      1  0.4627260000000  0.4659900000000  0.4720640000000 1.0
C      1  0.4477450000000  0.4271270000000  0.5036350000000 1.0
C      1  0.4642240000000  0.4717400000000  0.5178670000000 1.0
C      1  0.4922260000000  0.4900500000000  0.4112100000000 1.0
C      1  0.4751810000000  0.5543000000000  0.5853990000000 1.0
C      1  0.4755940000000  0.4240430000000  0.5270060000000 1.0
C      1  0.5969820000000  0.4980980000000  0.4833680000000 1.0
C      1  0.5277360000000  0.5161930000000  0.5412810000000 1.0
C      1  0.4728610000000  0.4958730000000  0.5027920000000 1.0
C      1  0.4962690000000  0.4063510000000  0.5178590000000 1.0
C      1  0.4854730000000  0.4520890000000  0.5269190000000 1.0
C      1  0.4226680000000  0.5118070000000  0.5138690000000 1.0
C      1  0.5412990000000  0.4619020000000  0.5736640000000 1.0
C      1  0.4171220000000  0.4617070000000  0.5017630000000 1.0
C      1  0.4565730000000  0.4640120000000  0.5625270000000 1.0
C      1  0.5137450000000  0.5657280000000  0.5560370000000 1.0
C      1  0.5565400000000  0.4966330000000  0.4196370000000 1.0
C      1  0.5376680000000  0.4619110000000  0.4490090000000 1.0
C      1  0.4768830000000  0.4104610000000  0.4684920000000 1.0
C      1  0.5418810000000  0.5609630000000  0.5588850000000 1.0
C      1  0.5872000000000  0.4767150000000  0.5297310000000 1.0
C      1  0.4944220000000  0.5948960000000  0.4751210000000 1.0
C      1  0.4714470000000  0.5120230000000  0.4562030000000 1.0
C      1  0.4485430000000  0.5136370000000  0.4084950000000 1.0
C      1  0.4903990000000  0.5384350000000  0.4149880000000 1.0
C      1  0.4176600000000  0.4635520000000  0.5322740000000 1.0
C      1  0.4196460000000  0.5160990000000  0.5566380000000 1.0
C      1  0.5462950000000  0.4887700000000  0.5755480000000 1.0
C      1  0.5175520000000  0.5765440000000  0.4734920000000 1.0
C      1  0.4243650000000  0.4921050000000  0.5385470000000 1.0
C      1  0.4648370000000  0.4637260000000  0.4410500000000 1.0
C      1  0.4981160000000  0.4566810000000  0.5969940000000 1.0
C      1  0.4464320000000  0.4748680000000  0.4207420000000 1.0
C      1  0.5844870000000  0.5408840000000  0.4982800000000 1.0
C      1  0.5195500000000  0.3994950000000  0.4754190000000 1.0
C      1  0.4784100000000  0.5523160000000  0.5152700000000 1.0
C      1  0.5946060000000  0.5247560000000  0.4772160000000 1.0
C      1  0.4059560000000  0.5184660000000  0.4899490000000 1.0
C      1  0.4833310000000  0.4438320000000  0.4287890000000 1.0
C      1  0.5909360000000  0.4588520000000  0.4817040000000 1.0
C      1  0.5257840000000  0.5727250000000  0.5018250000000 1.0
C      1  0.5448230000000  0.5152810000000  0.5133050000000 1.0
C      1  0.5383060000000  0.5190320000000  0.4119150000000 1.0
C      1  0.5180060000000  0.5274780000000  0.5878890000000 1.0
C      1  0.4018800000000  0.4745440000000  0.4831490000000 1.0
C      1  0.5220230000000  0.4124050000000  0.5311460000000 1.0
C      1  0.4741420000000  0.5819560000000  0.5205810000000 1.0
C      1  0.5858190000000  0.5254340000000  0.4488690000000 1.0
C      1  0.5268210000000  0.4556300000000  0.4072600000000 1.0
C      1  0.4677940000000  0.5891850000000  0.4681190000000 1.0
C      1  0.4478310000000  0.5506770000000  0.5762480000000 1.0
C      1  0.5029890000000  0.5489740000000  0.4610470000000 1.0
C      1  0.5003350000000  0.4591480000000  0.4109470000000 1.0
C      1  0.4911100000000  0.5318140000000  0.5967860000000 1.0
C      1  0.4598180000000  0.4958070000000  0.4760880000000 1.0
C      1  0.4881320000000  0.5732390000000  0.5671500000000 1.0
C      1  0.4744690000000  0.5413120000000  0.4667650000000 1.0
C      1  0.5426810000000  0.5424240000000  0.5808460000000 1.0
C      1  0.5523160000000  0.5698140000000  0.5104260000000 1.0
C      1  0.4803590000000  0.4772350000000  0.6014290000000 1.0
C      1  0.4754800000000  0.5949870000000  0.4954910000000 1.0
C      1  0.5767300000000  0.4364780000000  0.4885770000000 1.0
C      1  0.4173900000000  0.5331050000000  0.5342470000000 1.0
C      1  0.5447860000000  0.4708070000000  0.4213550000000 1.0
C      1  0.4349320000000  0.5245640000000  0.5791340000000 1.0
C      1  0.4867980000000  0.4895160000000  0.4412980000000 1.0
C      1  0.4475420000000  0.4249490000000  0.5326550000000 1.0
C      1  0.5509750000000  0.4824970000000  0.4704870000000 1.0
C      1  0.5435850000000  0.4049470000000  0.4886120000000 1.0
C      1  0.4504920000000  0.5141710000000  0.4996910000000 1.0
C      1  0.4027300000000  0.4987080000000  0.4698210000000 1.0
C      1  0.4529870000000  0.4164080000000  0.4791430000000 1.0
C      1  0.5690770000000  0.5049840000000  0.5671600000000 1.0
C      1  0.5530670000000  0.4435860000000  0.5555080000000 1.0
C      1  0.5451190000000  0.4875430000000  0.4987390000000 1.0
C      1  0.4889500000000  0.4609990000000  0.5565310000000 1.0
C      1  0.5060590000000  0.4552450000000  0.5033760000000 1.0
C      1  0.5578960000000  0.5554270000000  0.5347100000000 1.0
C      1  0.5086100000000  0.5161210000000  0.4080580000000 1.0
C      1  0.5710110000000  0.5288970000000  0.5229640000000 1.0
C      1  0.4533520000000  0.4859860000000  0.5425860000000 1.0
C      1  0.4680060000000  0.5822720000000  0.5481970000000 1.0
C      1  0.5488770000000  0.5444750000000  0.4213130000000 1.0
C      1  0.4970510000000  0.4901940000000  0.5556210000000 1.0
C      1  0.4460700000000  0.4557420000000  0.4958470000000 1.0
C      1  0.5706970000000  0.5637640000000  0.4895530000000 1.0
C      1  0.5086710000000  0.4783190000000  0.4583260000000 1.0
C      1  0.5410960000000  0.4326020000000  0.4516550000000 1.0
C      1  0.5577380000000  0.4232590000000  0.4725520000000 1.0
C      1  0.5688200000000  0.4312380000000  0.5160650000000 1.0
C      1  0.4599150000000  0.5417950000000  0.4944970000000 1.0
C      1  0.4799450000000  0.5340930000000  0.5415080000000 1.0
C      1  0.5100930000000  0.5415160000000  0.5402650000000 1.0
C      1  0.5278040000000  0.4283610000000  0.5538490000000 1.0
C      1  0.5089620000000  0.5507290000000  0.5119350000000 1.0
C      1  0.5464630000000  0.4122520000000  0.5155980000000 1.0
C      1  0.4955680000000  0.3994900000000  0.4893740000000 1.0
C      1  0.5276670000000  0.5003010000000  0.4646880000000 1.0
C      1  0.4766300000000  0.5075740000000  0.6035530000000 1.0
C      1  0.5393510000000  0.5775740000000  0.4535510000000 1.0
C      1  0.5658830000000  0.5293600000000  0.5789120000000 1.0
C      1  0.5308700000000  0.5647740000000  0.4289300000000 1.0
C      1  0.4592570000000  0.5662360000000  0.4543710000000 1.0
C      1  0.4910470000000  0.4209640000000  0.4441740000000 1.0
C      1  0.4332070000000  0.5568960000000  0.4985970000000 1.0
C      1  0.4282240000000  0.5577420000000  0.5285450000000 1.0
C      1  0.5979010000000  0.4773350000000  0.5029610000000 1.0
C      1  0.5805610000000  0.5033900000000  0.5404700000000 1.0
C      1  0.5191620000000  0.5260120000000  0.4985770000000 1.0
C      1  0.5040460000000  0.5564410000000  0.4318710000000 1.0
C      1  0.5127700000000  0.4489380000000  0.5727990000000 1.0
END
