TITL C-184264-2461-12 0.00474400896654258 125000 -22.9478494874593 0 0 4 (D(inf)h) n - 1
REM
REM in /rds/project/t2_vol4/rds-t2-cs072/BORA/CARBON/from-Arr/AIRSS/Generating-Clusters/GAP-ML-2020/Only-C1/SD-CG/HFTN-CG
REM
REM
REM
REM
REM
REM ./C.cell (11c1c37f851c82e70ff6c80c92926a4b)
REM AIRSS Version 0.9.1 bugfix July 2018 build 013d7b7c2542+ Fri, 06 Jul 2018 19:26:36 +0100
REM compiler GCC version 9.3.0
REM options -cpp -mtune=generic -march=x86-64 -g -O0
REM seed -2129416755 -1435868939 -2061954682 1689733177 318379227 -1706736035 335969826 -122112853 1588006255 -486878780 167228223 48245828 375951960 1481246363 -813461997 1594905816 -454670741 -1374646296 -1022157974 566734957 -102498876 1267845601 -925270349 -386598093 1307199088 -934272733 -1860954616 1981717798 205396789 -1182071163 1628571443 915653882 1086587386
REM
CELL 1.54180   50.00000   50.00000   50.00000   90.00000   90.00000   90.00000
LATT -1
SFAC C  
C      1  0.4723680000000  0.5032420000000  0.5271350000000 1.0
C      1  0.4904260000000  0.5011230000000  0.5094020000000 1.0
C      1  0.5276320000000  0.4967580000000  0.4728650000000 1.0
C      1  0.5095740000000  0.4988770000000  0.4905980000000 1.0
END
