TITL C-18085-8036-7 -0.0641689710509422 125000 -284.182086840112 0 0 43 (C1) n - 1
REM
REM in /rds/project/t2_vol4/rds-t2-cs072/BORA/CARBON/from-Arr/AIRSS/Generating-Clusters/GAP-ML-2020/Only-C1/SD-CG/HFTN-CG
REM
REM
REM
REM
REM
REM ./C.cell (11c1c37f851c82e70ff6c80c92926a4b)
REM AIRSS Version 0.9.1 bugfix July 2018 build 013d7b7c2542+ Fri, 06 Jul 2018 19:26:36 +0100
REM compiler GCC version 9.3.0
REM options -cpp -mtune=generic -march=x86-64 -g -O0
REM seed -1062128023 999090283 1189011976 -1255709994 879741782 -957761041 978711357 654800737 1602463761 -2104211987 953626043 -1044055325 531144993 -1778067264 -915941117 -1001094614 270017652 -495549362 -2008763182 1494140166 734477679 -962798921 -597575929 1030487709 -761328294 -795739349 418032879 -895433762 655867630 -754283017 263583972 -594538996 -1241109161
REM
CELL 1.54180   50.00000   50.00000   50.00000   90.00000   90.00000   90.00000
LATT -1
SFAC C  
C      1  0.5040810000000  0.5347680000000  0.4631310000000 1.0
C      1  0.5246820000000  0.4569900000000  0.5243800000000 1.0
C      1  0.5182310000000  0.5461770000000  0.5091670000000 1.0
C      1  0.4852510000000  0.4619550000000  0.5526630000000 1.0
C      1  0.4726590000000  0.4564690000000  0.4841270000000 1.0
C      1  0.4679610000000  0.4501540000000  0.5352660000000 1.0
C      1  0.4848900000000  0.4900840000000  0.5564440000000 1.0
C      1  0.5277380000000  0.5538900000000  0.4652670000000 1.0
C      1  0.4768170000000  0.4655390000000  0.5120450000000 1.0
C      1  0.4708010000000  0.5068080000000  0.5391370000000 1.0
C      1  0.4701160000000  0.5549970000000  0.4889840000000 1.0
C      1  0.5292420000000  0.5632490000000  0.4914030000000 1.0
C      1  0.4337440000000  0.4761650000000  0.5249460000000 1.0
C      1  0.5104480000000  0.5150760000000  0.4413530000000 1.0
C      1  0.5008570000000  0.4559160000000  0.4783180000000 1.0
C      1  0.5542480000000  0.4683650000000  0.4897610000000 1.0
C      1  0.5103570000000  0.5354240000000  0.5348580000000 1.0
C      1  0.4707540000000  0.4927580000000  0.4514340000000 1.0
C      1  0.4565010000000  0.5700100000000  0.5065690000000 1.0
C      1  0.5125260000000  0.4970890000000  0.5644400000000 1.0
C      1  0.4815550000000  0.5323440000000  0.5351620000000 1.0
C      1  0.4586760000000  0.4761650000000  0.4710220000000 1.0
C      1  0.5088570000000  0.5242740000000  0.4929290000000 1.0
C      1  0.4982960000000  0.4895120000000  0.4438800000000 1.0
C      1  0.4667950000000  0.5472540000000  0.5166510000000 1.0
C      1  0.5408440000000  0.4672940000000  0.4660500000000 1.0
C      1  0.5376360000000  0.5181810000000  0.4351840000000 1.0
C      1  0.5249570000000  0.4727160000000  0.5692660000000 1.0
C      1  0.5487870000000  0.4707990000000  0.5181160000000 1.0
C      1  0.4614210000000  0.5159410000000  0.4661360000000 1.0
C      1  0.4755470000000  0.5399840000000  0.4663080000000 1.0
C      1  0.5380930000000  0.4982490000000  0.5236600000000 1.0
C      1  0.5257570000000  0.5134920000000  0.5448060000000 1.0
C      1  0.5482740000000  0.5401980000000  0.4522080000000 1.0
C      1  0.4518760000000  0.4992550000000  0.4875650000000 1.0
C      1  0.5217950000000  0.4987150000000  0.4984640000000 1.0
C      1  0.4572020000000  0.4919730000000  0.5158710000000 1.0
C      1  0.5534650000000  0.5120330000000  0.4575590000000 1.0
C      1  0.5132820000000  0.4665400000000  0.4556060000000 1.0
C      1  0.5071300000000  0.4696140000000  0.5041250000000 1.0
C      1  0.5138640000000  0.4554190000000  0.5508870000000 1.0
C      1  0.4391740000000  0.4534440000000  0.5364220000000 1.0
C      1  0.5448120000000  0.4947210000000  0.4784270000000 1.0
END
