TITL C-184285-2465-8 0.0272315865491739 125000 -255.433827855739 0 0 39 (C1) n - 1
REM
REM in /rds/project/t2_vol4/rds-t2-cs072/BORA/CARBON/from-Arr/AIRSS/Generating-Clusters/GAP-ML-2020/Only-C1/SD-CG/HFTN-CG
REM
REM
REM
REM
REM
REM ./C.cell (11c1c37f851c82e70ff6c80c92926a4b)
REM AIRSS Version 0.9.1 bugfix July 2018 build 013d7b7c2542+ Fri, 06 Jul 2018 19:26:36 +0100
REM compiler GCC version 9.3.0
REM options -cpp -mtune=generic -march=x86-64 -g -O0
REM seed 204299855 352586281 921305438 -168960902 1995388196 -1285682588 1451269167 -1765622071 99781925 -697384828 490007853 -1893532551 1395256497 -1894584230 241271517 1739791069 1195140116 -250449492 -1591069083 -774225727 335473232 1408207104 -198112673 1713032177 -437504429 160935891 -870630965 1108714940 1717033287 1582177196 936288776 -833517085 1303942792
REM
CELL 1.54180   50.00000   50.00000   50.00000   90.00000   90.00000   90.00000
LATT -1
SFAC C  
C      1  0.5172500000000  0.5394320000000  0.4755210000000 1.0
C      1  0.4564660000000  0.4710820000000  0.5429320000000 1.0
C      1  0.4751630000000  0.4883040000000  0.4984680000000 1.0
C      1  0.4899230000000  0.5132030000000  0.4980140000000 1.0
C      1  0.5410600000000  0.4543670000000  0.4870170000000 1.0
C      1  0.4560030000000  0.5391700000000  0.4839380000000 1.0
C      1  0.4672330000000  0.5349390000000  0.4574820000000 1.0
C      1  0.5475520000000  0.4790210000000  0.4752880000000 1.0
C      1  0.4786280000000  0.5105700000000  0.4495650000000 1.0
C      1  0.4661560000000  0.5129290000000  0.5417930000000 1.0
C      1  0.5297950000000  0.4491020000000  0.5111370000000 1.0
C      1  0.4451620000000  0.4947780000000  0.5310450000000 1.0
C      1  0.5181770000000  0.4391280000000  0.4853640000000 1.0
C      1  0.5557200000000  0.5103460000000  0.5382390000000 1.0
C      1  0.5421150000000  0.5297930000000  0.4864050000000 1.0
C      1  0.4985900000000  0.4877190000000  0.4582430000000 1.0
C      1  0.4989690000000  0.5158920000000  0.4700070000000 1.0
C      1  0.5344560000000  0.4967780000000  0.5207820000000 1.0
C      1  0.4472860000000  0.4935220000000  0.5023270000000 1.0
C      1  0.5037070000000  0.5553350000000  0.4947890000000 1.0
C      1  0.5463590000000  0.5451280000000  0.5104360000000 1.0
C      1  0.5625210000000  0.5332820000000  0.5292000000000 1.0
C      1  0.4742060000000  0.4512790000000  0.5314680000000 1.0
C      1  0.5208540000000  0.4794890000000  0.4425200000000 1.0
C      1  0.4796470000000  0.4884400000000  0.5512400000000 1.0
C      1  0.5061530000000  0.5394980000000  0.5358740000000 1.0
C      1  0.4977690000000  0.4680550000000  0.5401070000000 1.0
C      1  0.5449700000000  0.5012840000000  0.4914130000000 1.0
C      1  0.4867840000000  0.4721130000000  0.4787030000000 1.0
C      1  0.4905910000000  0.4451120000000  0.4859150000000 1.0
C      1  0.5205450000000  0.5568490000000  0.5179740000000 1.0
C      1  0.4763460000000  0.5374450000000  0.5331830000000 1.0
C      1  0.4771260000000  0.5409070000000  0.5032070000000 1.0
C      1  0.5222130000000  0.4705410000000  0.5268960000000 1.0
C      1  0.4507910000000  0.5092500000000  0.4560330000000 1.0
C      1  0.4425260000000  0.5129690000000  0.4832530000000 1.0
C      1  0.5457940000000  0.4784490000000  0.4462930000000 1.0
C      1  0.5113920000000  0.5154070000000  0.5203390000000 1.0
C      1  0.4740000000000  0.4390940000000  0.5075920000000 1.0
END
