TITL C-184281-2503-6 -0.187551956273306 125000 -742.626545808535 0 0 108 (C1) n - 1
REM
REM in /rds/project/t2_vol4/rds-t2-cs072/BORA/CARBON/from-Arr/AIRSS/Generating-Clusters/GAP-ML-2020/Only-C1/SD-CG/HFTN-CG
REM
REM
REM
REM
REM
REM ./C.cell (11c1c37f851c82e70ff6c80c92926a4b)
REM AIRSS Version 0.9.1 bugfix July 2018 build 013d7b7c2542+ Fri, 06 Jul 2018 19:26:36 +0100
REM compiler GCC version 9.3.0
REM options -cpp -mtune=generic -march=x86-64 -g -O0
REM seed 42759025 744677167 -349853555 -1682265993 -463316715 -47819811 -206126250 -1402959198 2134734198 2104574923 -1504511121 766496575 -710776710 -572063866 1518452215 1518781517 1036769635 1933980044 153990263 750524885 986636007 736930447 1755318486 2143129339 -1709426406 -1832790532 -1230817717 861202929 1563702918 1787121675 309624417 127139232 478052094
REM
CELL 1.54180   50.00000   50.00000   50.00000   90.00000   90.00000   90.00000
LATT -1
SFAC C  
C      1  0.5597480000000  0.4528200000000  0.4830480000000 1.0
C      1  0.5443910000000  0.4337310000000  0.5355700000000 1.0
C      1  0.4269300000000  0.4486230000000  0.4824550000000 1.0
C      1  0.4906190000000  0.4579970000000  0.5024220000000 1.0
C      1  0.4516430000000  0.4951450000000  0.4909300000000 1.0
C      1  0.5985710000000  0.5076060000000  0.5065810000000 1.0
C      1  0.4536830000000  0.4684270000000  0.5722050000000 1.0
C      1  0.5469000000000  0.5617250000000  0.5470480000000 1.0
C      1  0.5378980000000  0.4194400000000  0.5105680000000 1.0
C      1  0.5082420000000  0.4866110000000  0.5343440000000 1.0
C      1  0.4087390000000  0.4682090000000  0.4943630000000 1.0
C      1  0.5674540000000  0.5144340000000  0.4510160000000 1.0
C      1  0.4726180000000  0.5832520000000  0.5003800000000 1.0
C      1  0.4071520000000  0.4911800000000  0.4760770000000 1.0
C      1  0.5042350000000  0.4838950000000  0.4187210000000 1.0
C      1  0.5328780000000  0.5618290000000  0.4663620000000 1.0
C      1  0.4738620000000  0.5381040000000  0.4747330000000 1.0
C      1  0.5788700000000  0.5359800000000  0.4668620000000 1.0
C      1  0.4165690000000  0.4769080000000  0.5201570000000 1.0
C      1  0.5161470000000  0.5094930000000  0.5763520000000 1.0
C      1  0.4327150000000  0.4595280000000  0.4565290000000 1.0
C      1  0.5291330000000  0.5331750000000  0.5718410000000 1.0
C      1  0.5454080000000  0.5314340000000  0.5468830000000 1.0
C      1  0.5167310000000  0.4394300000000  0.5771590000000 1.0
C      1  0.4196080000000  0.4703080000000  0.5471470000000 1.0
C      1  0.5750460000000  0.4890180000000  0.4397930000000 1.0
C      1  0.4733180000000  0.5213440000000  0.5348190000000 1.0
C      1  0.5952770000000  0.5308310000000  0.4896640000000 1.0
C      1  0.5238700000000  0.5780760000000  0.5122180000000 1.0
C      1  0.4610370000000  0.5844710000000  0.5284150000000 1.0
C      1  0.4715780000000  0.5553110000000  0.4497120000000 1.0
C      1  0.5536900000000  0.4825000000000  0.4192100000000 1.0
C      1  0.5878130000000  0.5217530000000  0.5302860000000 1.0
C      1  0.4601910000000  0.5418830000000  0.5185680000000 1.0
C      1  0.5472850000000  0.4640180000000  0.4389650000000 1.0
C      1  0.5681970000000  0.5655010000000  0.5027720000000 1.0
C      1  0.4962560000000  0.5598760000000  0.5510150000000 1.0
C      1  0.5370490000000  0.4767650000000  0.4857410000000 1.0
C      1  0.4922040000000  0.5880510000000  0.4793570000000 1.0
C      1  0.4584700000000  0.4547580000000  0.4436690000000 1.0
C      1  0.4428950000000  0.5082580000000  0.4471310000000 1.0
C      1  0.4400510000000  0.4925410000000  0.5157910000000 1.0
C      1  0.5296270000000  0.4957040000000  0.4105550000000 1.0
C      1  0.5228890000000  0.5304040000000  0.5217020000000 1.0
C      1  0.5196290000000  0.5821120000000  0.4847820000000 1.0
C      1  0.4757150000000  0.4804950000000  0.4858720000000 1.0
C      1  0.5019570000000  0.4114280000000  0.5391060000000 1.0
C      1  0.5422900000000  0.4290230000000  0.4841080000000 1.0
C      1  0.4773870000000  0.5340910000000  0.5613050000000 1.0
C      1  0.5624090000000  0.5592220000000  0.4742090000000 1.0
C      1  0.5548960000000  0.4832840000000  0.5501650000000 1.0
C      1  0.5244930000000  0.5194090000000  0.4249790000000 1.0
C      1  0.5047810000000  0.4695760000000  0.4450680000000 1.0
C      1  0.5705650000000  0.4628080000000  0.4555370000000 1.0
C      1  0.4981450000000  0.5211770000000  0.4747470000000 1.0
C      1  0.5290470000000  0.4818220000000  0.4571170000000 1.0
C      1  0.4799030000000  0.4509870000000  0.5284960000000 1.0
C      1  0.4524930000000  0.4348120000000  0.5282760000000 1.0
C      1  0.4316750000000  0.5478250000000  0.5113380000000 1.0
C      1  0.5230510000000  0.5600940000000  0.5640160000000 1.0
C      1  0.4483040000000  0.5206190000000  0.4740910000000 1.0
C      1  0.4579040000000  0.4964190000000  0.5373810000000 1.0
C      1  0.5263150000000  0.4852580000000  0.5607130000000 1.0
C      1  0.4236450000000  0.4866750000000  0.4527670000000 1.0
C      1  0.5660080000000  0.5102970000000  0.5458450000000 1.0
C      1  0.4396970000000  0.4506770000000  0.5517570000000 1.0
C      1  0.4695630000000  0.4217400000000  0.4811340000000 1.0
C      1  0.4822260000000  0.4787410000000  0.5732020000000 1.0
C      1  0.4785550000000  0.4751550000000  0.4572220000000 1.0
C      1  0.4625110000000  0.5127120000000  0.4264690000000 1.0
C      1  0.4225530000000  0.5336420000000  0.4894800000000 1.0
C      1  0.5141700000000  0.5643120000000  0.4424260000000 1.0
C      1  0.5139300000000  0.4750650000000  0.5055440000000 1.0
C      1  0.4746440000000  0.4329880000000  0.4554140000000 1.0
C      1  0.5602630000000  0.4581280000000  0.5342240000000 1.0
C      1  0.5022430000000  0.4393880000000  0.4509490000000 1.0
C      1  0.5871860000000  0.5462300000000  0.5129710000000 1.0
C      1  0.4471950000000  0.5417560000000  0.5626110000000 1.0
C      1  0.5257520000000  0.5304210000000  0.4731230000000 1.0
C      1  0.4757890000000  0.4890380000000  0.4134030000000 1.0
C      1  0.5095520000000  0.4649860000000  0.5760840000000 1.0
C      1  0.5497430000000  0.5747670000000  0.5223080000000 1.0
C      1  0.5528800000000  0.4983800000000  0.4963570000000 1.0
C      1  0.5739100000000  0.4607940000000  0.5090730000000 1.0
C      1  0.4776260000000  0.4243900000000  0.5395420000000 1.0
C      1  0.4811490000000  0.4761700000000  0.5430730000000 1.0
C      1  0.4960180000000  0.5005230000000  0.4941630000000 1.0
C      1  0.5371240000000  0.5130690000000  0.4513040000000 1.0
C      1  0.4773150000000  0.5374380000000  0.4280830000000 1.0
C      1  0.4370450000000  0.4920130000000  0.5627450000000 1.0
C      1  0.5064870000000  0.5414370000000  0.4258450000000 1.0
C      1  0.4995710000000  0.5123890000000  0.5225050000000 1.0
C      1  0.4883640000000  0.5088970000000  0.5765070000000 1.0
C      1  0.5395200000000  0.5234740000000  0.4986240000000 1.0
C      1  0.4338080000000  0.5191900000000  0.5692260000000 1.0
C      1  0.4464140000000  0.4319170000000  0.4973530000000 1.0
C      1  0.4898620000000  0.5766800000000  0.4530320000000 1.0
C      1  0.4792240000000  0.5547670000000  0.5013630000000 1.0
C      1  0.5117270000000  0.4078130000000  0.5125410000000 1.0
C      1  0.4614530000000  0.4657820000000  0.4172920000000 1.0
C      1  0.4971570000000  0.4134780000000  0.4887080000000 1.0
C      1  0.4020500000000  0.5167090000000  0.4844250000000 1.0
C      1  0.5234060000000  0.4253240000000  0.5544200000000 1.0
C      1  0.4427910000000  0.5602000000000  0.5350820000000 1.0
C      1  0.5801280000000  0.4874990000000  0.5015350000000 1.0
C      1  0.5057340000000  0.5557140000000  0.5205730000000 1.0
C      1  0.4787310000000  0.5834210000000  0.5486710000000 1.0
C      1  0.5168350000000  0.4250060000000  0.4705860000000 1.0
END
