TITL C-18098-6052-12 0.0341164899754203 125000 -369.398079791151 0 0 55 (C1) n - 1
REM
REM in /rds/project/t2_vol4/rds-t2-cs072/BORA/CARBON/from-Arr/AIRSS/Generating-Clusters/GAP-ML-2020/Only-C1/SD-CG/HFTN-CG
REM
REM
REM
REM
REM
REM ./C.cell (11c1c37f851c82e70ff6c80c92926a4b)
REM AIRSS Version 0.9.1 bugfix July 2018 build 013d7b7c2542+ Fri, 06 Jul 2018 19:26:36 +0100
REM compiler GCC version 9.3.0
REM options -cpp -mtune=generic -march=x86-64 -g -O0
REM seed 1417007732 -1399885644 -1275059149 -503822235 447334855 2091005678 1548155983 1948749889 1304500435 255495423 444591461 -518185782 -702345981 1517763213 -1675985739 -749424944 -109381506 732641792 1527888807 -1941614044 -1882203862 1257231832 183966291 -1235187909 1627314160 -1868380942 446250743 -1150976169 -2139379559 -989320523 974516491 -1262717706 763066004
REM
CELL 1.54180   50.00000   50.00000   50.00000   90.00000   90.00000   90.00000
LATT -1
SFAC C  
C      1  0.4343370000000  0.5445410000000  0.5284470000000 1.0
C      1  0.5503650000000  0.5369610000000  0.4818000000000 1.0
C      1  0.4922060000000  0.5622190000000  0.5007400000000 1.0
C      1  0.4621250000000  0.4926820000000  0.4930560000000 1.0
C      1  0.4430940000000  0.4752410000000  0.5367700000000 1.0
C      1  0.4496000000000  0.4795060000000  0.5649430000000 1.0
C      1  0.4561260000000  0.5236480000000  0.4874620000000 1.0
C      1  0.4626260000000  0.4454210000000  0.4991420000000 1.0
C      1  0.5129930000000  0.5049390000000  0.4822320000000 1.0
C      1  0.5535930000000  0.4998940000000  0.5373450000000 1.0
C      1  0.5057580000000  0.5595450000000  0.5259770000000 1.0
C      1  0.5704380000000  0.5055240000000  0.5164400000000 1.0
C      1  0.4751200000000  0.5376080000000  0.5061580000000 1.0
C      1  0.4412860000000  0.4949320000000  0.5152170000000 1.0
C      1  0.4755450000000  0.4761530000000  0.4333870000000 1.0
C      1  0.5389380000000  0.4739030000000  0.5410200000000 1.0
C      1  0.5262550000000  0.4696100000000  0.4495920000000 1.0
C      1  0.4850560000000  0.5531250000000  0.5464950000000 1.0
C      1  0.5002160000000  0.5662720000000  0.4750070000000 1.0
C      1  0.5118100000000  0.4392840000000  0.4777800000000 1.0
C      1  0.4599460000000  0.5508630000000  0.5314510000000 1.0
C      1  0.4576030000000  0.4652890000000  0.4797770000000 1.0
C      1  0.4932200000000  0.4631170000000  0.5634590000000 1.0
C      1  0.4859290000000  0.5493940000000  0.4532440000000 1.0
C      1  0.5615610000000  0.4933700000000  0.4689070000000 1.0
C      1  0.4841180000000  0.4501520000000  0.4387480000000 1.0
C      1  0.5303110000000  0.4601670000000  0.5172120000000 1.0
C      1  0.5149780000000  0.5549960000000  0.4551650000000 1.0
C      1  0.4600600000000  0.5357110000000  0.4606590000000 1.0
C      1  0.4753250000000  0.5248270000000  0.4408670000000 1.0
C      1  0.4595820000000  0.4536910000000  0.5263810000000 1.0
C      1  0.5475300000000  0.4682010000000  0.4692090000000 1.0
C      1  0.4926710000000  0.5172340000000  0.5219870000000 1.0
C      1  0.5390680000000  0.5403160000000  0.4559430000000 1.0
C      1  0.5092080000000  0.4473960000000  0.4505140000000 1.0
C      1  0.4928880000000  0.4937850000000  0.5018900000000 1.0
C      1  0.5398720000000  0.5143140000000  0.4442360000000 1.0
C      1  0.5205440000000  0.4740530000000  0.5640610000000 1.0
C      1  0.5362400000000  0.4523120000000  0.4900480000000 1.0
C      1  0.5352520000000  0.5217950000000  0.5436220000000 1.0
C      1  0.4910380000000  0.5251460000000  0.5520690000000 1.0
C      1  0.5014050000000  0.4648040000000  0.5146000000000 1.0
C      1  0.4857700000000  0.4553000000000  0.5377550000000 1.0
C      1  0.4617350000000  0.4593270000000  0.4523000000000 1.0
C      1  0.5161710000000  0.5167800000000  0.5643470000000 1.0
C      1  0.4895630000000  0.5002350000000  0.4369160000000 1.0
C      1  0.5222170000000  0.4959050000000  0.5809390000000 1.0
C      1  0.5205060000000  0.5327430000000  0.5209860000000 1.0
C      1  0.4703670000000  0.4728400000000  0.5790080000000 1.0
C      1  0.5640860000000  0.5026610000000  0.4429270000000 1.0
C      1  0.4907720000000  0.4442660000000  0.4950240000000 1.0
C      1  0.5154530000000  0.4974830000000  0.4519650000000 1.0
C      1  0.4342750000000  0.5221110000000  0.5099090000000 1.0
C      1  0.5647780000000  0.5130230000000  0.4905020000000 1.0
C      1  0.5284720000000  0.5253810000000  0.4943590000000 1.0
END
