TITL C-18090-5836-6 -1022.78117780037 125000 -1072.82210739968 0 0 153 (C1) n - 1
REM
REM in /rds/project/t2_vol4/rds-t2-cs072/BORA/CARBON/from-Arr/AIRSS/Generating-Clusters/GAP-ML-2020/Only-C1/SD-CG/HFTN-CG
REM
REM
REM
REM
REM
REM ./C.cell (11c1c37f851c82e70ff6c80c92926a4b)
REM AIRSS Version 0.9.1 bugfix July 2018 build 013d7b7c2542+ Fri, 06 Jul 2018 19:26:36 +0100
REM compiler GCC version 9.3.0
REM options -cpp -mtune=generic -march=x86-64 -g -O0
REM seed -1739585456 915880276 -119174858 2098235687 -2005059457 2042875730 1530947006 -2099163841 -2063271711 2125690463 1557695926 2142253937 -438793930 1121261564 1316379447 -836874185 208257003 1873753392 -565600071 105149914 1505105661 -2129011583 -799164687 576092481 -890670530 117587325 -675894597 1156807895 -1591071521 -1113345388 1335473045 730997958 1194446618
REM
CELL 1.54180   50.00000   50.00000   50.00000   90.00000   90.00000   90.00000
LATT -1
SFAC C  
C      1  0.4884750000000  0.4874510000000  0.4626460000000 1.0
C      1  0.4426360000000  0.4622110000000  0.4946970000000 1.0
C      1  0.5267450000000  0.5286190000000  0.5881140000000 1.0
C      1  0.5960520000000  0.5285940000000  0.4887790000000 1.0
C      1  0.5629840000000  0.5056910000000  0.5651930000000 1.0
C      1  0.5249060000000  0.5897390000000  0.5542320000000 1.0
C      1  0.5758920000000  0.4274130000000  0.5051510000000 1.0
C      1  0.5506970000000  0.5799640000000  0.5126330000000 1.0
C      1  0.5114380000000  0.5027120000000  0.5384950000000 1.0
C      1  0.4713170000000  0.4894240000000  0.5927630000000 1.0
C      1  0.4329540000000  0.4283710000000  0.5192110000000 1.0
C      1  0.5299630000000  0.5931120000000  0.4706680000000 1.0
C      1  0.4922520000000  0.4577410000000  0.3995920000000 1.0
C      1  0.5557810000000  0.4580630000000  0.4263860000000 1.0
C      1  0.3986580000000  0.4920990000000  0.4596040000000 1.0
C      1  0.5434280000000  0.4737690000000  0.5078810000000 1.0
C      1  0.5049820000000  0.5311290000000  0.4164680000000 1.0
C      1  0.5758470000000  0.4380720000000  0.5475020000000 1.0
C      1  0.5123730000000  0.4254690000000  0.5803230000000 1.0
C      1  0.4507600000000  0.4834070000000  0.5358440000000 1.0
C      1  0.4544250000000  0.5794660000000  0.4668970000000 1.0
C      1  0.4907420000000  0.5189430000000  0.5484580000000 1.0
C      1  0.4623480000000  0.5243900000000  0.5117920000000 1.0
C      1  0.5441560000000  0.4326230000000  0.4359570000000 1.0
C      1  0.5307540000000  0.4649730000000  0.5301540000000 1.0
C      1  0.5192350000000  0.4978300000000  0.4676950000000 1.0
C      1  0.4616680000000  0.5528800000000  0.5071290000000 1.0
C      1  0.4477910000000  0.4970800000000  0.5781030000000 1.0
C      1  0.4200020000000  0.5278970000000  0.5430250000000 1.0
C      1  0.4597180000000  0.5630920000000  0.4190980000000 1.0
C      1  0.4489100000000  0.4466990000000  0.5642340000000 1.0
C      1  0.5035670000000  0.5910280000000  0.4596270000000 1.0
C      1  0.4972980000000  0.4535410000000  0.5506210000000 1.0
C      1  0.5824330000000  0.4607770000000  0.4682500000000 1.0
C      1  0.4410390000000  0.4384660000000  0.4737750000000 1.0
C      1  0.5304820000000  0.5387780000000  0.5593510000000 1.0
C      1  0.5517850000000  0.4220720000000  0.4617050000000 1.0
C      1  0.5614270000000  0.5570130000000  0.5551640000000 1.0
C      1  0.4001600000000  0.4575670000000  0.4910210000000 1.0
C      1  0.5580100000000  0.4773160000000  0.5761410000000 1.0
C      1  0.4069830000000  0.5190960000000  0.4591130000000 1.0
C      1  0.6016080000000  0.5026390000000  0.4987660000000 1.0
C      1  0.4507360000000  0.5644680000000  0.5346440000000 1.0
C      1  0.4450860000000  0.4186150000000  0.4950130000000 1.0
C      1  0.5054770000000  0.5742100000000  0.4364950000000 1.0
C      1  0.5772530000000  0.4731370000000  0.5134160000000 1.0
C      1  0.4893230000000  0.4578760000000  0.4614390000000 1.0
C      1  0.4720810000000  0.4097910000000  0.4916090000000 1.0
C      1  0.4813870000000  0.5556820000000  0.5793470000000 1.0
C      1  0.5844300000000  0.5133300000000  0.5454490000000 1.0
C      1  0.4759400000000  0.5337440000000  0.4512920000000 1.0
C      1  0.5926620000000  0.4962960000000  0.5254750000000 1.0
C      1  0.4841370000000  0.4273800000000  0.5355090000000 1.0
C      1  0.5306890000000  0.5002220000000  0.4964090000000 1.0
C      1  0.5014110000000  0.4511080000000  0.4901010000000 1.0
C      1  0.5104060000000  0.4755670000000  0.4140540000000 1.0
C      1  0.5193610000000  0.4089850000000  0.5545670000000 1.0
C      1  0.4893140000000  0.5587810000000  0.4948450000000 1.0
C      1  0.4908420000000  0.4331270000000  0.4141390000000 1.0
C      1  0.4867150000000  0.5519890000000  0.4273420000000 1.0
C      1  0.4472500000000  0.5772860000000  0.4396760000000 1.0
C      1  0.4649900000000  0.4352180000000  0.4256140000000 1.0
C      1  0.4847750000000  0.5164030000000  0.4959530000000 1.0
C      1  0.5212440000000  0.4090900000000  0.5043730000000 1.0
C      1  0.4840100000000  0.5954320000000  0.5492440000000 1.0
C      1  0.4982180000000  0.5730670000000  0.5624180000000 1.0
C      1  0.4820050000000  0.4627200000000  0.5909700000000 1.0
C      1  0.4428250000000  0.5573810000000  0.4833510000000 1.0
C      1  0.4934350000000  0.5362740000000  0.4745210000000 1.0
C      1  0.4850560000000  0.4177840000000  0.5804800000000 1.0
C      1  0.5096850000000  0.4557240000000  0.5803280000000 1.0
C      1  0.4945040000000  0.4218420000000  0.5069390000000 1.0
C      1  0.4321400000000  0.4757050000000  0.4278750000000 1.0
C      1  0.4489610000000  0.4565560000000  0.4141780000000 1.0
C      1  0.4908050000000  0.4066460000000  0.5551320000000 1.0
C      1  0.5708980000000  0.5096500000000  0.4465940000000 1.0
C      1  0.4612710000000  0.4619320000000  0.5189700000000 1.0
C      1  0.4670000000000  0.4706830000000  0.3977760000000 1.0
C      1  0.5502180000000  0.4995530000000  0.4058280000000 1.0
C      1  0.4919180000000  0.5078360000000  0.6001780000000 1.0
C      1  0.5893100000000  0.5488090000000  0.5083270000000 1.0
C      1  0.5365960000000  0.5521880000000  0.5092210000000 1.0
C      1  0.4440790000000  0.5238250000000  0.5604360000000 1.0
C      1  0.4083270000000  0.5041700000000  0.5299580000000 1.0
C      1  0.4661490000000  0.5909480000000  0.5286060000000 1.0
C      1  0.5621550000000  0.4178330000000  0.5294460000000 1.0
C      1  0.3917800000000  0.4844760000000  0.4867680000000 1.0
C      1  0.5294540000000  0.5359370000000  0.4316420000000 1.0
C      1  0.5308480000000  0.4763230000000  0.5868170000000 1.0
C      1  0.5094070000000  0.5476540000000  0.5162700000000 1.0
C      1  0.5650150000000  0.5577490000000  0.4702700000000 1.0
C      1  0.5306060000000  0.4583820000000  0.4862620000000 1.0
C      1  0.5401700000000  0.4750000000000  0.4087590000000 1.0
C      1  0.5601320000000  0.5273890000000  0.5870380000000 1.0
C      1  0.5075680000000  0.4112610000000  0.4568630000000 1.0
C      1  0.4305010000000  0.5262270000000  0.4416780000000 1.0
C      1  0.4467150000000  0.5014270000000  0.4286900000000 1.0
C      1  0.5421550000000  0.5411920000000  0.4814080000000 1.0
C      1  0.5086800000000  0.6075340000000  0.5396860000000 1.0
C      1  0.5117930000000  0.4590550000000  0.4416730000000 1.0
C      1  0.5493630000000  0.5806950000000  0.5431320000000 1.0
C      1  0.4490930000000  0.5370450000000  0.4619460000000 1.0
C      1  0.5647860000000  0.4759910000000  0.4497020000000 1.0
C      1  0.4400530000000  0.4743480000000  0.5617250000000 1.0
C      1  0.5475980000000  0.5761760000000  0.4554530000000 1.0
C      1  0.5145930000000  0.4286970000000  0.4334670000000 1.0
C      1  0.5814270000000  0.5316970000000  0.4635580000000 1.0
C      1  0.5094430000000  0.5162080000000  0.5122110000000 1.0
C      1  0.5875610000000  0.4474340000000  0.5221940000000 1.0
C      1  0.5351170000000  0.4078470000000  0.5300070000000 1.0
C      1  0.5771830000000  0.5395890000000  0.5346550000000 1.0
C      1  0.4180510000000  0.4546460000000  0.5137930000000 1.0
C      1  0.4961800000000  0.5358510000000  0.5942540000000 1.0
C      1  0.5316290000000  0.5653620000000  0.4345470000000 1.0
C      1  0.5527950000000  0.5173360000000  0.4962630000000 1.0
C      1  0.4209140000000  0.4787210000000  0.5342830000000 1.0
C      1  0.4179190000000  0.5503380000000  0.4989760000000 1.0
C      1  0.5335270000000  0.4731470000000  0.4595680000000 1.0
C      1  0.4627660000000  0.5118190000000  0.5380870000000 1.0
C      1  0.4550630000000  0.4365670000000  0.5367030000000 1.0
C      1  0.4871660000000  0.4700400000000  0.5082200000000 1.0
C      1  0.5729910000000  0.4341360000000  0.4770280000000 1.0
C      1  0.5712490000000  0.5513160000000  0.5817450000000 1.0
C      1  0.5196650000000  0.5008940000000  0.5950720000000 1.0
C      1  0.3966990000000  0.5066390000000  0.5037970000000 1.0
C      1  0.5321450000000  0.5986670000000  0.4980870000000 1.0
C      1  0.4231560000000  0.5516980000000  0.5277550000000 1.0
C      1  0.5210360000000  0.5285600000000  0.4633230000000 1.0
C      1  0.5392480000000  0.5146730000000  0.5458900000000 1.0
C      1  0.5040470000000  0.5471700000000  0.5461840000000 1.0
C      1  0.4804990000000  0.4112290000000  0.4646580000000 1.0
C      1  0.4666620000000  0.4975250000000  0.4046180000000 1.0
C      1  0.4815970000000  0.5998420000000  0.5042730000000 1.0
C      1  0.5929670000000  0.4771810000000  0.4879950000000 1.0
C      1  0.5523720000000  0.5293820000000  0.5228920000000 1.0
C      1  0.4668560000000  0.4390460000000  0.5844590000000 1.0
C      1  0.5083780000000  0.6079560000000  0.5115280000000 1.0
C      1  0.4135100000000  0.4488510000000  0.4663800000000 1.0
C      1  0.4115730000000  0.4699740000000  0.4468370000000 1.0
C      1  0.4805790000000  0.5874670000000  0.4779960000000 1.0
C      1  0.5719780000000  0.4544130000000  0.5689020000000 1.0
C      1  0.5288960000000  0.4096080000000  0.4755630000000 1.0
C      1  0.5532220000000  0.5178490000000  0.4256380000000 1.0
C      1  0.4763390000000  0.5049880000000  0.4416610000000 1.0
C      1  0.5049460000000  0.4741930000000  0.5330090000000 1.0
C      1  0.4566570000000  0.5508580000000  0.5625550000000 1.0
C      1  0.4353690000000  0.5533600000000  0.4290270000000 1.0
C      1  0.4476960000000  0.4887590000000  0.4855050000000 1.0
C      1  0.5746970000000  0.5692550000000  0.4966030000000 1.0
C      1  0.4941360000000  0.5037760000000  0.4149360000000 1.0
C      1  0.4757060000000  0.4914310000000  0.4878770000000 1.0
C      1  0.4043640000000  0.5287320000000  0.4867890000000 1.0
C      1  0.4659610000000  0.4353280000000  0.4550520000000 1.0
END
