TITL C-184275-2476-4 0.18715552397482 125000 -336.643996605574 0 0 50 (C1) n - 1
REM
REM in /rds/project/t2_vol4/rds-t2-cs072/BORA/CARBON/from-Arr/AIRSS/Generating-Clusters/GAP-ML-2020/Only-C1/SD-CG/HFTN-CG
REM
REM
REM
REM
REM
REM ./C.cell (11c1c37f851c82e70ff6c80c92926a4b)
REM AIRSS Version 0.9.1 bugfix July 2018 build 013d7b7c2542+ Fri, 06 Jul 2018 19:26:36 +0100
REM compiler GCC version 9.3.0
REM options -cpp -mtune=generic -march=x86-64 -g -O0
REM seed -947191472 -469919433 1615093286 234986354 1988675410 -520832140 1682207997 -629480383 -1358399098 2009770399 910576359 1176524534 -107264570 -28471649 199457957 -1352156860 -644252640 872325728 -648491543 116678251 522404532 1447567847 1818144178 985878624 -2110705439 484590941 -1905588883 -179430901 1938124124 1476832875 1795831873 -793376831 -1236311821
REM
CELL 1.54180   50.00000   50.00000   50.00000   90.00000   90.00000   90.00000
LATT -1
SFAC C  
C      1  0.4793900000000  0.5112730000000  0.5142650000000 1.0
C      1  0.5353060000000  0.4685330000000  0.4668380000000 1.0
C      1  0.5199430000000  0.5108660000000  0.4450030000000 1.0
C      1  0.5442110000000  0.5441510000000  0.4724910000000 1.0
C      1  0.5312450000000  0.4570440000000  0.5544650000000 1.0
C      1  0.5147740000000  0.5699120000000  0.5394890000000 1.0
C      1  0.4835840000000  0.4514130000000  0.5400320000000 1.0
C      1  0.5023300000000  0.4806070000000  0.4914010000000 1.0
C      1  0.5510220000000  0.5560020000000  0.5127090000000 1.0
C      1  0.4393600000000  0.4894200000000  0.4424740000000 1.0
C      1  0.4713170000000  0.4410770000000  0.5166330000000 1.0
C      1  0.4961250000000  0.4990010000000  0.4372560000000 1.0
C      1  0.4738910000000  0.5488030000000  0.4547560000000 1.0
C      1  0.5444700000000  0.5083010000000  0.5094420000000 1.0
C      1  0.5393740000000  0.4370990000000  0.5016280000000 1.0
C      1  0.4872920000000  0.4977970000000  0.5409980000000 1.0
C      1  0.5169520000000  0.4311220000000  0.5152420000000 1.0
C      1  0.4495040000000  0.5489550000000  0.5243300000000 1.0
C      1  0.5569920000000  0.5324560000000  0.4961330000000 1.0
C      1  0.4866240000000  0.4763640000000  0.4479730000000 1.0
C      1  0.4336530000000  0.5004970000000  0.5268180000000 1.0
C      1  0.4573660000000  0.4740240000000  0.4565340000000 1.0
C      1  0.5347020000000  0.4959200000000  0.4637270000000 1.0
C      1  0.4709020000000  0.4758340000000  0.5472360000000 1.0
C      1  0.5202800000000  0.5028020000000  0.4914710000000 1.0
C      1  0.4419160000000  0.5144840000000  0.4400140000000 1.0
C      1  0.4505150000000  0.4591900000000  0.5082950000000 1.0
C      1  0.4942940000000  0.5685800000000  0.5207190000000 1.0
C      1  0.5347810000000  0.5509700000000  0.5358220000000 1.0
C      1  0.4670370000000  0.5671820000000  0.5256350000000 1.0
C      1  0.5056870000000  0.5549070000000  0.4955340000000 1.0
C      1  0.4467200000000  0.4772160000000  0.5304290000000 1.0
C      1  0.4501660000000  0.5214960000000  0.5197770000000 1.0
C      1  0.4562840000000  0.4736100000000  0.4846580000000 1.0
C      1  0.4531800000000  0.5375680000000  0.4450800000000 1.0
C      1  0.5056080000000  0.4618400000000  0.4667560000000 1.0
C      1  0.5109080000000  0.4431330000000  0.5409530000000 1.0
C      1  0.4772930000000  0.4914370000000  0.4931900000000 1.0
C      1  0.5460240000000  0.4615140000000  0.4931040000000 1.0
C      1  0.4921000000000  0.4294220000000  0.5000590000000 1.0
C      1  0.5051260000000  0.5253730000000  0.5068760000000 1.0
C      1  0.5496750000000  0.4730290000000  0.5407030000000 1.0
C      1  0.4978810000000  0.5502580000000  0.4670290000000 1.0
C      1  0.5251170000000  0.5231420000000  0.5308080000000 1.0
C      1  0.4957590000000  0.4366980000000  0.4744100000000 1.0
C      1  0.5308000000000  0.4841530000000  0.5599670000000 1.0
C      1  0.5339450000000  0.5636630000000  0.4914970000000 1.0
C      1  0.5219010000000  0.5375280000000  0.4562460000000 1.0
C      1  0.5534620000000  0.4808790000000  0.5136850000000 1.0
C      1  0.5132100000000  0.5034550000000  0.5494100000000 1.0
END
