TITL C-18109-8085-6 0.0879258450149333 125000 -644.651202240699 0 0 93 (C1) n - 1
REM
REM in /rds/project/t2_vol4/rds-t2-cs072/BORA/CARBON/from-Arr/AIRSS/Generating-Clusters/GAP-ML-2020/Only-C1/SD-CG/HFTN-CG
REM
REM
REM
REM
REM
REM ./C.cell (11c1c37f851c82e70ff6c80c92926a4b)
REM AIRSS Version 0.9.1 bugfix July 2018 build 013d7b7c2542+ Fri, 06 Jul 2018 19:26:36 +0100
REM compiler GCC version 9.3.0
REM options -cpp -mtune=generic -march=x86-64 -g -O0
REM seed 743593053 -1736190564 -145193521 478669229 1264167582 503029012 2093367559 -1673220560 891599515 -1813053127 -1223954569 103549665 769586529 -2066525181 -2123449064 -1301267728 1975043196 266706614 1754075633 486428850 1261365282 -1278335887 1332031964 -1255291455 1391651215 -2003946793 -1182053551 1084072502 -1939474682 -1479653587 1743943044 -1641522706 1064492510
REM
CELL 1.54180   50.00000   50.00000   50.00000   90.00000   90.00000   90.00000
LATT -1
SFAC C  
C      1  0.5479130000000  0.5329240000000  0.4583740000000 1.0
C      1  0.5125350000000  0.5112900000000  0.4215480000000 1.0
C      1  0.4882950000000  0.4385000000000  0.5567920000000 1.0
C      1  0.4762580000000  0.4749350000000  0.4300570000000 1.0
C      1  0.5464190000000  0.5057280000000  0.5594780000000 1.0
C      1  0.5248940000000  0.4644720000000  0.5460640000000 1.0
C      1  0.5422780000000  0.4412120000000  0.5516860000000 1.0
C      1  0.4816060000000  0.4241010000000  0.5123800000000 1.0
C      1  0.5650460000000  0.4593320000000  0.4696580000000 1.0
C      1  0.4730040000000  0.4394700000000  0.4623650000000 1.0
C      1  0.4494820000000  0.4724120000000  0.4409850000000 1.0
C      1  0.4295260000000  0.5374570000000  0.4552500000000 1.0
C      1  0.4928190000000  0.5291980000000  0.5409830000000 1.0
C      1  0.4488160000000  0.5124900000000  0.5569740000000 1.0
C      1  0.5642940000000  0.4816810000000  0.5157650000000 1.0
C      1  0.5480180000000  0.4691690000000  0.4924390000000 1.0
C      1  0.5335780000000  0.5769730000000  0.4671870000000 1.0
C      1  0.4795550000000  0.5504570000000  0.4287400000000 1.0
C      1  0.5079200000000  0.5549280000000  0.4339480000000 1.0
C      1  0.4596020000000  0.4389100000000  0.5251190000000 1.0
C      1  0.4171270000000  0.5229790000000  0.4767400000000 1.0
C      1  0.5744780000000  0.5328070000000  0.5141200000000 1.0
C      1  0.4639470000000  0.5408040000000  0.5008880000000 1.0
C      1  0.5147090000000  0.4339500000000  0.4778440000000 1.0
C      1  0.5006640000000  0.4625050000000  0.5640410000000 1.0
C      1  0.4930410000000  0.4810960000000  0.4793160000000 1.0
C      1  0.4703330000000  0.5514340000000  0.5455370000000 1.0
C      1  0.5676810000000  0.4511650000000  0.5515230000000 1.0
C      1  0.4767760000000  0.5037540000000  0.5444090000000 1.0
C      1  0.4199110000000  0.4845430000000  0.4901450000000 1.0
C      1  0.4146350000000  0.4965770000000  0.4652000000000 1.0
C      1  0.4979190000000  0.4806360000000  0.5084440000000 1.0
C      1  0.5742240000000  0.5076650000000  0.5006200000000 1.0
C      1  0.4333060000000  0.5230770000000  0.5322440000000 1.0
C      1  0.4838980000000  0.5843490000000  0.4622110000000 1.0
C      1  0.4433330000000  0.5610220000000  0.4604200000000 1.0
C      1  0.4843590000000  0.4860950000000  0.5697100000000 1.0
C      1  0.4659350000000  0.5690320000000  0.4453510000000 1.0
C      1  0.4879240000000  0.4276390000000  0.4841260000000 1.0
C      1  0.5253310000000  0.4929510000000  0.4371420000000 1.0
C      1  0.4583220000000  0.5109020000000  0.4987230000000 1.0
C      1  0.5747090000000  0.4346130000000  0.5095460000000 1.0
C      1  0.4629190000000  0.5362960000000  0.5709760000000 1.0
C      1  0.4724170000000  0.5857040000000  0.4890990000000 1.0
C      1  0.5470300000000  0.4264210000000  0.5144810000000 1.0
C      1  0.4501210000000  0.5451200000000  0.5266230000000 1.0
C      1  0.5609880000000  0.5085350000000  0.4730270000000 1.0
C      1  0.4907010000000  0.4517430000000  0.4424570000000 1.0
C      1  0.4720660000000  0.5026810000000  0.4745850000000 1.0
C      1  0.5115340000000  0.4555330000000  0.5204450000000 1.0
C      1  0.5595520000000  0.5314110000000  0.5548540000000 1.0
C      1  0.4442800000000  0.4593480000000  0.5671930000000 1.0
C      1  0.5353140000000  0.4954260000000  0.4854400000000 1.0
C      1  0.4276740000000  0.5108170000000  0.5041520000000 1.0
C      1  0.5268420000000  0.5338290000000  0.4346530000000 1.0
C      1  0.4666570000000  0.5249940000000  0.4231480000000 1.0
C      1  0.4377580000000  0.4633310000000  0.4886800000000 1.0
C      1  0.4873360000000  0.5316270000000  0.5837780000000 1.0
C      1  0.5695850000000  0.4862160000000  0.4559320000000 1.0
C      1  0.4524490000000  0.4842590000000  0.5713650000000 1.0
C      1  0.4485930000000  0.4539960000000  0.4632300000000 1.0
C      1  0.4986380000000  0.5051180000000  0.5865400000000 1.0
C      1  0.5823910000000  0.5349740000000  0.5409530000000 1.0
C      1  0.5476360000000  0.5556290000000  0.4764930000000 1.0
C      1  0.5497780000000  0.4801590000000  0.4361860000000 1.0
C      1  0.5529810000000  0.5511970000000  0.5047090000000 1.0
C      1  0.4830720000000  0.5769140000000  0.5383770000000 1.0
C      1  0.5178360000000  0.4442820000000  0.4515700000000 1.0
C      1  0.4938640000000  0.5379570000000  0.4938240000000 1.0
C      1  0.5314850000000  0.5500260000000  0.5232090000000 1.0
C      1  0.4813060000000  0.5886100000000  0.5157020000000 1.0
C      1  0.5439210000000  0.4541960000000  0.4469040000000 1.0
C      1  0.5313260000000  0.4197670000000  0.5369430000000 1.0
C      1  0.4940980000000  0.5213950000000  0.4710360000000 1.0
C      1  0.5106490000000  0.5772090000000  0.4528690000000 1.0
C      1  0.5022620000000  0.4273510000000  0.5324800000000 1.0
C      1  0.4407540000000  0.5202710000000  0.4349720000000 1.0
C      1  0.5782240000000  0.4579330000000  0.5273110000000 1.0
C      1  0.4844880000000  0.5028140000000  0.4204850000000 1.0
C      1  0.5242290000000  0.5122700000000  0.5759390000000 1.0
C      1  0.5117360000000  0.5362080000000  0.5645390000000 1.0
C      1  0.5406090000000  0.4890050000000  0.5353340000000 1.0
C      1  0.5309800000000  0.4460490000000  0.5000390000000 1.0
C      1  0.5213260000000  0.5005970000000  0.5127420000000 1.0
C      1  0.4315850000000  0.4941030000000  0.4421050000000 1.0
C      1  0.5356940000000  0.5481480000000  0.5513040000000 1.0
C      1  0.4600890000000  0.4400880000000  0.5537220000000 1.0
C      1  0.4521270000000  0.5643660000000  0.4872880000000 1.0
C      1  0.5143040000000  0.4973140000000  0.4662670000000 1.0
C      1  0.4522210000000  0.4638180000000  0.5133490000000 1.0
C      1  0.5099040000000  0.5298120000000  0.5165840000000 1.0
C      1  0.5810820000000  0.4403240000000  0.4832480000000 1.0
C      1  0.4711680000000  0.4895780000000  0.5187630000000 1.0
END
