TITL C-184290-2474-5 -99.5196752633721 125000 -567.73615840729 0 0 81 (C1) n - 1
REM
REM in /rds/project/t2_vol4/rds-t2-cs072/BORA/CARBON/from-Arr/AIRSS/Generating-Clusters/GAP-ML-2020/Only-C1/SD-CG/HFTN-CG
REM
REM
REM
REM
REM
REM ./C.cell (11c1c37f851c82e70ff6c80c92926a4b)
REM AIRSS Version 0.9.1 bugfix July 2018 build 013d7b7c2542+ Fri, 06 Jul 2018 19:26:36 +0100
REM compiler GCC version 9.3.0
REM options -cpp -mtune=generic -march=x86-64 -g -O0
REM seed 18579594 -226512599 -307707071 1395374059 106161081 1298983957 1857734540 -700659355 -204680932 -1298363297 854317725 1636824455 1610786195 199163430 1367692692 536735188 -1939708374 -1274548126 790989289 1937808918 961397658 -961430108 115772632 1352288492 -1219524064 1753056289 250709960 2072230119 2110276913 647397413 1551143474 1650039483 -190143745
REM
CELL 1.54180   50.00000   50.00000   50.00000   90.00000   90.00000   90.00000
LATT -1
SFAC C  
C      1  0.4767660000000  0.5236030000000  0.5068470000000 1.0
C      1  0.5129840000000  0.4186970000000  0.4831890000000 1.0
C      1  0.4893700000000  0.5344660000000  0.4816330000000 1.0
C      1  0.4555580000000  0.4349500000000  0.4882460000000 1.0
C      1  0.4507620000000  0.5385070000000  0.5147520000000 1.0
C      1  0.5050130000000  0.5306250000000  0.4309330000000 1.0
C      1  0.4933400000000  0.4584830000000  0.4903510000000 1.0
C      1  0.5247120000000  0.5209100000000  0.5049840000000 1.0
C      1  0.4651710000000  0.4538920000000  0.5315600000000 1.0
C      1  0.4983290000000  0.4377690000000  0.4660520000000 1.0
C      1  0.4997490000000  0.4862920000000  0.5281920000000 1.0
C      1  0.5257120000000  0.4303680000000  0.5196310000000 1.0
C      1  0.5020660000000  0.5030880000000  0.4208580000000 1.0
C      1  0.4824720000000  0.4586060000000  0.5595940000000 1.0
C      1  0.4737320000000  0.4990500000000  0.5776620000000 1.0
C      1  0.4647870000000  0.4964640000000  0.5018360000000 1.0
C      1  0.4325770000000  0.5278400000000  0.4947850000000 1.0
C      1  0.4746230000000  0.5772880000000  0.5253480000000 1.0
C      1  0.4265000000000  0.4877910000000  0.5269670000000 1.0
C      1  0.5107390000000  0.4709730000000  0.5536680000000 1.0
C      1  0.5275050000000  0.4903510000000  0.4249790000000 1.0
C      1  0.5017540000000  0.5727820000000  0.5311800000000 1.0
C      1  0.4556680000000  0.4737490000000  0.4339270000000 1.0
C      1  0.5391960000000  0.5546360000000  0.5486830000000 1.0
C      1  0.5214240000000  0.4948880000000  0.5699260000000 1.0
C      1  0.4987800000000  0.5126660000000  0.5763250000000 1.0
C      1  0.5023200000000  0.5146590000000  0.5205160000000 1.0
C      1  0.4346900000000  0.5028730000000  0.5480110000000 1.0
C      1  0.4685050000000  0.5761430000000  0.4762520000000 1.0
C      1  0.5212290000000  0.5689460000000  0.5090220000000 1.0
C      1  0.5457600000000  0.5091540000000  0.4364480000000 1.0
C      1  0.4368720000000  0.4599740000000  0.5229240000000 1.0
C      1  0.4681460000000  0.4348120000000  0.4621180000000 1.0
C      1  0.5312060000000  0.4759070000000  0.4913650000000 1.0
C      1  0.5168110000000  0.5479690000000  0.4882240000000 1.0
C      1  0.4714300000000  0.4715850000000  0.5804100000000 1.0
C      1  0.5003880000000  0.4193680000000  0.5093640000000 1.0
C      1  0.5667590000000  0.4675450000000  0.5046910000000 1.0
C      1  0.5795780000000  0.5041610000000  0.5262430000000 1.0
C      1  0.5737240000000  0.5307050000000  0.5306540000000 1.0
C      1  0.4602070000000  0.5195790000000  0.4291160000000 1.0
C      1  0.5137110000000  0.4668740000000  0.5106450000000 1.0
C      1  0.5302840000000  0.4537970000000  0.5353440000000 1.0
C      1  0.4710060000000  0.5875420000000  0.4985160000000 1.0
C      1  0.4781850000000  0.5400610000000  0.4367740000000 1.0
C      1  0.5110710000000  0.5585590000000  0.5545390000000 1.0
C      1  0.5246900000000  0.5014210000000  0.4837890000000 1.0
C      1  0.4418210000000  0.5334130000000  0.4688230000000 1.0
C      1  0.5569970000000  0.4647140000000  0.5318970000000 1.0
C      1  0.4571560000000  0.5563600000000  0.5357380000000 1.0
C      1  0.5458600000000  0.5639560000000  0.5215880000000 1.0
C      1  0.4925950000000  0.5404970000000  0.5679960000000 1.0
C      1  0.5657370000000  0.5476480000000  0.5089950000000 1.0
C      1  0.4585270000000  0.4475050000000  0.4404880000000 1.0
C      1  0.5552000000000  0.4674880000000  0.4561520000000 1.0
C      1  0.5389610000000  0.5455080000000  0.4679810000000 1.0
C      1  0.5632150000000  0.4952550000000  0.4552450000000 1.0
C      1  0.4303500000000  0.4988420000000  0.4995330000000 1.0
C      1  0.4529480000000  0.5153790000000  0.5642070000000 1.0
C      1  0.5644830000000  0.4880200000000  0.5454010000000 1.0
C      1  0.4650960000000  0.5416500000000  0.5595440000000 1.0
C      1  0.5329830000000  0.4646670000000  0.4376820000000 1.0
C      1  0.4364380000000  0.4859080000000  0.4529750000000 1.0
C      1  0.4357270000000  0.4541970000000  0.4953920000000 1.0
C      1  0.5790450000000  0.4929600000000  0.5003370000000 1.0
C      1  0.5733560000000  0.5097890000000  0.4776470000000 1.0
C      1  0.5316000000000  0.5336120000000  0.4432140000000 1.0
C      1  0.4987750000000  0.5049140000000  0.4727980000000 1.0
C      1  0.5476390000000  0.5044190000000  0.5622910000000 1.0
C      1  0.5631860000000  0.5372080000000  0.4822820000000 1.0
C      1  0.4731810000000  0.4954970000000  0.4219580000000 1.0
C      1  0.5124810000000  0.4489170000000  0.4443000000000 1.0
C      1  0.4720970000000  0.4819230000000  0.5256360000000 1.0
C      1  0.4281260000000  0.4775520000000  0.4792540000000 1.0
C      1  0.5512670000000  0.4550870000000  0.4834880000000 1.0
C      1  0.4683170000000  0.5492880000000  0.4638980000000 1.0
C      1  0.5379170000000  0.4300850000000  0.4931200000000 1.0
C      1  0.5554020000000  0.5317490000000  0.5534250000000 1.0
C      1  0.4820550000000  0.4844840000000  0.4818620000000 1.0
C      1  0.4762300000000  0.4370650000000  0.5089520000000 1.0
C      1  0.4393700000000  0.5140770000000  0.4488290000000 1.0
END
