TITL C-18087-6009-2 -0.105323074927921 125000 -637.511786413551 0 0 92 (C1) n - 1
REM
REM in /rds/project/t2_vol4/rds-t2-cs072/BORA/CARBON/from-Arr/AIRSS/Generating-Clusters/GAP-ML-2020/Only-C1/SD-CG/HFTN-CG
REM
REM
REM
REM
REM
REM ./C.cell (11c1c37f851c82e70ff6c80c92926a4b)
REM AIRSS Version 0.9.1 bugfix July 2018 build 013d7b7c2542+ Fri, 06 Jul 2018 19:26:36 +0100
REM compiler GCC version 9.3.0
REM options -cpp -mtune=generic -march=x86-64 -g -O0
REM seed 827012749 -1480644973 1245447224 1549178028 -212002699 776101887 -900878492 -172671246 1676418982 -1026208229 -1116638654 -2068043423 1904361417 1328434997 1966477430 -2008072446 414555253 -1143930588 -1726029138 1055006843 1017582827 -1495491337 792851623 964829764 1565560281 606858609 603306343 1585792501 74791893 1915525811 899246351 775106810 -1069303739
REM
CELL 1.54180   50.00000   50.00000   50.00000   90.00000   90.00000   90.00000
LATT -1
SFAC C  
C      1  0.4732400000000  0.5322780000000  0.4357380000000 1.0
C      1  0.5646040000000  0.5083600000000  0.4391290000000 1.0
C      1  0.4209290000000  0.4776640000000  0.5324320000000 1.0
C      1  0.5358380000000  0.4742660000000  0.4200450000000 1.0
C      1  0.5236210000000  0.4746190000000  0.5029240000000 1.0
C      1  0.5256250000000  0.4151000000000  0.4913350000000 1.0
C      1  0.5195920000000  0.5194250000000  0.4208610000000 1.0
C      1  0.5370290000000  0.4806220000000  0.5499830000000 1.0
C      1  0.5492940000000  0.4747570000000  0.5225920000000 1.0
C      1  0.4911100000000  0.5092290000000  0.5231590000000 1.0
C      1  0.5605120000000  0.5555360000000  0.4684630000000 1.0
C      1  0.4537190000000  0.4641260000000  0.5701920000000 1.0
C      1  0.5537430000000  0.5471700000000  0.5345590000000 1.0
C      1  0.4725740000000  0.5559850000000  0.5498420000000 1.0
C      1  0.5439940000000  0.5637170000000  0.5568870000000 1.0
C      1  0.5489780000000  0.4331260000000  0.4909100000000 1.0
C      1  0.5460250000000  0.5275170000000  0.4294870000000 1.0
C      1  0.4835980000000  0.4534090000000  0.4926360000000 1.0
C      1  0.4997710000000  0.4488240000000  0.4670120000000 1.0
C      1  0.5499470000000  0.4517980000000  0.4688820000000 1.0
C      1  0.4324860000000  0.5230950000000  0.5333290000000 1.0
C      1  0.4765830000000  0.4114250000000  0.4862140000000 1.0
C      1  0.5096150000000  0.5647840000000  0.5149870000000 1.0
C      1  0.4893220000000  0.4110430000000  0.5286320000000 1.0
C      1  0.4667870000000  0.4994040000000  0.4792460000000 1.0
C      1  0.5648840000000  0.5580080000000  0.5096390000000 1.0
C      1  0.5173960000000  0.5645390000000  0.5628940000000 1.0
C      1  0.4683250000000  0.5715180000000  0.4914870000000 1.0
C      1  0.4625810000000  0.5523520000000  0.4541960000000 1.0
C      1  0.4580920000000  0.4351460000000  0.4838590000000 1.0
C      1  0.5437850000000  0.5499420000000  0.4466410000000 1.0
C      1  0.5073740000000  0.5426580000000  0.5786010000000 1.0
C      1  0.5276380000000  0.5249810000000  0.4942820000000 1.0
C      1  0.4494880000000  0.4943230000000  0.4551100000000 1.0
C      1  0.5272320000000  0.5406700000000  0.5211340000000 1.0
C      1  0.5010410000000  0.5380540000000  0.4306350000000 1.0
C      1  0.4747130000000  0.5079390000000  0.5754880000000 1.0
C      1  0.4511700000000  0.4914460000000  0.5695320000000 1.0
C      1  0.5214310000000  0.5794640000000  0.4903640000000 1.0
C      1  0.5189220000000  0.4927060000000  0.4594880000000 1.0
C      1  0.5441540000000  0.5061250000000  0.5591670000000 1.0
C      1  0.5237870000000  0.4656780000000  0.4720280000000 1.0
C      1  0.4725810000000  0.5309510000000  0.5129340000000 1.0
C      1  0.4783050000000  0.4343230000000  0.5437790000000 1.0
C      1  0.5105810000000  0.4738740000000  0.5596810000000 1.0
C      1  0.5751380000000  0.5401420000000  0.4903730000000 1.0
C      1  0.4170090000000  0.4875050000000  0.5056500000000 1.0
C      1  0.4459800000000  0.5470270000000  0.4787270000000 1.0
C      1  0.5773090000000  0.5120290000000  0.4944000000000 1.0
C      1  0.5026460000000  0.4195880000000  0.4748080000000 1.0
C      1  0.5073680000000  0.4529110000000  0.5152860000000 1.0
C      1  0.4779970000000  0.3955660000000  0.5087130000000 1.0
C      1  0.5687690000000  0.4999060000000  0.4688030000000 1.0
C      1  0.4232850000000  0.4674370000000  0.4860910000000 1.0
C      1  0.5410500000000  0.5093980000000  0.4706070000000 1.0
C      1  0.5298460000000  0.4331060000000  0.5291390000000 1.0
C      1  0.4933110000000  0.4604480000000  0.5397490000000 1.0
C      1  0.5007960000000  0.4958890000000  0.5756860000000 1.0
C      1  0.4796790000000  0.5372370000000  0.5715480000000 1.0
C      1  0.5099630000000  0.5014960000000  0.5020870000000 1.0
C      1  0.4321440000000  0.4517550000000  0.5298010000000 1.0
C      1  0.4762620000000  0.4841510000000  0.5268160000000 1.0
C      1  0.4343420000000  0.4456660000000  0.5006560000000 1.0
C      1  0.5173370000000  0.4102090000000  0.5201070000000 1.0
C      1  0.4361120000000  0.4700240000000  0.4601320000000 1.0
C      1  0.4280550000000  0.5131610000000  0.5067510000000 1.0
C      1  0.4447470000000  0.5632890000000  0.5032020000000 1.0
C      1  0.5113540000000  0.5234290000000  0.5386930000000 1.0
C      1  0.4806090000000  0.4576800000000  0.4458380000000 1.0
C      1  0.4890310000000  0.5511910000000  0.4994430000000 1.0
C      1  0.4554390000000  0.4493510000000  0.4574730000000 1.0
C      1  0.5672360000000  0.4711770000000  0.4585720000000 1.0
C      1  0.4518590000000  0.5469810000000  0.5292370000000 1.0
C      1  0.5675710000000  0.5001690000000  0.5195000000000 1.0
C      1  0.5044030000000  0.5358530000000  0.4783390000000 1.0
C      1  0.5152720000000  0.5543550000000  0.4508720000000 1.0
C      1  0.4962640000000  0.5064930000000  0.4751700000000 1.0
C      1  0.4522690000000  0.5213860000000  0.4917220000000 1.0
C      1  0.4693540000000  0.4777630000000  0.4999360000000 1.0
C      1  0.5060720000000  0.5780490000000  0.4653670000000 1.0
C      1  0.5529530000000  0.4439930000000  0.5174080000000 1.0
C      1  0.4309850000000  0.4992260000000  0.5495060000000 1.0
C      1  0.4970300000000  0.5700960000000  0.5424680000000 1.0
C      1  0.5198240000000  0.5171630000000  0.5713360000000 1.0
C      1  0.5586430000000  0.4806740000000  0.4328180000000 1.0
C      1  0.5483270000000  0.5716820000000  0.4890670000000 1.0
C      1  0.4845220000000  0.4816290000000  0.4297870000000 1.0
C      1  0.4774080000000  0.5754690000000  0.4651130000000 1.0
C      1  0.5131970000000  0.4905130000000  0.4278890000000 1.0
C      1  0.4656860000000  0.5036570000000  0.4338170000000 1.0
C      1  0.4517930000000  0.4441970000000  0.5506550000000 1.0
C      1  0.5617380000000  0.5179070000000  0.5404280000000 1.0
END
