TITL C-18103-8347-5 -1.00863255147525 125000 -64.9571327238978 0 0 11 (C1) n - 1
REM
REM in /rds/project/t2_vol4/rds-t2-cs072/BORA/CARBON/from-Arr/AIRSS/Generating-Clusters/GAP-ML-2020/Only-C1/SD-CG/HFTN-CG
REM
REM
REM
REM
REM
REM ./C.cell (11c1c37f851c82e70ff6c80c92926a4b)
REM AIRSS Version 0.9.1 bugfix July 2018 build 013d7b7c2542+ Fri, 06 Jul 2018 19:26:36 +0100
REM compiler GCC version 9.3.0
REM options -cpp -mtune=generic -march=x86-64 -g -O0
REM seed 302335468 179808784 -1018516838 -2080262730 912916332 -1800617994 -1863271188 2041526067 139402423 1092273118 500939344 -1920381141 -1048018494 -759729883 -1695754597 -203384595 -826597256 -980520078 1021304932 249320118 -844416096 -1484911711 -1694652484 -396514969 -2093912471 1664311161 -249232192 2139296831 -10551313 -1251387141 -1074004288 -2131273558 -1611857915
REM
CELL 1.54180   50.00000   50.00000   50.00000   90.00000   90.00000   90.00000
LATT -1
SFAC C  
C      1  0.5426120000000  0.5141430000000  0.5285550000000 1.0
C      1  0.4701850000000  0.4755080000000  0.4481290000000 1.0
C      1  0.5104970000000  0.4890810000000  0.4747230000000 1.0
C      1  0.5332920000000  0.4880190000000  0.4851150000000 1.0
C      1  0.4721860000000  0.5415510000000  0.5258050000000 1.0
C      1  0.4909050000000  0.4939590000000  0.5255900000000 1.0
C      1  0.4775870000000  0.5172620000000  0.5136130000000 1.0
C      1  0.4720180000000  0.5107550000000  0.4865710000000 1.0
C      1  0.5413200000000  0.5020360000000  0.5064780000000 1.0
C      1  0.4829930000000  0.4910670000000  0.4691120000000 1.0
C      1  0.5064050000000  0.4766190000000  0.5363100000000 1.0
END
