TITL C-18080-7032-5 -29.3475856625446 125000 -667.041865140893 0 0 96 (C1) n - 1
REM
REM in /rds/project/t2_vol4/rds-t2-cs072/BORA/CARBON/from-Arr/AIRSS/Generating-Clusters/GAP-ML-2020/Only-C1/SD-CG/HFTN-CG
REM
REM
REM
REM
REM
REM ./C.cell (11c1c37f851c82e70ff6c80c92926a4b)
REM AIRSS Version 0.9.1 bugfix July 2018 build 013d7b7c2542+ Fri, 06 Jul 2018 19:26:36 +0100
REM compiler GCC version 9.3.0
REM options -cpp -mtune=generic -march=x86-64 -g -O0
REM seed 51522181 -1090506308 -343820141 -328899988 862928488 7678250 -28035552 -1360377199 -2139451574 1224756354 1126649969 693761816 -299419362 -558215984 793520205 20305101 -1063715994 1044003579 1267524704 1750014782 -2784332 2076498174 1773470325 1669106428 -2077391926 -1378860748 -2026696209 -2064443383 -1151250082 -2027548667 -1516477418 -211699109 783230479
REM
CELL 1.54180   50.00000   50.00000   50.00000   90.00000   90.00000   90.00000
LATT -1
SFAC C  
C      1  0.4637500000000  0.5273300000000  0.4289810000000 1.0
C      1  0.5223870000000  0.5468760000000  0.5682830000000 1.0
C      1  0.5569590000000  0.4611460000000  0.5529280000000 1.0
C      1  0.4850680000000  0.4046010000000  0.4971220000000 1.0
C      1  0.4387680000000  0.4999670000000  0.5590330000000 1.0
C      1  0.5382100000000  0.5597420000000  0.5159890000000 1.0
C      1  0.4514790000000  0.5883470000000  0.4965540000000 1.0
C      1  0.4200140000000  0.5323450000000  0.4896940000000 1.0
C      1  0.5620660000000  0.4478080000000  0.5051360000000 1.0
C      1  0.4677740000000  0.4120380000000  0.5140040000000 1.0
C      1  0.5512760000000  0.5567620000000  0.4656110000000 1.0
C      1  0.4782410000000  0.5628430000000  0.5600000000000 1.0
C      1  0.4785500000000  0.4475630000000  0.5473950000000 1.0
C      1  0.4264460000000  0.5595600000000  0.4818620000000 1.0
C      1  0.4354630000000  0.4829260000000  0.5095700000000 1.0
C      1  0.4750670000000  0.5399570000000  0.5768880000000 1.0
C      1  0.4877590000000  0.4766310000000  0.5388810000000 1.0
C      1  0.5428690000000  0.5316010000000  0.5540110000000 1.0
C      1  0.5013380000000  0.5356970000000  0.5826450000000 1.0
C      1  0.4955140000000  0.4647990000000  0.4221410000000 1.0
C      1  0.5476800000000  0.5645440000000  0.4390270000000 1.0
C      1  0.4958030000000  0.5226710000000  0.5374280000000 1.0
C      1  0.4621000000000  0.5624250000000  0.5346910000000 1.0
C      1  0.5069370000000  0.5670050000000  0.5543280000000 1.0
C      1  0.4839050000000  0.5473780000000  0.4355110000000 1.0
C      1  0.5034320000000  0.5188350000000  0.4637140000000 1.0
C      1  0.5185630000000  0.4676540000000  0.5802100000000 1.0
C      1  0.4552430000000  0.4839400000000  0.4492690000000 1.0
C      1  0.5040700000000  0.4311550000000  0.5512940000000 1.0
C      1  0.4750130000000  0.4806360000000  0.4719440000000 1.0
C      1  0.5422800000000  0.4270650000000  0.5091680000000 1.0
C      1  0.5297070000000  0.4248170000000  0.5349600000000 1.0
C      1  0.5321090000000  0.4199040000000  0.4825580000000 1.0
C      1  0.5593940000000  0.5180050000000  0.4433970000000 1.0
C      1  0.4743600000000  0.5197640000000  0.5007160000000 1.0
C      1  0.4708900000000  0.5838990000000  0.5160630000000 1.0
C      1  0.4353530000000  0.4673530000000  0.4651250000000 1.0
C      1  0.5166260000000  0.5730290000000  0.5282810000000 1.0
C      1  0.5207430000000  0.5235850000000  0.4885060000000 1.0
C      1  0.5204230000000  0.4404230000000  0.5728470000000 1.0
C      1  0.4584540000000  0.4354240000000  0.5277410000000 1.0
C      1  0.4761440000000  0.5060950000000  0.4143780000000 1.0
C      1  0.4223850000000  0.4860120000000  0.4815530000000 1.0
C      1  0.4429240000000  0.4525510000000  0.5097980000000 1.0
C      1  0.5446670000000  0.4368320000000  0.5564730000000 1.0
C      1  0.5468950000000  0.4356070000000  0.4633050000000 1.0
C      1  0.5030440000000  0.5691130000000  0.4830750000000 1.0
C      1  0.4977110000000  0.5809380000000  0.5082010000000 1.0
C      1  0.4926000000000  0.4330090000000  0.4602350000000 1.0
C      1  0.4752990000000  0.5294590000000  0.4723230000000 1.0
C      1  0.4793580000000  0.4521010000000  0.4784110000000 1.0
C      1  0.5420620000000  0.5034980000000  0.5519200000000 1.0
C      1  0.5630030000000  0.4703800000000  0.5246890000000 1.0
C      1  0.5744070000000  0.5231420000000  0.5159750000000 1.0
C      1  0.4510650000000  0.5150990000000  0.4536550000000 1.0
C      1  0.5801380000000  0.4933220000000  0.5154870000000 1.0
C      1  0.5390720000000  0.5385330000000  0.4327060000000 1.0
C      1  0.5375470000000  0.4999060000000  0.4933670000000 1.0
C      1  0.5750380000000  0.4772450000000  0.4668530000000 1.0
C      1  0.5012530000000  0.4908820000000  0.4639820000000 1.0
C      1  0.5819180000000  0.5228290000000  0.4878870000000 1.0
C      1  0.5070930000000  0.4812600000000  0.5191600000000 1.0
C      1  0.4531620000000  0.5723390000000  0.4725390000000 1.0
C      1  0.4866260000000  0.5002150000000  0.5564340000000 1.0
C      1  0.5660830000000  0.4520530000000  0.4771810000000 1.0
C      1  0.4789340000000  0.5589720000000  0.4649120000000 1.0
C      1  0.4232010000000  0.5290930000000  0.5194320000000 1.0
C      1  0.5214980000000  0.4783580000000  0.4795340000000 1.0
C      1  0.5611870000000  0.4892520000000  0.4435820000000 1.0
C      1  0.4255110000000  0.5125270000000  0.4708430000000 1.0
C      1  0.5347420000000  0.4470820000000  0.4401500000000 1.0
C      1  0.4269120000000  0.5746530000000  0.5059560000000 1.0
C      1  0.4491470000000  0.4488200000000  0.4828300000000 1.0
C      1  0.4930430000000  0.4794870000000  0.5796380000000 1.0
C      1  0.4462860000000  0.4764650000000  0.5717840000000 1.0
C      1  0.5054930000000  0.4622560000000  0.4972940000000 1.0
C      1  0.4330540000000  0.5564760000000  0.5266690000000 1.0
C      1  0.5419510000000  0.4801790000000  0.5684630000000 1.0
C      1  0.5061120000000  0.4434420000000  0.4378710000000 1.0
C      1  0.5024520000000  0.5128070000000  0.5110710000000 1.0
C      1  0.5097160000000  0.5312250000000  0.4337570000000 1.0
C      1  0.5046350000000  0.5090220000000  0.4149520000000 1.0
C      1  0.5371800000000  0.4894750000000  0.5234160000000 1.0
C      1  0.4686130000000  0.4619740000000  0.5745430000000 1.0
C      1  0.5044210000000  0.4131600000000  0.4776310000000 1.0
C      1  0.5171930000000  0.4831380000000  0.4169350000000 1.0
C      1  0.4706000000000  0.4797980000000  0.4240380000000 1.0
C      1  0.5552050000000  0.5406400000000  0.5295430000000 1.0
C      1  0.5296460000000  0.5546660000000  0.4873680000000 1.0
C      1  0.5416010000000  0.4733010000000  0.4297040000000 1.0
C      1  0.5857990000000  0.4939130000000  0.4871770000000 1.0
C      1  0.4719440000000  0.5347600000000  0.5258360000000 1.0
C      1  0.4628330000000  0.5149260000000  0.5676100000000 1.0
C      1  0.4626350000000  0.4933690000000  0.4970560000000 1.0
C      1  0.4274720000000  0.5029880000000  0.5315250000000 1.0
C      1  0.5694040000000  0.5333030000000  0.4657900000000 1.0
END
