TITL C-184281-2503-1 -0.0587747189876282 125000 -278.149443861536 0 0 41 (C1) n - 1
REM
REM in /rds/project/t2_vol4/rds-t2-cs072/BORA/CARBON/from-Arr/AIRSS/Generating-Clusters/GAP-ML-2020/Only-C1/SD-CG/HFTN-CG
REM
REM
REM
REM
REM
REM ./C.cell (11c1c37f851c82e70ff6c80c92926a4b)
REM AIRSS Version 0.9.1 bugfix July 2018 build 013d7b7c2542+ Fri, 06 Jul 2018 19:26:36 +0100
REM compiler GCC version 9.3.0
REM options -cpp -mtune=generic -march=x86-64 -g -O0
REM seed 326091043 -86863409 614069560 -294002482 -1750174920 237602953 -319212733 -1159908086 -1529183302 916784535 1158612495 1107392917 190836523 -391876504 1624018880 -218126268 1444385337 317602493 -1690914465 611612260 -1767603555 600754268 -375611436 -1470580105 33244942 -2095041649 -971664387 -402037614 161820821 -201688220 -2081275494 -20000446 2020295883
REM
CELL 1.54180   50.00000   50.00000   50.00000   90.00000   90.00000   90.00000
LATT -1
SFAC C  
C      1  0.4739110000000  0.5426080000000  0.4814970000000 1.0
C      1  0.4921620000000  0.5370140000000  0.5294920000000 1.0
C      1  0.4725160000000  0.4953620000000  0.4573310000000 1.0
C      1  0.5171390000000  0.5489810000000  0.5245450000000 1.0
C      1  0.5583890000000  0.4983350000000  0.5218500000000 1.0
C      1  0.4458590000000  0.5051430000000  0.5338710000000 1.0
C      1  0.4352660000000  0.4877950000000  0.5121740000000 1.0
C      1  0.5184110000000  0.4976890000000  0.5473320000000 1.0
C      1  0.5211860000000  0.4733500000000  0.5318710000000 1.0
C      1  0.4468070000000  0.5266390000000  0.5159640000000 1.0
C      1  0.4970660000000  0.4556540000000  0.5269610000000 1.0
C      1  0.4695870000000  0.4939060000000  0.5441720000000 1.0
C      1  0.5246360000000  0.5442520000000  0.4730920000000 1.0
C      1  0.5419980000000  0.5393850000000  0.5362810000000 1.0
C      1  0.5452650000000  0.4864840000000  0.4682110000000 1.0
C      1  0.4517010000000  0.5128550000000  0.4690170000000 1.0
C      1  0.5607340000000  0.5106550000000  0.4745920000000 1.0
C      1  0.5256380000000  0.5026700000000  0.4525310000000 1.0
C      1  0.5564030000000  0.5431990000000  0.5103670000000 1.0
C      1  0.4927650000000  0.5112510000000  0.5460770000000 1.0
C      1  0.4828460000000  0.4966150000000  0.5015760000000 1.0
C      1  0.5039430000000  0.4770010000000  0.5052550000000 1.0
C      1  0.4702880000000  0.5409750000000  0.5107030000000 1.0
C      1  0.5152190000000  0.4542730000000  0.4860590000000 1.0
C      1  0.4979380000000  0.5100920000000  0.4541430000000 1.0
C      1  0.4706110000000  0.4684260000000  0.4642090000000 1.0
C      1  0.5662900000000  0.5177670000000  0.5016230000000 1.0
C      1  0.4934950000000  0.4499250000000  0.4666410000000 1.0
C      1  0.4980760000000  0.5362610000000  0.4670110000000 1.0
C      1  0.4708380000000  0.4662170000000  0.5337130000000 1.0
C      1  0.4507710000000  0.4646650000000  0.5120790000000 1.0
C      1  0.4524710000000  0.5396740000000  0.4645790000000 1.0
C      1  0.5424050000000  0.5267680000000  0.4592670000000 1.0
C      1  0.5415880000000  0.4660970000000  0.4873330000000 1.0
C      1  0.5322830000000  0.5538180000000  0.4987000000000 1.0
C      1  0.5462880000000  0.4738280000000  0.5158100000000 1.0
C      1  0.4579990000000  0.4536500000000  0.4865780000000 1.0
C      1  0.5008540000000  0.4358380000000  0.5053270000000 1.0
C      1  0.5422970000000  0.5122860000000  0.5420520000000 1.0
C      1  0.4372690000000  0.5090140000000  0.4934570000000 1.0
C      1  0.4787960000000  0.4335820000000  0.4866580000000 1.0
END
