TITL C-18097-6057-4 -220.691616564586 125000 -719.363607697236 0 0 103 (C1) n - 1
REM
REM in /rds/project/t2_vol4/rds-t2-cs072/BORA/CARBON/from-Arr/AIRSS/Generating-Clusters/GAP-ML-2020/Only-C1/SD-CG/HFTN-CG
REM
REM
REM
REM
REM
REM ./C.cell (11c1c37f851c82e70ff6c80c92926a4b)
REM AIRSS Version 0.9.1 bugfix July 2018 build 013d7b7c2542+ Fri, 06 Jul 2018 19:26:36 +0100
REM compiler GCC version 9.3.0
REM options -cpp -mtune=generic -march=x86-64 -g -O0
REM seed 1169586252 -1098093742 1749965999 -1252994386 853780193 1539037796 1958492998 -1278863044 675424061 -685837386 -1629794617 -1104547337 904363540 1899570192 -752759936 -764568721 -2116648251 1421953515 -344792614 -629034062 -1779377509 1713898202 1710024946 1499336745 -1808844665 -521048945 -1158100155 498449809 1496423470 1634968856 -1859244047 -1924012241 -1410472217
REM
CELL 1.54180   50.00000   50.00000   50.00000   90.00000   90.00000   90.00000
LATT -1
SFAC C  
C      1  0.5548040000000  0.4692340000000  0.4534500000000 1.0
C      1  0.4436410000000  0.4388450000000  0.4961820000000 1.0
C      1  0.5247730000000  0.4384440000000  0.5496430000000 1.0
C      1  0.5528390000000  0.4350970000000  0.4865900000000 1.0
C      1  0.5501760000000  0.5444730000000  0.5828970000000 1.0
C      1  0.5571920000000  0.5215950000000  0.5700380000000 1.0
C      1  0.4778390000000  0.5819650000000  0.4466360000000 1.0
C      1  0.4825500000000  0.5066910000000  0.4455100000000 1.0
C      1  0.4764920000000  0.5354760000000  0.4517330000000 1.0
C      1  0.5072670000000  0.5244000000000  0.5486420000000 1.0
C      1  0.5371440000000  0.5024600000000  0.5211140000000 1.0
C      1  0.4820490000000  0.4171890000000  0.4723820000000 1.0
C      1  0.4397740000000  0.5104830000000  0.4360810000000 1.0
C      1  0.4678040000000  0.4790460000000  0.4929270000000 1.0
C      1  0.5244350000000  0.5531810000000  0.5761720000000 1.0
C      1  0.4492140000000  0.5663710000000  0.5330060000000 1.0
C      1  0.4655080000000  0.5797470000000  0.4707010000000 1.0
C      1  0.4929040000000  0.4691830000000  0.4776600000000 1.0
C      1  0.4571450000000  0.5182310000000  0.5648890000000 1.0
C      1  0.5064540000000  0.5736950000000  0.5058080000000 1.0
C      1  0.4474450000000  0.5364730000000  0.4436670000000 1.0
C      1  0.5027210000000  0.4224990000000  0.5413860000000 1.0
C      1  0.5386820000000  0.4223800000000  0.5090320000000 1.0
C      1  0.5667160000000  0.4577690000000  0.5270870000000 1.0
C      1  0.4395870000000  0.5695400000000  0.4783510000000 1.0
C      1  0.4942210000000  0.5594440000000  0.4423790000000 1.0
C      1  0.5131720000000  0.4695280000000  0.5001190000000 1.0
C      1  0.5782830000000  0.5063890000000  0.4807720000000 1.0
C      1  0.5144100000000  0.4444300000000  0.4198810000000 1.0
C      1  0.5356990000000  0.4886580000000  0.4946400000000 1.0
C      1  0.5685050000000  0.4565130000000  0.4977950000000 1.0
C      1  0.4503210000000  0.4665290000000  0.4430110000000 1.0
C      1  0.5384610000000  0.5255660000000  0.4620240000000 1.0
C      1  0.5191530000000  0.4362790000000  0.4461120000000 1.0
C      1  0.4853810000000  0.4509480000000  0.4163380000000 1.0
C      1  0.5322740000000  0.5073560000000  0.4186100000000 1.0
C      1  0.4840650000000  0.4791520000000  0.4119130000000 1.0
C      1  0.5699470000000  0.5543470000000  0.4641990000000 1.0
C      1  0.5004370000000  0.4770130000000  0.5252590000000 1.0
C      1  0.4729600000000  0.4711780000000  0.5775800000000 1.0
C      1  0.4158850000000  0.5488590000000  0.5150600000000 1.0
C      1  0.5442880000000  0.4427460000000  0.4594050000000 1.0
C      1  0.4219820000000  0.5042650000000  0.5253840000000 1.0
C      1  0.5401700000000  0.5564100000000  0.4700890000000 1.0
C      1  0.4811090000000  0.5367040000000  0.5608530000000 1.0
C      1  0.5661020000000  0.4808910000000  0.5446820000000 1.0
C      1  0.4341820000000  0.5206710000000  0.5475110000000 1.0
C      1  0.4669030000000  0.4335360000000  0.5144150000000 1.0
C      1  0.4342120000000  0.5688730000000  0.5062080000000 1.0
C      1  0.4990690000000  0.5174880000000  0.4966220000000 1.0
C      1  0.4597870000000  0.4180110000000  0.4540350000000 1.0
C      1  0.4837980000000  0.5665230000000  0.4896710000000 1.0
C      1  0.4297800000000  0.5466290000000  0.4637830000000 1.0
C      1  0.6077300000000  0.5569210000000  0.4895990000000 1.0
C      1  0.4733450000000  0.5084160000000  0.6075940000000 1.0
C      1  0.5016710000000  0.4916690000000  0.4605650000000 1.0
C      1  0.4306500000000  0.4738340000000  0.4632450000000 1.0
C      1  0.5197560000000  0.5068870000000  0.4772470000000 1.0
C      1  0.5426450000000  0.5497140000000  0.5230930000000 1.0
C      1  0.5099880000000  0.4142860000000  0.5148480000000 1.0
C      1  0.5679160000000  0.5247580000000  0.4621790000000 1.0
C      1  0.5382270000000  0.4858240000000  0.5490540000000 1.0
C      1  0.5160410000000  0.4665360000000  0.5518480000000 1.0
C      1  0.4775340000000  0.5366190000000  0.4837130000000 1.0
C      1  0.5066330000000  0.5080640000000  0.5237240000000 1.0
C      1  0.5115580000000  0.4890940000000  0.4070240000000 1.0
C      1  0.5302750000000  0.5078050000000  0.5665650000000 1.0
C      1  0.4715410000000  0.5100920000000  0.4954630000000 1.0
C      1  0.4486660000000  0.4669280000000  0.5370640000000 1.0
C      1  0.4988600000000  0.5433180000000  0.5856480000000 1.0
C      1  0.5010770000000  0.4746610000000  0.5766080000000 1.0
C      1  0.5721970000000  0.5102950000000  0.5481060000000 1.0
C      1  0.5827210000000  0.5207850000000  0.5055600000000 1.0
C      1  0.6037870000000  0.5385560000000  0.5070220000000 1.0
C      1  0.4291920000000  0.5472110000000  0.5407850000000 1.0
C      1  0.5291760000000  0.4665340000000  0.4122930000000 1.0
C      1  0.5470240000000  0.4822010000000  0.4288740000000 1.0
C      1  0.4231550000000  0.5008100000000  0.4570050000000 1.0
C      1  0.5480460000000  0.4360490000000  0.5327130000000 1.0
C      1  0.4375660000000  0.4671640000000  0.4919520000000 1.0
C      1  0.4283090000000  0.4772570000000  0.5201040000000 1.0
C      1  0.5593150000000  0.5235350000000  0.5242350000000 1.0
C      1  0.4852360000000  0.4152910000000  0.5003460000000 1.0
C      1  0.5217630000000  0.5521880000000  0.5443860000000 1.0
C      1  0.5010080000000  0.5688070000000  0.5332470000000 1.0
C      1  0.4617110000000  0.4974890000000  0.5848770000000 1.0
C      1  0.4729530000000  0.4665570000000  0.5193880000000 1.0
C      1  0.5935030000000  0.5671100000000  0.4690100000000 1.0
C      1  0.4683860000000  0.4436760000000  0.4393930000000 1.0
C      1  0.4612290000000  0.4527380000000  0.5587200000000 1.0
C      1  0.4755890000000  0.5608890000000  0.5434190000000 1.0
C      1  0.5224720000000  0.5561570000000  0.4429980000000 1.0
C      1  0.5133580000000  0.4979630000000  0.5880230000000 1.0
C      1  0.4129950000000  0.5232500000000  0.5040500000000 1.0
C      1  0.4932260000000  0.4420450000000  0.4609450000000 1.0
C      1  0.4620390000000  0.4909410000000  0.4304510000000 1.0
C      1  0.5327570000000  0.5630610000000  0.4994150000000 1.0
C      1  0.4973410000000  0.5180850000000  0.6007200000000 1.0
C      1  0.4166380000000  0.5231250000000  0.4751050000000 1.0
C      1  0.5636860000000  0.4806610000000  0.4801600000000 1.0
C      1  0.4748940000000  0.4313090000000  0.5438350000000 1.0
C      1  0.4433570000000  0.4226710000000  0.4744930000000 1.0
C      1  0.5315480000000  0.5307640000000  0.4333580000000 1.0
END
