TITL C-184268-2664-1 -0.157275580950796 125000 -588.597282663752 0 0 84 (C1) n - 1
REM
REM in /rds/project/t2_vol4/rds-t2-cs072/BORA/CARBON/from-Arr/AIRSS/Generating-Clusters/GAP-ML-2020/Only-C1/SD-CG/HFTN-CG
REM
REM
REM
REM
REM
REM ./C.cell (11c1c37f851c82e70ff6c80c92926a4b)
REM AIRSS Version 0.9.1 bugfix July 2018 build 013d7b7c2542+ Fri, 06 Jul 2018 19:26:36 +0100
REM compiler GCC version 9.3.0
REM options -cpp -mtune=generic -march=x86-64 -g -O0
REM seed -1160178300 343596870 1949543033 -113990797 1368843189 -50223199 -1540686132 190688851 1427991143 -161095138 1507795064 935064978 550258918 -1704723802 -731451947 2063316530 -891777190 2119493147 1134967543 -942398478 -1766848556 355996720 672332928 524608807 456606053 -940048961 -1042731020 1124978281 1493190229 675607434 -632910243 -2040738525 454232406
REM
CELL 1.54180   50.00000   50.00000   50.00000   90.00000   90.00000   90.00000
LATT -1
SFAC C  
C      1  0.4686290000000  0.5664380000000  0.5184980000000 1.0
C      1  0.5056800000000  0.5009510000000  0.4247340000000 1.0
C      1  0.5686210000000  0.5114440000000  0.5116910000000 1.0
C      1  0.5097440000000  0.4199890000000  0.5009030000000 1.0
C      1  0.5342830000000  0.5684330000000  0.4848230000000 1.0
C      1  0.4351280000000  0.4726230000000  0.5395910000000 1.0
C      1  0.4770680000000  0.5459970000000  0.4425010000000 1.0
C      1  0.5197340000000  0.4771450000000  0.4323370000000 1.0
C      1  0.5456370000000  0.4963640000000  0.4982480000000 1.0
C      1  0.5242290000000  0.5639030000000  0.5311750000000 1.0
C      1  0.4566520000000  0.4993190000000  0.5714440000000 1.0
C      1  0.4511550000000  0.4700330000000  0.4579940000000 1.0
C      1  0.5321170000000  0.5164250000000  0.4805580000000 1.0
C      1  0.5184280000000  0.5257210000000  0.4271520000000 1.0
C      1  0.5054490000000  0.5478070000000  0.4405610000000 1.0
C      1  0.5368880000000  0.4269590000000  0.4947150000000 1.0
C      1  0.5005620000000  0.4767590000000  0.4867730000000 1.0
C      1  0.5081200000000  0.4362590000000  0.4576390000000 1.0
C      1  0.5268240000000  0.5616110000000  0.4566170000000 1.0
C      1  0.4309380000000  0.4892640000000  0.4534750000000 1.0
C      1  0.4891470000000  0.5782800000000  0.5024710000000 1.0
C      1  0.5353990000000  0.4372660000000  0.4675560000000 1.0
C      1  0.5521510000000  0.4966970000000  0.5655780000000 1.0
C      1  0.5926180000000  0.5064020000000  0.4847560000000 1.0
C      1  0.5377370000000  0.5382120000000  0.5338820000000 1.0
C      1  0.5518560000000  0.4596970000000  0.4631270000000 1.0
C      1  0.4706690000000  0.5486150000000  0.5410900000000 1.0
C      1  0.4736760000000  0.4717100000000  0.4406700000000 1.0
C      1  0.5234060000000  0.4915290000000  0.5196410000000 1.0
C      1  0.4865870000000  0.5225690000000  0.5397980000000 1.0
C      1  0.4530390000000  0.4721850000000  0.5627300000000 1.0
C      1  0.5280540000000  0.4587780000000  0.5676840000000 1.0
C      1  0.4374740000000  0.5151140000000  0.5583920000000 1.0
C      1  0.5104370000000  0.4389910000000  0.5252360000000 1.0
C      1  0.5036820000000  0.4700310000000  0.5144070000000 1.0
C      1  0.4466670000000  0.4755760000000  0.4900190000000 1.0
C      1  0.5073420000000  0.5230560000000  0.4923500000000 1.0
C      1  0.5413400000000  0.4374620000000  0.5216630000000 1.0
C      1  0.4380550000000  0.5161890000000  0.4482880000000 1.0
C      1  0.4672350000000  0.4248260000000  0.4888910000000 1.0
C      1  0.4283880000000  0.5436210000000  0.5241980000000 1.0
C      1  0.4506880000000  0.4600730000000  0.5163660000000 1.0
C      1  0.5591320000000  0.5544720000000  0.4914440000000 1.0
C      1  0.4925010000000  0.4228920000000  0.4786370000000 1.0
C      1  0.5607810000000  0.4558890000000  0.5321060000000 1.0
C      1  0.4779530000000  0.4979540000000  0.4289780000000 1.0
C      1  0.5511280000000  0.4686840000000  0.5568500000000 1.0
C      1  0.5463540000000  0.5263720000000  0.4315860000000 1.0
C      1  0.5306250000000  0.5092280000000  0.5786440000000 1.0
C      1  0.4888910000000  0.5030870000000  0.4833130000000 1.0
C      1  0.4628810000000  0.5216980000000  0.4353960000000 1.0
C      1  0.4780200000000  0.4742310000000  0.5283490000000 1.0
C      1  0.5605260000000  0.4712870000000  0.4875760000000 1.0
C      1  0.5786730000000  0.5166510000000  0.4632980000000 1.0
C      1  0.4828830000000  0.5104710000000  0.5689440000000 1.0
C      1  0.4700010000000  0.5024080000000  0.5238920000000 1.0
C      1  0.5175190000000  0.5748230000000  0.5074810000000 1.0
C      1  0.4642560000000  0.5020750000000  0.4960910000000 1.0
C      1  0.5032520000000  0.4689930000000  0.5719650000000 1.0
C      1  0.5509520000000  0.5494870000000  0.4469620000000 1.0
C      1  0.4656130000000  0.5620400000000  0.4632220000000 1.0
C      1  0.5120780000000  0.5188850000000  0.5233170000000 1.0
C      1  0.4672120000000  0.4155580000000  0.5365600000000 1.0
C      1  0.4839430000000  0.5776780000000  0.4760150000000 1.0
C      1  0.4866910000000  0.4333670000000  0.5443310000000 1.0
C      1  0.4163170000000  0.5188310000000  0.5171190000000 1.0
C      1  0.5771790000000  0.4670340000000  0.5112290000000 1.0
C      1  0.5046410000000  0.4969150000000  0.5795580000000 1.0
C      1  0.5698780000000  0.5441000000000  0.4667060000000 1.0
C      1  0.5445940000000  0.5233180000000  0.5595210000000 1.0
C      1  0.5908000000000  0.4930410000000  0.5090060000000 1.0
C      1  0.4210470000000  0.4881110000000  0.4806930000000 1.0
C      1  0.4997170000000  0.4577700000000  0.4405900000000 1.0
C      1  0.4150380000000  0.5142850000000  0.4893300000000 1.0
C      1  0.5609480000000  0.5389110000000  0.5152730000000 1.0
C      1  0.4278680000000  0.5318260000000  0.4701400000000 1.0
C      1  0.4427840000000  0.5542870000000  0.4782580000000 1.0
C      1  0.4579060000000  0.4312110000000  0.5139560000000 1.0
C      1  0.5608030000000  0.5042130000000  0.4422470000000 1.0
C      1  0.5467210000000  0.4788120000000  0.4424160000000 1.0
C      1  0.4438680000000  0.5403770000000  0.5480120000000 1.0
C      1  0.4435900000000  0.5596540000000  0.5059800000000 1.0
C      1  0.4797100000000  0.4597040000000  0.5566380000000 1.0
C      1  0.4231940000000  0.4990440000000  0.5381540000000 1.0
END
