TITL C-184277-2454-5 0.118152902592369 125000 -663.488967111282 0 0 96 (C1) n - 1
REM
REM in /rds/project/t2_vol4/rds-t2-cs072/BORA/CARBON/from-Arr/AIRSS/Generating-Clusters/GAP-ML-2020/Only-C1/SD-CG/HFTN-CG
REM
REM
REM
REM
REM
REM ./C.cell (11c1c37f851c82e70ff6c80c92926a4b)
REM AIRSS Version 0.9.1 bugfix July 2018 build 013d7b7c2542+ Fri, 06 Jul 2018 19:26:36 +0100
REM compiler GCC version 9.3.0
REM options -cpp -mtune=generic -march=x86-64 -g -O0
REM seed 149392139 2088938659 1385293471 1603288295 1411846381 -1510587603 1709715076 1123684157 -1060323216 355565658 1482795134 -1245687563 -1669748224 -630927773 -1917792227 -86875725 636597729 -29567267 1909312359 325749319 671088028 584994617 1888905927 -432977516 1853840125 589488304 509175718 -1934886323 -567691467 1511273208 -59575397 485748661 -484535356
REM
CELL 1.54180   50.00000   50.00000   50.00000   90.00000   90.00000   90.00000
LATT -1
SFAC C  
C      1  0.4685130000000  0.4279930000000  0.5067720000000 1.0
C      1  0.5047500000000  0.4657080000000  0.4753440000000 1.0
C      1  0.4693430000000  0.4277310000000  0.5350490000000 1.0
C      1  0.5173660000000  0.5070050000000  0.4997080000000 1.0
C      1  0.5044000000000  0.4902670000000  0.4591150000000 1.0
C      1  0.5478220000000  0.5045580000000  0.5046980000000 1.0
C      1  0.5320750000000  0.5349670000000  0.4127150000000 1.0
C      1  0.5163080000000  0.4244780000000  0.4927230000000 1.0
C      1  0.4630480000000  0.5535070000000  0.4529450000000 1.0
C      1  0.5369880000000  0.5199970000000  0.5558550000000 1.0
C      1  0.5541570000000  0.5184520000000  0.4241620000000 1.0
C      1  0.5096200000000  0.4793530000000  0.5942430000000 1.0
C      1  0.4748840000000  0.4697930000000  0.4086290000000 1.0
C      1  0.5187010000000  0.4969350000000  0.5508730000000 1.0
C      1  0.5214720000000  0.5693790000000  0.5492790000000 1.0
C      1  0.5265650000000  0.4618770000000  0.5210980000000 1.0
C      1  0.5048440000000  0.4518700000000  0.5899590000000 1.0
C      1  0.5085390000000  0.4466710000000  0.5634970000000 1.0
C      1  0.4536460000000  0.5686970000000  0.5048150000000 1.0
C      1  0.5766030000000  0.4787900000000  0.5218930000000 1.0
C      1  0.4607990000000  0.4543150000000  0.4938540000000 1.0
C      1  0.4428580000000  0.5499450000000  0.5439240000000 1.0
C      1  0.5526540000000  0.4586280000000  0.4816090000000 1.0
C      1  0.5683580000000  0.5382710000000  0.4710090000000 1.0
C      1  0.4745540000000  0.5767100000000  0.5237270000000 1.0
C      1  0.4775180000000  0.4492890000000  0.4691230000000 1.0
C      1  0.5246440000000  0.5773980000000  0.5235070000000 1.0
C      1  0.5110920000000  0.5585920000000  0.4461870000000 1.0
C      1  0.5499020000000  0.4671760000000  0.4354230000000 1.0
C      1  0.5036130000000  0.4705240000000  0.4049360000000 1.0
C      1  0.4826690000000  0.5219470000000  0.5923550000000 1.0
C      1  0.4299230000000  0.5058840000000  0.5483950000000 1.0
C      1  0.5699310000000  0.4910650000000  0.5654310000000 1.0
C      1  0.4957890000000  0.5517300000000  0.4929970000000 1.0
C      1  0.5053020000000  0.4779210000000  0.5029330000000 1.0
C      1  0.4796970000000  0.4446220000000  0.4223030000000 1.0
C      1  0.4276370000000  0.5273510000000  0.5041720000000 1.0
C      1  0.4981710000000  0.4309400000000  0.5416350000000 1.0
C      1  0.5658630000000  0.5557830000000  0.4932610000000 1.0
C      1  0.5084550000000  0.4477150000000  0.4228580000000 1.0
C      1  0.4204390000000  0.5045480000000  0.5206080000000 1.0
C      1  0.4489480000000  0.5293660000000  0.4525390000000 1.0
C      1  0.4783060000000  0.4982520000000  0.4607310000000 1.0
C      1  0.5354230000000  0.5545650000000  0.4325110000000 1.0
C      1  0.5779700000000  0.4925970000000  0.4670560000000 1.0
C      1  0.4917830000000  0.4982480000000  0.5817350000000 1.0
C      1  0.5766500000000  0.4991070000000  0.5400540000000 1.0
C      1  0.5375340000000  0.4848810000000  0.5921350000000 1.0
C      1  0.5166150000000  0.5436490000000  0.5595190000000 1.0
C      1  0.4876520000000  0.4219910000000  0.4682440000000 1.0
C      1  0.4489310000000  0.5250320000000  0.4834070000000 1.0
C      1  0.4639790000000  0.5100720000000  0.4352580000000 1.0
C      1  0.4336080000000  0.5520590000000  0.5176300000000 1.0
C      1  0.5592690000000  0.5402220000000  0.4441580000000 1.0
C      1  0.4756700000000  0.4810490000000  0.5073640000000 1.0
C      1  0.4900810000000  0.4139010000000  0.4931730000000 1.0
C      1  0.4851290000000  0.5526370000000  0.4346460000000 1.0
C      1  0.4213100000000  0.4760810000000  0.5127440000000 1.0
C      1  0.4926640000000  0.5316350000000  0.5405050000000 1.0
C      1  0.4626040000000  0.4466140000000  0.4444150000000 1.0
C      1  0.5528430000000  0.4721360000000  0.5073820000000 1.0
C      1  0.5117530000000  0.5433700000000  0.4701570000000 1.0
C      1  0.4382120000000  0.5295210000000  0.5625300000000 1.0
C      1  0.4680790000000  0.5024940000000  0.4864640000000 1.0
C      1  0.5172020000000  0.4341420000000  0.5192060000000 1.0
C      1  0.5012230000000  0.5289650000000  0.5127930000000 1.0
C      1  0.4714470000000  0.5577210000000  0.5459630000000 1.0
C      1  0.4721930000000  0.4862600000000  0.5361720000000 1.0
C      1  0.4323230000000  0.4614830000000  0.5360350000000 1.0
C      1  0.5508080000000  0.4699930000000  0.5702650000000 1.0
C      1  0.5652970000000  0.4704750000000  0.4592890000000 1.0
C      1  0.5495020000000  0.5687580000000  0.5124040000000 1.0
C      1  0.5566080000000  0.5206080000000  0.5309640000000 1.0
C      1  0.5648910000000  0.5470060000000  0.5199850000000 1.0
C      1  0.5271260000000  0.4682230000000  0.5507960000000 1.0
C      1  0.5196090000000  0.4928780000000  0.4058460000000 1.0
C      1  0.4301580000000  0.4633660000000  0.4882430000000 1.0
C      1  0.5150530000000  0.5136110000000  0.4707430000000 1.0
C      1  0.5688190000000  0.5118060000000  0.4828540000000 1.0
C      1  0.4447430000000  0.4386850000000  0.5419060000000 1.0
C      1  0.4660090000000  0.5544430000000  0.4830780000000 1.0
C      1  0.4983770000000  0.5463300000000  0.5837520000000 1.0
C      1  0.5299980000000  0.4472560000000  0.4408550000000 1.0
C      1  0.4541190000000  0.4844580000000  0.4223650000000 1.0
C      1  0.4995670000000  0.5761490000000  0.5101800000000 1.0
C      1  0.4905030000000  0.5030480000000  0.5506350000000 1.0
C      1  0.4461320000000  0.4830780000000  0.5495110000000 1.0
C      1  0.4742170000000  0.5580100000000  0.5755710000000 1.0
C      1  0.5516120000000  0.5076640000000  0.5796710000000 1.0
C      1  0.5088050000000  0.5197010000000  0.4072460000000 1.0
C      1  0.4232020000000  0.4654220000000  0.4618350000000 1.0
C      1  0.5284140000000  0.4450600000000  0.4724540000000 1.0
C      1  0.4401720000000  0.4647770000000  0.4402440000000 1.0
C      1  0.5452050000000  0.4908820000000  0.4189820000000 1.0
C      1  0.4838130000000  0.5277140000000  0.4195380000000 1.0
C      1  0.4583330000000  0.5341690000000  0.5826490000000 1.0
END
