TITL C-184278-2423-7 0.0334059715391989 125000 -399.608219014862 0 0 58 (C1) n - 1
REM
REM in /rds/project/t2_vol4/rds-t2-cs072/BORA/CARBON/from-Arr/AIRSS/Generating-Clusters/GAP-ML-2020/Only-C1/SD-CG/HFTN-CG
REM
REM
REM
REM
REM
REM ./C.cell (11c1c37f851c82e70ff6c80c92926a4b)
REM AIRSS Version 0.9.1 bugfix July 2018 build 013d7b7c2542+ Fri, 06 Jul 2018 19:26:36 +0100
REM compiler GCC version 9.3.0
REM options -cpp -mtune=generic -march=x86-64 -g -O0
REM seed 1100021268 -156512405 1490394652 -1064076094 -977734989 463366887 1648407017 457053765 -962426431 -300091849 460248296 1236479717 1113014685 1401395705 -1817879117 -417047168 -1267786454 950698889 -573326968 -892200037 237135225 -1425754340 -1865385038 -761188614 557752745 -1718839491 1647063506 140432008 -1930601 1724618878 63446470 -1200326729 1676163634
REM
CELL 1.54180   50.00000   50.00000   50.00000   90.00000   90.00000   90.00000
LATT -1
SFAC C  
C      1  0.5170330000000  0.5211960000000  0.4398610000000 1.0
C      1  0.5519720000000  0.4990250000000  0.4624380000000 1.0
C      1  0.5045130000000  0.4540890000000  0.5380390000000 1.0
C      1  0.4414030000000  0.4970860000000  0.4720210000000 1.0
C      1  0.4684860000000  0.4539660000000  0.4690510000000 1.0
C      1  0.5421960000000  0.4579920000000  0.4982160000000 1.0
C      1  0.4293760000000  0.4928640000000  0.4983920000000 1.0
C      1  0.4506430000000  0.5245150000000  0.4715460000000 1.0
C      1  0.5630600000000  0.4869250000000  0.5307320000000 1.0
C      1  0.5069590000000  0.5499990000000  0.5419980000000 1.0
C      1  0.4713570000000  0.4347360000000  0.5138330000000 1.0
C      1  0.4791790000000  0.5138290000000  0.4348380000000 1.0
C      1  0.4996200000000  0.4964500000000  0.5008220000000 1.0
C      1  0.4937190000000  0.4716430000000  0.4245830000000 1.0
C      1  0.4878270000000  0.5516130000000  0.4614110000000 1.0
C      1  0.5347670000000  0.4984160000000  0.4391180000000 1.0
C      1  0.4646680000000  0.5236360000000  0.5220900000000 1.0
C      1  0.4390350000000  0.5165570000000  0.5385470000000 1.0
C      1  0.4584870000000  0.4514150000000  0.4950720000000 1.0
C      1  0.4603990000000  0.5361730000000  0.4955460000000 1.0
C      1  0.5368120000000  0.5465230000000  0.4759600000000 1.0
C      1  0.4999930000000  0.4556540000000  0.4686030000000 1.0
C      1  0.5708170000000  0.4954470000000  0.5052640000000 1.0
C      1  0.4674620000000  0.5343260000000  0.4498270000000 1.0
C      1  0.4610530000000  0.4545480000000  0.5554770000000 1.0
C      1  0.5287870000000  0.5430900000000  0.5564660000000 1.0
C      1  0.5080010000000  0.4535990000000  0.4397050000000 1.0
C      1  0.4788680000000  0.5162960000000  0.5645140000000 1.0
C      1  0.5374820000000  0.5560630000000  0.5034630000000 1.0
C      1  0.5211130000000  0.4759670000000  0.4281220000000 1.0
C      1  0.5484520000000  0.4627250000000  0.5261160000000 1.0
C      1  0.5685550000000  0.5226530000000  0.5002800000000 1.0
C      1  0.5572580000000  0.5411640000000  0.5184490000000 1.0
C      1  0.4825610000000  0.5351540000000  0.5432090000000 1.0
C      1  0.4980510000000  0.4945270000000  0.5620510000000 1.0
C      1  0.5004740000000  0.4859710000000  0.4737090000000 1.0
C      1  0.5261560000000  0.4894780000000  0.5594100000000 1.0
C      1  0.5134340000000  0.5639400000000  0.5172300000000 1.0
C      1  0.5162800000000  0.4455970000000  0.4923350000000 1.0
C      1  0.4914880000000  0.5737760000000  0.5045850000000 1.0
C      1  0.4588430000000  0.4345540000000  0.5396260000000 1.0
C      1  0.4209200000000  0.5081750000000  0.5192760000000 1.0
C      1  0.4733030000000  0.4921010000000  0.5195920000000 1.0
C      1  0.5575740000000  0.4797480000000  0.4845090000000 1.0
C      1  0.4515880000000  0.4772110000000  0.5060220000000 1.0
C      1  0.4714840000000  0.4867880000000  0.4333290000000 1.0
C      1  0.4509650000000  0.5096880000000  0.5625120000000 1.0
C      1  0.5286890000000  0.4633780000000  0.5460520000000 1.0
C      1  0.4784820000000  0.5573220000000  0.4877980000000 1.0
C      1  0.5502550000000  0.5036460000000  0.5500010000000 1.0
C      1  0.4830530000000  0.4746750000000  0.5447420000000 1.0
C      1  0.5558200000000  0.5249830000000  0.4746980000000 1.0
C      1  0.5001310000000  0.4382160000000  0.5147340000000 1.0
C      1  0.5508380000000  0.5319420000000  0.5451280000000 1.0
C      1  0.5204800000000  0.5094060000000  0.5105780000000 1.0
C      1  0.4562210000000  0.4771690000000  0.4555460000000 1.0
C      1  0.4978450000000  0.5075440000000  0.4561940000000 1.0
C      1  0.5157140000000  0.5448330000000  0.4567310000000 1.0
END
