TITL C-184261-2470-3 0.0227570847471824 125000 -543.012601069672 0 0 78 (C1) n - 1
REM
REM in /rds/project/t2_vol4/rds-t2-cs072/BORA/CARBON/from-Arr/AIRSS/Generating-Clusters/GAP-ML-2020/Only-C1/SD-CG/HFTN-CG
REM
REM
REM
REM
REM
REM ./C.cell (11c1c37f851c82e70ff6c80c92926a4b)
REM AIRSS Version 0.9.1 bugfix July 2018 build 013d7b7c2542+ Fri, 06 Jul 2018 19:26:36 +0100
REM compiler GCC version 9.3.0
REM options -cpp -mtune=generic -march=x86-64 -g -O0
REM seed -1108762483 1248169577 -2035362445 -682024346 -116295565 742935662 978147878 -308820893 98762593 -128912558 -1631744001 -1568116561 283369059 2130983678 254415804 -722451612 1570538522 -1767213248 -351388772 1110266600 183610906 -243764205 1555361166 1353972043 299979840 -775976433 198338539 -37003641 984173360 -1619237547 727451628 -1125185260 1031893735
REM
CELL 1.54180   50.00000   50.00000   50.00000   90.00000   90.00000   90.00000
LATT -1
SFAC C  
C      1  0.4280450000000  0.5402760000000  0.4936210000000 1.0
C      1  0.4385720000000  0.5515830000000  0.5453690000000 1.0
C      1  0.4221810000000  0.4625550000000  0.4927230000000 1.0
C      1  0.5763310000000  0.5024540000000  0.4917510000000 1.0
C      1  0.5465620000000  0.5401820000000  0.4888900000000 1.0
C      1  0.4624600000000  0.4421680000000  0.4695010000000 1.0
C      1  0.5612570000000  0.4492810000000  0.5265850000000 1.0
C      1  0.5356270000000  0.5852920000000  0.4950900000000 1.0
C      1  0.4317860000000  0.5063590000000  0.4604770000000 1.0
C      1  0.4611550000000  0.4602760000000  0.5516070000000 1.0
C      1  0.5303850000000  0.5719510000000  0.5186120000000 1.0
C      1  0.4785100000000  0.5698560000000  0.5330530000000 1.0
C      1  0.4823340000000  0.4985850000000  0.4896590000000 1.0
C      1  0.4656490000000  0.5503910000000  0.5527800000000 1.0
C      1  0.4171760000000  0.4902450000000  0.5027560000000 1.0
C      1  0.4727360000000  0.5280560000000  0.4411470000000 1.0
C      1  0.5634890000000  0.5197390000000  0.4743740000000 1.0
C      1  0.5535020000000  0.5058990000000  0.4509320000000 1.0
C      1  0.4748540000000  0.4259320000000  0.4912820000000 1.0
C      1  0.5043110000000  0.4793420000000  0.5631690000000 1.0
C      1  0.5200000000000  0.4428450000000  0.5270000000000 1.0
C      1  0.4736810000000  0.5576820000000  0.4830160000000 1.0
C      1  0.5498830000000  0.4772090000000  0.4493720000000 1.0
C      1  0.4370330000000  0.5557230000000  0.5170190000000 1.0
C      1  0.5248150000000  0.4803470000000  0.4941890000000 1.0
C      1  0.5738540000000  0.4976700000000  0.5205750000000 1.0
C      1  0.4615240000000  0.5698540000000  0.5096780000000 1.0
C      1  0.5557420000000  0.5125040000000  0.5380360000000 1.0
C      1  0.5227860000000  0.5206840000000  0.5709270000000 1.0
C      1  0.5773160000000  0.4737740000000  0.4870920000000 1.0
C      1  0.5407330000000  0.4540000000000  0.5466510000000 1.0
C      1  0.4288280000000  0.4818960000000  0.5286400000000 1.0
C      1  0.5198520000000  0.5263000000000  0.4980810000000 1.0
C      1  0.4295060000000  0.4536360000000  0.5191100000000 1.0
C      1  0.4874660000000  0.4546880000000  0.5582830000000 1.0
C      1  0.5441850000000  0.4388960000000  0.4808570000000 1.0
C      1  0.4421320000000  0.4811250000000  0.4529190000000 1.0
C      1  0.4806800000000  0.4727880000000  0.5010740000000 1.0
C      1  0.4795970000000  0.4547430000000  0.4494680000000 1.0
C      1  0.5360140000000  0.5669460000000  0.4487810000000 1.0
C      1  0.5236850000000  0.4721400000000  0.4381890000000 1.0
C      1  0.5653790000000  0.5400030000000  0.5361530000000 1.0
C      1  0.4723260000000  0.4277400000000  0.5206040000000 1.0
C      1  0.5434960000000  0.5671420000000  0.4757220000000 1.0
C      1  0.4676100000000  0.4793450000000  0.4398180000000 1.0
C      1  0.4388780000000  0.4585470000000  0.4702840000000 1.0
C      1  0.4835340000000  0.5021490000000  0.4324770000000 1.0
C      1  0.5341320000000  0.4753720000000  0.5632610000000 1.0
C      1  0.4850270000000  0.5523750000000  0.4535380000000 1.0
C      1  0.4836900000000  0.5259950000000  0.5557930000000 1.0
C      1  0.4536030000000  0.4862400000000  0.5430780000000 1.0
C      1  0.5439470000000  0.5027620000000  0.5638340000000 1.0
C      1  0.5112780000000  0.5355420000000  0.5464060000000 1.0
C      1  0.4199390000000  0.5129530000000  0.4863280000000 1.0
C      1  0.5052190000000  0.5600290000000  0.5275180000000 1.0
C      1  0.5767850000000  0.4691720000000  0.5155040000000 1.0
C      1  0.5072670000000  0.4694720000000  0.5139470000000 1.0
C      1  0.5118450000000  0.4971960000000  0.4305330000000 1.0
C      1  0.4765080000000  0.5182940000000  0.5091750000000 1.0
C      1  0.4471110000000  0.5286060000000  0.4525160000000 1.0
C      1  0.4503680000000  0.4410980000000  0.5319640000000 1.0
C      1  0.5297730000000  0.5446850000000  0.4331250000000 1.0
C      1  0.5325630000000  0.5170880000000  0.4348210000000 1.0
C      1  0.5188320000000  0.4340310000000  0.4689020000000 1.0
C      1  0.5046300000000  0.4909980000000  0.5343380000000 1.0
C      1  0.4465620000000  0.5476100000000  0.4738190000000 1.0
C      1  0.4768980000000  0.5053360000000  0.5354070000000 1.0
C      1  0.5607790000000  0.4599420000000  0.4693150000000 1.0
C      1  0.5005370000000  0.4219030000000  0.4845670000000 1.0
C      1  0.5116760000000  0.5024550000000  0.4836900000000 1.0
C      1  0.4939950000000  0.5421560000000  0.5028800000000 1.0
C      1  0.5435330000000  0.4351460000000  0.5089260000000 1.0
C      1  0.5085830000000  0.5618460000000  0.4428570000000 1.0
C      1  0.4984970000000  0.5077470000000  0.5750500000000 1.0
C      1  0.5078100000000  0.4509590000000  0.4483720000000 1.0
C      1  0.5228550000000  0.5151900000000  0.5276070000000 1.0
C      1  0.4949730000000  0.4337320000000  0.5386270000000 1.0
C      1  0.5533320000000  0.5532720000000  0.5169100000000 1.0
END
