TITL C-184279-2768-2 52.9879887684001 125000 -193.817822621842 0 0 30 (C1) n - 1
REM
REM in /rds/project/t2_vol4/rds-t2-cs072/BORA/CARBON/from-Arr/AIRSS/Generating-Clusters/GAP-ML-2020/Only-C1/SD-CG/HFTN-CG
REM
REM
REM
REM
REM
REM ./C.cell (11c1c37f851c82e70ff6c80c92926a4b)
REM AIRSS Version 0.9.1 bugfix July 2018 build 013d7b7c2542+ Fri, 06 Jul 2018 19:26:36 +0100
REM compiler GCC version 9.3.0
REM options -cpp -mtune=generic -march=x86-64 -g -O0
REM seed 172767545 1935160590 -2025596924 343487043 -159872667 -547846357 1011104202 -246152568 1491031795 1200737054 600474204 141135353 334896469 1457667579 -265415954 -1608137716 1668580626 1520563911 1038421314 1146467705 -415430191 -735688411 -1758678257 1386614230 -1727412087 -898692732 -621887043 -1401229507 -1779050032 1249484966 -1676434758 2098449758 -1669741281
REM
CELL 1.54180   50.00000   50.00000   50.00000   90.00000   90.00000   90.00000
LATT -1
SFAC C  
C      1  0.4923050000000  0.4994930000000  0.5656540000000 1.0
C      1  0.5130440000000  0.4669600000000  0.5191850000000 1.0
C      1  0.5268470000000  0.5083710000000  0.5068360000000 1.0
C      1  0.5130210000000  0.4785810000000  0.5624240000000 1.0
C      1  0.5381790000000  0.4826270000000  0.4555360000000 1.0
C      1  0.5181400000000  0.5028640000000  0.4592100000000 1.0
C      1  0.5071920000000  0.4987700000000  0.4856080000000 1.0
C      1  0.5321290000000  0.4885220000000  0.5255490000000 1.0
C      1  0.4734560000000  0.4849850000000  0.5463060000000 1.0
C      1  0.5227650000000  0.5356470000000  0.5119190000000 1.0
C      1  0.5005070000000  0.5363220000000  0.5320170000000 1.0
C      1  0.5075670000000  0.4681270000000  0.4904300000000 1.0
C      1  0.4994800000000  0.5231360000000  0.5548600000000 1.0
C      1  0.4695700000000  0.4583230000000  0.4583600000000 1.0
C      1  0.4730380000000  0.4825750000000  0.4527190000000 1.0
C      1  0.4804240000000  0.5148820000000  0.4841700000000 1.0
C      1  0.5191830000000  0.5594350000000  0.4638250000000 1.0
C      1  0.4553710000000  0.4966860000000  0.5297420000000 1.0
C      1  0.4631630000000  0.5144270000000  0.5107590000000 1.0
C      1  0.5014240000000  0.5200830000000  0.4435120000000 1.0
C      1  0.5095470000000  0.5461530000000  0.4428370000000 1.0
C      1  0.5132480000000  0.5506860000000  0.4892450000000 1.0
C      1  0.5333840000000  0.4646760000000  0.4732410000000 1.0
C      1  0.4760160000000  0.5396160000000  0.5175970000000 1.0
C      1  0.4954040000000  0.4647070000000  0.5416290000000 1.0
C      1  0.4756570000000  0.5092720000000  0.4548740000000 1.0
C      1  0.4822950000000  0.4271920000000  0.4976810000000 1.0
C      1  0.4846700000000  0.4482250000000  0.4809790000000 1.0
C      1  0.5374660000000  0.4846690000000  0.5524490000000 1.0
C      1  0.4855070000000  0.5439880000000  0.4908460000000 1.0
END
