TITL C-18107-7489-5 -61.7206248506454 125000 -327.609534094705 0 0 49 (C1) n - 1
REM
REM in /rds/project/t2_vol4/rds-t2-cs072/BORA/CARBON/from-Arr/AIRSS/Generating-Clusters/GAP-ML-2020/Only-C1/SD-CG/HFTN-CG
REM
REM
REM
REM
REM
REM ./C.cell (11c1c37f851c82e70ff6c80c92926a4b)
REM AIRSS Version 0.9.1 bugfix July 2018 build 013d7b7c2542+ Fri, 06 Jul 2018 19:26:36 +0100
REM compiler GCC version 9.3.0
REM options -cpp -mtune=generic -march=x86-64 -g -O0
REM seed 1300854507 967869387 121697886 429283309 1331682147 -492167257 1062038049 -1097244425 1000381155 1449626617 -774280079 2085129904 -1633457728 1707133247 -608602654 -2080065625 -1209885164 983121056 297204527 -682196617 -313254061 -642165034 571451374 1192687524 -1317676100 -663774734 1337615491 1445807798 -381829176 615138335 574440941 -1281082180 383322344
REM
CELL 1.54180   50.00000   50.00000   50.00000   90.00000   90.00000   90.00000
LATT -1
SFAC C  
C      1  0.4758590000000  0.4509120000000  0.5001810000000 1.0
C      1  0.4634320000000  0.4358510000000  0.4764300000000 1.0
C      1  0.4566690000000  0.5454210000000  0.5221280000000 1.0
C      1  0.5220680000000  0.4863500000000  0.4571730000000 1.0
C      1  0.4933830000000  0.4612100000000  0.5445880000000 1.0
C      1  0.5112280000000  0.5288800000000  0.5219130000000 1.0
C      1  0.5063110000000  0.4462130000000  0.4663270000000 1.0
C      1  0.5332140000000  0.4578790000000  0.4595260000000 1.0
C      1  0.5561170000000  0.4495590000000  0.4715170000000 1.0
C      1  0.4972940000000  0.5437460000000  0.4760120000000 1.0
C      1  0.4784850000000  0.5025200000000  0.4967360000000 1.0
C      1  0.4414350000000  0.5331700000000  0.5000440000000 1.0
C      1  0.5084870000000  0.5202550000000  0.5491610000000 1.0
C      1  0.4601680000000  0.4471250000000  0.4509160000000 1.0
C      1  0.5330750000000  0.5088930000000  0.5569260000000 1.0
C      1  0.4938250000000  0.4744890000000  0.4604660000000 1.0
C      1  0.5553300000000  0.4961240000000  0.5264510000000 1.0
C      1  0.5267400000000  0.4489520000000  0.5117680000000 1.0
C      1  0.5486220000000  0.5475390000000  0.5290150000000 1.0
C      1  0.4808060000000  0.4773570000000  0.4871200000000 1.0
C      1  0.4547810000000  0.4751050000000  0.5421300000000 1.0
C      1  0.4509000000000  0.5209790000000  0.4530280000000 1.0
C      1  0.4693930000000  0.4537000000000  0.5287250000000 1.0
C      1  0.4502990000000  0.5067900000000  0.5054790000000 1.0
C      1  0.5534370000000  0.5215620000000  0.5396750000000 1.0
C      1  0.5480660000000  0.4888900000000  0.5001140000000 1.0
C      1  0.5331630000000  0.5107100000000  0.4449320000000 1.0
C      1  0.4451780000000  0.4997670000000  0.5324580000000 1.0
C      1  0.4692650000000  0.4740590000000  0.4434200000000 1.0
C      1  0.5480960000000  0.4600810000000  0.4958610000000 1.0
C      1  0.5279310000000  0.5041010000000  0.4833430000000 1.0
C      1  0.4826490000000  0.5114960000000  0.5552320000000 1.0
C      1  0.5583940000000  0.5530800000000  0.5031950000000 1.0
C      1  0.4495090000000  0.5403540000000  0.4732530000000 1.0
C      1  0.5208370000000  0.5543100000000  0.5302570000000 1.0
C      1  0.5028290000000  0.5183420000000  0.4948640000000 1.0
C      1  0.5048980000000  0.5674450000000  0.5113660000000 1.0
C      1  0.4718650000000  0.5555700000000  0.4800100000000 1.0
C      1  0.5052200000000  0.4414690000000  0.4955550000000 1.0
C      1  0.4830540000000  0.4300370000000  0.4574680000000 1.0
C      1  0.5413700000000  0.5499700000000  0.4820270000000 1.0
C      1  0.5164060000000  0.5625300000000  0.4848500000000 1.0
C      1  0.5203710000000  0.4618630000000  0.5366350000000 1.0
C      1  0.4790340000000  0.4832210000000  0.5568910000000 1.0
C      1  0.5383670000000  0.4821270000000  0.5463620000000 1.0
C      1  0.4555170000000  0.4984450000000  0.4425060000000 1.0
C      1  0.5413240000000  0.5265230000000  0.4649410000000 1.0
C      1  0.4591610000000  0.5232780000000  0.5427080000000 1.0
C      1  0.4761380000000  0.5617510000000  0.5083160000000 1.0
END
