TITL C-18089-6704-3 1247.01323299157 125000 -753.820130767892 0 0 108 (C1) n - 1
REM
REM in /rds/project/t2_vol4/rds-t2-cs072/BORA/CARBON/from-Arr/AIRSS/Generating-Clusters/GAP-ML-2020/Only-C1/SD-CG/HFTN-CG
REM
REM
REM
REM
REM
REM ./C.cell (11c1c37f851c82e70ff6c80c92926a4b)
REM AIRSS Version 0.9.1 bugfix July 2018 build 013d7b7c2542+ Fri, 06 Jul 2018 19:26:36 +0100
REM compiler GCC version 9.3.0
REM options -cpp -mtune=generic -march=x86-64 -g -O0
REM seed -2124401962 1882642679 2072265184 765461918 665360386 1129166108 240270329 898690274 723940871 -1606176890 -1167942426 -878535906 2123995575 1973072657 1312529270 -152474312 -536398169 1397479808 1722177210 -1526720363 1753864445 807857659 -677429332 -1054778515 -1493217272 348900970 -320376638 -1245163574 1293056294 -400566143 510572293 -317155034 -1766797177
REM
CELL 1.54180   50.00000   50.00000   50.00000   90.00000   90.00000   90.00000
LATT -1
SFAC C  
C      1  0.5237090000000  0.4657010000000  0.5063560000000 1.0
C      1  0.4370050000000  0.4593930000000  0.5159790000000 1.0
C      1  0.5757970000000  0.4489200000000  0.5308170000000 1.0
C      1  0.4171130000000  0.5224410000000  0.4493480000000 1.0
C      1  0.4853870000000  0.4121730000000  0.5627640000000 1.0
C      1  0.5199060000000  0.5762300000000  0.4942700000000 1.0
C      1  0.4598200000000  0.5074630000000  0.4713110000000 1.0
C      1  0.5149540000000  0.5449460000000  0.4818160000000 1.0
C      1  0.4529690000000  0.5771260000000  0.5210880000000 1.0
C      1  0.5239420000000  0.4477400000000  0.4245540000000 1.0
C      1  0.4835900000000  0.4400120000000  0.5242740000000 1.0
C      1  0.5101560000000  0.5337290000000  0.5260170000000 1.0
C      1  0.5620680000000  0.5201170000000  0.5217530000000 1.0
C      1  0.4387100000000  0.5282730000000  0.4298260000000 1.0
C      1  0.5050380000000  0.5900770000000  0.4724370000000 1.0
C      1  0.4786310000000  0.5913130000000  0.4813780000000 1.0
C      1  0.5466790000000  0.4588640000000  0.4346570000000 1.0
C      1  0.4420640000000  0.5037040000000  0.5349460000000 1.0
C      1  0.5598180000000  0.4258550000000  0.5287460000000 1.0
C      1  0.5100130000000  0.4557010000000  0.5290500000000 1.0
C      1  0.5576240000000  0.5693020000000  0.5252030000000 1.0
C      1  0.4264030000000  0.4870900000000  0.5147200000000 1.0
C      1  0.5678250000000  0.4402510000000  0.4849330000000 1.0
C      1  0.5317830000000  0.5151260000000  0.5233380000000 1.0
C      1  0.4632370000000  0.5766840000000  0.4631290000000 1.0
C      1  0.4813020000000  0.4640470000000  0.4797860000000 1.0
C      1  0.4153160000000  0.4968780000000  0.4896660000000 1.0
C      1  0.4794600000000  0.5131520000000  0.4242020000000 1.0
C      1  0.4380850000000  0.4982850000000  0.4236760000000 1.0
C      1  0.4387440000000  0.4952530000000  0.5648070000000 1.0
C      1  0.5110870000000  0.4946250000000  0.4563760000000 1.0
C      1  0.5233170000000  0.4528900000000  0.4783170000000 1.0
C      1  0.5328470000000  0.5722660000000  0.4391990000000 1.0
C      1  0.4724390000000  0.4889050000000  0.4872790000000 1.0
C      1  0.4914830000000  0.4127330000000  0.5365120000000 1.0
C      1  0.5617730000000  0.5046180000000  0.4408560000000 1.0
C      1  0.5546970000000  0.5594980000000  0.4497790000000 1.0
C      1  0.5059600000000  0.4538670000000  0.5770670000000 1.0
C      1  0.4505740000000  0.4459810000000  0.4457100000000 1.0
C      1  0.5662330000000  0.5692800000000  0.4774560000000 1.0
C      1  0.4701720000000  0.5341440000000  0.4783970000000 1.0
C      1  0.4368960000000  0.4433110000000  0.4914700000000 1.0
C      1  0.5140850000000  0.5775380000000  0.5466130000000 1.0
C      1  0.4489040000000  0.5559580000000  0.4750020000000 1.0
C      1  0.4795160000000  0.4943170000000  0.5865640000000 1.0
C      1  0.5366790000000  0.4237880000000  0.5441880000000 1.0
C      1  0.4700260000000  0.5226290000000  0.5843160000000 1.0
C      1  0.5401370000000  0.5281450000000  0.4752530000000 1.0
C      1  0.4609610000000  0.4533810000000  0.5631910000000 1.0
C      1  0.5073120000000  0.5598330000000  0.5689140000000 1.0
C      1  0.5565630000000  0.4871170000000  0.4673360000000 1.0
C      1  0.4578430000000  0.4782130000000  0.5759190000000 1.0
C      1  0.5349120000000  0.5468250000000  0.5683290000000 1.0
C      1  0.5304980000000  0.5009530000000  0.4762130000000 1.0
C      1  0.5264970000000  0.4108780000000  0.4987180000000 1.0
C      1  0.4896190000000  0.5259240000000  0.5448010000000 1.0
C      1  0.5485640000000  0.5780710000000  0.4985270000000 1.0
C      1  0.5070750000000  0.5789460000000  0.4442570000000 1.0
C      1  0.4437040000000  0.5223740000000  0.5735770000000 1.0
C      1  0.5184260000000  0.4088790000000  0.5268080000000 1.0
C      1  0.5417550000000  0.5675580000000  0.5479680000000 1.0
C      1  0.4236680000000  0.5497150000000  0.4859100000000 1.0
C      1  0.5206820000000  0.4938770000000  0.5045760000000 1.0
C      1  0.5030520000000  0.4672930000000  0.4611560000000 1.0
C      1  0.4808770000000  0.5619430000000  0.4424960000000 1.0
C      1  0.4828220000000  0.4372680000000  0.4953430000000 1.0
C      1  0.5536930000000  0.5307780000000  0.4487520000000 1.0
C      1  0.4142320000000  0.5241060000000  0.4779840000000 1.0
C      1  0.4168370000000  0.4791780000000  0.4663650000000 1.0
C      1  0.5265560000000  0.4499730000000  0.5564370000000 1.0
C      1  0.5869880000000  0.4832540000000  0.5041090000000 1.0
C      1  0.5056010000000  0.4818340000000  0.5845840000000 1.0
C      1  0.4641280000000  0.4879960000000  0.4213180000000 1.0
C      1  0.4941290000000  0.5316410000000  0.4997700000000 1.0
C      1  0.5688090000000  0.4731720000000  0.5456190000000 1.0
C      1  0.5809390000000  0.5498110000000  0.4921190000000 1.0
C      1  0.4826130000000  0.4376210000000  0.5735040000000 1.0
C      1  0.4919930000000  0.4236730000000  0.4541030000000 1.0
C      1  0.4374680000000  0.5327440000000  0.5476680000000 1.0
C      1  0.4317690000000  0.5636970000000  0.5085510000000 1.0
C      1  0.5038700000000  0.5830460000000  0.5199330000000 1.0
C      1  0.4745820000000  0.5052580000000  0.5322400000000 1.0
C      1  0.4309020000000  0.4550520000000  0.4662650000000 1.0
C      1  0.5832910000000  0.4552930000000  0.5037200000000 1.0
C      1  0.4774640000000  0.5868830000000  0.5108070000000 1.0
C      1  0.5769920000000  0.4949660000000  0.5283940000000 1.0
C      1  0.5508880000000  0.4570320000000  0.4656200000000 1.0
C      1  0.5391180000000  0.5210630000000  0.5749980000000 1.0
C      1  0.4864690000000  0.5404640000000  0.5688830000000 1.0
C      1  0.5319340000000  0.4940460000000  0.5764890000000 1.0
C      1  0.4579690000000  0.4245060000000  0.4858790000000 1.0
C      1  0.4384560000000  0.5577840000000  0.5360620000000 1.0
C      1  0.5461650000000  0.4721320000000  0.5626700000000 1.0
C      1  0.4647140000000  0.5383950000000  0.4267010000000 1.0
C      1  0.5745620000000  0.5475360000000  0.5204460000000 1.0
C      1  0.5082280000000  0.4262370000000  0.4805260000000 1.0
C      1  0.4999360000000  0.5162230000000  0.4433030000000 1.0
C      1  0.4949870000000  0.5406470000000  0.4590470000000 1.0
C      1  0.4569710000000  0.4503330000000  0.5348310000000 1.0
C      1  0.4694330000000  0.4610520000000  0.4292270000000 1.0
C      1  0.5669270000000  0.5244090000000  0.4901300000000 1.0
C      1  0.4980180000000  0.4476640000000  0.4367420000000 1.0
C      1  0.4642910000000  0.4230170000000  0.4576690000000 1.0
C      1  0.5540140000000  0.4202790000000  0.5005270000000 1.0
C      1  0.5605530000000  0.4827850000000  0.4265040000000 1.0
C      1  0.5778990000000  0.4991990000000  0.4829790000000 1.0
C      1  0.4892600000000  0.5015860000000  0.5067500000000 1.0
C      1  0.4175530000000  0.4942510000000  0.4425390000000 1.0
END
