TITL C-18106-7186-11 -0.185688276921587 125000 -498.26110887001 0 0 72 (C1) n - 1
REM
REM in /rds/project/t2_vol4/rds-t2-cs072/BORA/CARBON/from-Arr/AIRSS/Generating-Clusters/GAP-ML-2020/Only-C1/SD-CG/HFTN-CG
REM
REM
REM
REM
REM
REM ./C.cell (11c1c37f851c82e70ff6c80c92926a4b)
REM AIRSS Version 0.9.1 bugfix July 2018 build 013d7b7c2542+ Fri, 06 Jul 2018 19:26:36 +0100
REM compiler GCC version 9.3.0
REM options -cpp -mtune=generic -march=x86-64 -g -O0
REM seed 2131584950 1514757970 431226012 656785572 -202461161 1782442619 -1099115653 -1205925946 760530143 -730173820 198810250 -1840381540 -714768188 1382195065 1373055202 1532660960 -1057886519 808709311 1519320173 -537437488 -173045632 -2033037218 -1646555604 1377565436 -949811369 101494918 743166726 1075046171 -1540491691 -1802017942 2028923088 -982129351 1745184532
REM
CELL 1.54180   50.00000   50.00000   50.00000   90.00000   90.00000   90.00000
LATT -1
SFAC C  
C      1  0.5307860000000  0.5183350000000  0.5665130000000 1.0
C      1  0.4887630000000  0.4192290000000  0.4902060000000 1.0
C      1  0.5461060000000  0.5418150000000  0.5272490000000 1.0
C      1  0.4660390000000  0.4959060000000  0.5744390000000 1.0
C      1  0.4486840000000  0.4829880000000  0.4392520000000 1.0
C      1  0.5555740000000  0.4565380000000  0.4772670000000 1.0
C      1  0.4726500000000  0.4858830000000  0.5144740000000 1.0
C      1  0.4437350000000  0.4723950000000  0.4666520000000 1.0
C      1  0.5279600000000  0.5598390000000  0.4527430000000 1.0
C      1  0.5698110000000  0.4759130000000  0.4937840000000 1.0
C      1  0.4715180000000  0.4666840000000  0.4727000000000 1.0
C      1  0.4846860000000  0.4634930000000  0.4994140000000 1.0
C      1  0.5160760000000  0.5332070000000  0.4869170000000 1.0
C      1  0.4793350000000  0.5404860000000  0.5623560000000 1.0
C      1  0.4281250000000  0.5138630000000  0.5148430000000 1.0
C      1  0.4327900000000  0.4647610000000  0.5166770000000 1.0
C      1  0.4607140000000  0.5331580000000  0.4419360000000 1.0
C      1  0.4594660000000  0.5394080000000  0.5416820000000 1.0
C      1  0.5303480000000  0.4702730000000  0.5649630000000 1.0
C      1  0.5264330000000  0.5413350000000  0.5474760000000 1.0
C      1  0.5532090000000  0.4609560000000  0.4506020000000 1.0
C      1  0.4405140000000  0.5187610000000  0.5400710000000 1.0
C      1  0.4997700000000  0.5513710000000  0.5458340000000 1.0
C      1  0.4689790000000  0.5661620000000  0.4992230000000 1.0
C      1  0.5643560000000  0.4720990000000  0.5217120000000 1.0
C      1  0.5659060000000  0.5204760000000  0.5270970000000 1.0
C      1  0.5264990000000  0.5116020000000  0.4665970000000 1.0
C      1  0.4545500000000  0.5557070000000  0.4594900000000 1.0
C      1  0.5157360000000  0.5184150000000  0.4368630000000 1.0
C      1  0.5258130000000  0.4497230000000  0.5450200000000 1.0
C      1  0.5355470000000  0.4517720000000  0.4969020000000 1.0
C      1  0.5562370000000  0.5074980000000  0.4581110000000 1.0
C      1  0.5131000000000  0.4737700000000  0.4963790000000 1.0
C      1  0.4855220000000  0.4243690000000  0.4649280000000 1.0
C      1  0.5440830000000  0.5428290000000  0.4965080000000 1.0
C      1  0.4541840000000  0.4715130000000  0.5362990000000 1.0
C      1  0.5675050000000  0.5225950000000  0.4994690000000 1.0
C      1  0.5600060000000  0.5352190000000  0.4484660000000 1.0
C      1  0.4923360000000  0.5260610000000  0.5058150000000 1.0
C      1  0.5019070000000  0.5510210000000  0.4652470000000 1.0
C      1  0.4756690000000  0.4555670000000  0.5514250000000 1.0
C      1  0.4469200000000  0.4947020000000  0.5545860000000 1.0
C      1  0.4893480000000  0.5269560000000  0.4491530000000 1.0
C      1  0.4185360000000  0.4876340000000  0.5095570000000 1.0
C      1  0.5508540000000  0.5551210000000  0.4691350000000 1.0
C      1  0.4438240000000  0.5241250000000  0.4937430000000 1.0
C      1  0.4796900000000  0.4481140000000  0.4524870000000 1.0
C      1  0.4275440000000  0.4717160000000  0.4885630000000 1.0
C      1  0.5715210000000  0.5014080000000  0.4822410000000 1.0
C      1  0.4806640000000  0.5500210000000  0.5209190000000 1.0
C      1  0.5088900000000  0.5084770000000  0.5809930000000 1.0
C      1  0.4979510000000  0.4777880000000  0.4223450000000 1.0
C      1  0.5209450000000  0.4911160000000  0.4262280000000 1.0
C      1  0.4476410000000  0.5097540000000  0.4365440000000 1.0
C      1  0.5451150000000  0.4510930000000  0.5240210000000 1.0
C      1  0.4838910000000  0.4981860000000  0.4688860000000 1.0
C      1  0.4710930000000  0.5092360000000  0.4929690000000 1.0
C      1  0.5083100000000  0.4795550000000  0.5797290000000 1.0
C      1  0.5174150000000  0.4904250000000  0.5198860000000 1.0
C      1  0.4824990000000  0.5188060000000  0.5795530000000 1.0
C      1  0.5646420000000  0.4946600000000  0.5391230000000 1.0
C      1  0.4790010000000  0.5670540000000  0.4724920000000 1.0
C      1  0.4818650000000  0.4716540000000  0.5739650000000 1.0
C      1  0.5351660000000  0.5406620000000  0.4327630000000 1.0
C      1  0.5461910000000  0.4942500000000  0.5600380000000 1.0
C      1  0.4749230000000  0.4665060000000  0.4304560000000 1.0
C      1  0.4977490000000  0.4417010000000  0.5388460000000 1.0
C      1  0.5105900000000  0.4900850000000  0.4738470000000 1.0
C      1  0.5474890000000  0.4843420000000  0.4387090000000 1.0
C      1  0.4453430000000  0.5515690000000  0.4864780000000 1.0
C      1  0.4885740000000  0.4366710000000  0.5118660000000 1.0
C      1  0.4947870000000  0.5036210000000  0.5262800000000 1.0
END
