TITL C-18109-8085-5 -0.107353256846808 125000 -883.190369460552 0 0 126 (C1) n - 1
REM
REM in /rds/project/t2_vol4/rds-t2-cs072/BORA/CARBON/from-Arr/AIRSS/Generating-Clusters/GAP-ML-2020/Only-C1/SD-CG/HFTN-CG
REM
REM
REM
REM
REM
REM ./C.cell (11c1c37f851c82e70ff6c80c92926a4b)
REM AIRSS Version 0.9.1 bugfix July 2018 build 013d7b7c2542+ Fri, 06 Jul 2018 19:26:36 +0100
REM compiler GCC version 9.3.0
REM options -cpp -mtune=generic -march=x86-64 -g -O0
REM seed -240544795 1512022479 -1578819965 -1258907575 393248441 437440655 1406354518 1044213766 226483252 -1381814270 -1272610821 358513957 -2084385612 681112322 1515469381 -754351483 -878177679 -1054709403 1191820658 -1329939275 -1582332674 -257628591 837785017 976187531 -244022113 573907116 -770815131 -1997538914 164726086 -1353355417 -1214644803 1834861490 1583080486
REM
CELL 1.54180   50.00000   50.00000   50.00000   90.00000   90.00000   90.00000
LATT -1
SFAC C  
C      1  0.5470380000000  0.4830260000000  0.4394370000000 1.0
C      1  0.5125530000000  0.4512800000000  0.4767660000000 1.0
C      1  0.4988210000000  0.4916130000000  0.5903020000000 1.0
C      1  0.5166170000000  0.5314590000000  0.4076130000000 1.0
C      1  0.5392200000000  0.4416610000000  0.4388810000000 1.0
C      1  0.4637900000000  0.4807720000000  0.5005280000000 1.0
C      1  0.5870720000000  0.4959930000000  0.4597500000000 1.0
C      1  0.5033370000000  0.5328350000000  0.5364890000000 1.0
C      1  0.4506960000000  0.4441450000000  0.5608110000000 1.0
C      1  0.5590190000000  0.5629560000000  0.4748480000000 1.0
C      1  0.5826430000000  0.4680020000000  0.4670860000000 1.0
C      1  0.5006030000000  0.4745200000000  0.4608130000000 1.0
C      1  0.5148330000000  0.5860170000000  0.4623970000000 1.0
C      1  0.4170210000000  0.4729060000000  0.5413160000000 1.0
C      1  0.5201020000000  0.4495580000000  0.5753680000000 1.0
C      1  0.5203160000000  0.5826190000000  0.5394540000000 1.0
C      1  0.4844190000000  0.4650870000000  0.5157250000000 1.0
C      1  0.4253390000000  0.5081340000000  0.4909050000000 1.0
C      1  0.5407280000000  0.4607220000000  0.4848810000000 1.0
C      1  0.5985730000000  0.4999640000000  0.5406730000000 1.0
C      1  0.4307360000000  0.5435330000000  0.5318710000000 1.0
C      1  0.5410410000000  0.5383330000000  0.4210210000000 1.0
C      1  0.5031070000000  0.4853600000000  0.5263270000000 1.0
C      1  0.4971640000000  0.4426360000000  0.5022320000000 1.0
C      1  0.4419400000000  0.5163110000000  0.5706010000000 1.0
C      1  0.5291460000000  0.5695160000000  0.5640980000000 1.0
C      1  0.4970400000000  0.4029530000000  0.4826050000000 1.0
C      1  0.4698930000000  0.5870890000000  0.4696960000000 1.0
C      1  0.5133770000000  0.5000730000000  0.5017980000000 1.0
C      1  0.5054350000000  0.5185510000000  0.5820560000000 1.0
C      1  0.5102430000000  0.4761190000000  0.4103710000000 1.0
C      1  0.4293730000000  0.4480840000000  0.4531480000000 1.0
C      1  0.4766770000000  0.4848990000000  0.4743340000000 1.0
C      1  0.4497680000000  0.4229990000000  0.4922820000000 1.0
C      1  0.5557120000000  0.5633810000000  0.5030740000000 1.0
C      1  0.5188530000000  0.4712830000000  0.5957940000000 1.0
C      1  0.4771560000000  0.4160010000000  0.5010780000000 1.0
C      1  0.5855230000000  0.4589330000000  0.4942400000000 1.0
C      1  0.4469480000000  0.4283360000000  0.4645720000000 1.0
C      1  0.4679620000000  0.4478430000000  0.4288900000000 1.0
C      1  0.4316740000000  0.5320930000000  0.4426330000000 1.0
C      1  0.4870500000000  0.5417760000000  0.5811900000000 1.0
C      1  0.5286010000000  0.5466010000000  0.4448990000000 1.0
C      1  0.4804060000000  0.5294840000000  0.4757500000000 1.0
C      1  0.4697220000000  0.4248440000000  0.4467450000000 1.0
C      1  0.4627000000000  0.5062050000000  0.5169220000000 1.0
C      1  0.4869710000000  0.5095920000000  0.5319670000000 1.0
C      1  0.5583020000000  0.5053680000000  0.4962120000000 1.0
C      1  0.5274740000000  0.5730900000000  0.5113660000000 1.0
C      1  0.4468390000000  0.5677550000000  0.4712950000000 1.0
C      1  0.4471460000000  0.5551590000000  0.4429410000000 1.0
C      1  0.4245040000000  0.5729950000000  0.4913370000000 1.0
C      1  0.5801300000000  0.4785650000000  0.5452720000000 1.0
C      1  0.4356310000000  0.4335090000000  0.5154590000000 1.0
C      1  0.5562250000000  0.5173830000000  0.5203280000000 1.0
C      1  0.5727390000000  0.5410950000000  0.4608840000000 1.0
C      1  0.5067570000000  0.5039900000000  0.4021780000000 1.0
C      1  0.4350760000000  0.4676580000000  0.5621910000000 1.0
C      1  0.5719830000000  0.5434700000000  0.5194150000000 1.0
C      1  0.4875500000000  0.4712320000000  0.4300210000000 1.0
C      1  0.3996420000000  0.5062370000000  0.4772820000000 1.0
C      1  0.4521640000000  0.5550710000000  0.5485360000000 1.0
C      1  0.5264760000000  0.4112810000000  0.4830330000000 1.0
C      1  0.4413720000000  0.4584920000000  0.4293640000000 1.0
C      1  0.4213260000000  0.5208120000000  0.5501790000000 1.0
C      1  0.5427410000000  0.5054950000000  0.5452810000000 1.0
C      1  0.4174870000000  0.4678380000000  0.4686660000000 1.0
C      1  0.4936490000000  0.4126870000000  0.4553610000000 1.0
C      1  0.5253220000000  0.5253620000000  0.5581170000000 1.0
C      1  0.4505150000000  0.4260040000000  0.5388540000000 1.0
C      1  0.4491710000000  0.4887060000000  0.5760000000000 1.0
C      1  0.5644650000000  0.5299290000000  0.4352310000000 1.0
C      1  0.6053490000000  0.5033160000000  0.5139670000000 1.0
C      1  0.5376550000000  0.5707080000000  0.4576970000000 1.0
C      1  0.4779860000000  0.5644670000000  0.5090910000000 1.0
C      1  0.6020620000000  0.4779320000000  0.5029390000000 1.0
C      1  0.4437760000000  0.5267290000000  0.5080890000000 1.0
C      1  0.5657600000000  0.4980200000000  0.5634610000000 1.0
C      1  0.5825160000000  0.5196820000000  0.4779700000000 1.0
C      1  0.4874110000000  0.5814270000000  0.4490370000000 1.0
C      1  0.4805520000000  0.5146660000000  0.4091350000000 1.0
C      1  0.4686540000000  0.4965460000000  0.4289330000000 1.0
C      1  0.4604910000000  0.5465000000000  0.4914060000000 1.0
C      1  0.4167990000000  0.5647140000000  0.5143380000000 1.0
C      1  0.5587280000000  0.4477430000000  0.5077330000000 1.0
C      1  0.4709710000000  0.5716730000000  0.5360860000000 1.0
C      1  0.4991430000000  0.4199570000000  0.5432650000000 1.0
C      1  0.5563320000000  0.4585880000000  0.4574090000000 1.0
C      1  0.4931970000000  0.5811660000000  0.5502410000000 1.0
C      1  0.5702070000000  0.5018640000000  0.4375010000000 1.0
C      1  0.4746510000000  0.4136700000000  0.5308270000000 1.0
C      1  0.5062550000000  0.5271400000000  0.4884510000000 1.0
C      1  0.4595650000000  0.5392430000000  0.5710230000000 1.0
C      1  0.4880750000000  0.5419470000000  0.4135260000000 1.0
C      1  0.5191660000000  0.5240880000000  0.4625170000000 1.0
C      1  0.5122930000000  0.5898670000000  0.4903450000000 1.0
C      1  0.4218310000000  0.4586570000000  0.5169000000000 1.0
C      1  0.5205430000000  0.4264690000000  0.4575790000000 1.0
C      1  0.5338950000000  0.4635530000000  0.4205510000000 1.0
C      1  0.4980710000000  0.4352100000000  0.5675380000000 1.0
C      1  0.4036090000000  0.4901410000000  0.4558470000000 1.0
C      1  0.5558140000000  0.4770230000000  0.5799110000000 1.0
C      1  0.5287320000000  0.4814510000000  0.5408460000000 1.0
C      1  0.5363810000000  0.4901390000000  0.4871710000000 1.0
C      1  0.5724570000000  0.5435670000000  0.5500720000000 1.0
C      1  0.4674840000000  0.5079010000000  0.4606610000000 1.0
C      1  0.4215180000000  0.5034930000000  0.4371450000000 1.0
C      1  0.5460260000000  0.5475060000000  0.5630600000000 1.0
C      1  0.5166410000000  0.4275220000000  0.5214850000000 1.0
C      1  0.5245150000000  0.4954630000000  0.4593080000000 1.0
C      1  0.4406520000000  0.4864440000000  0.4243190000000 1.0
C      1  0.5448960000000  0.4767230000000  0.6046580000000 1.0
C      1  0.4742730000000  0.5610010000000  0.4311660000000 1.0
C      1  0.5061750000000  0.5485160000000  0.5113000000000 1.0
C      1  0.5408120000000  0.4606440000000  0.5579950000000 1.0
C      1  0.5956100000000  0.5282730000000  0.5030190000000 1.0
C      1  0.5858580000000  0.5194820000000  0.5587050000000 1.0
C      1  0.4093550000000  0.4991250000000  0.5402400000000 1.0
C      1  0.5009690000000  0.5658970000000  0.5733630000000 1.0
C      1  0.5610550000000  0.4596660000000  0.5354460000000 1.0
C      1  0.5401680000000  0.4227700000000  0.5064810000000 1.0
C      1  0.4307670000000  0.4765960000000  0.4946710000000 1.0
C      1  0.4845630000000  0.5885570000000  0.4936820000000 1.0
C      1  0.4744520000000  0.4775260000000  0.5839270000000 1.0
C      1  0.4744730000000  0.4495300000000  0.5748420000000 1.0
C      1  0.4391650000000  0.5142230000000  0.4640840000000 1.0
END
