TITL C-18095-6063-3 0.037440873079999 125000 -181.711729314805 0 0 29 (C1) n - 1
REM
REM in /rds/project/t2_vol4/rds-t2-cs072/BORA/CARBON/from-Arr/AIRSS/Generating-Clusters/GAP-ML-2020/Only-C1/SD-CG/HFTN-CG
REM
REM
REM
REM
REM
REM ./C.cell (11c1c37f851c82e70ff6c80c92926a4b)
REM AIRSS Version 0.9.1 bugfix July 2018 build 013d7b7c2542+ Fri, 06 Jul 2018 19:26:36 +0100
REM compiler GCC version 9.3.0
REM options -cpp -mtune=generic -march=x86-64 -g -O0
REM seed -99748618 -963252179 1005280549 1910007231 1321987699 1050292293 -1113908832 658332718 444067112 -1311472177 532928927 1502165032 972789143 -1338412374 -587661417 -1254511621 1199648833 -60271869 -1757912478 1870962874 -295336391 -257668100 -499721637 1092118957 1533854292 66840044 1942563095 971704480 -1222120981 1469715591 257564624 1761786424 -1565705485
REM
CELL 1.54180   50.00000   50.00000   50.00000   90.00000   90.00000   90.00000
LATT -1
SFAC C  
C      1  0.4491170000000  0.5519050000000  0.5004610000000 1.0
C      1  0.4697650000000  0.4630880000000  0.4773060000000 1.0
C      1  0.4952530000000  0.4815030000000  0.5326670000000 1.0
C      1  0.5506850000000  0.5165700000000  0.4579410000000 1.0
C      1  0.4805840000000  0.4691000000000  0.4522690000000 1.0
C      1  0.5157500000000  0.4909760000000  0.5474060000000 1.0
C      1  0.5483220000000  0.5087920000000  0.4831880000000 1.0
C      1  0.4552760000000  0.5315010000000  0.4827770000000 1.0
C      1  0.5107380000000  0.4763820000000  0.4876510000000 1.0
C      1  0.5482370000000  0.5297450000000  0.5092740000000 1.0
C      1  0.5382020000000  0.4837450000000  0.4949680000000 1.0
C      1  0.5661840000000  0.5252170000000  0.5298750000000 1.0
C      1  0.5222510000000  0.5310410000000  0.5156090000000 1.0
C      1  0.4891430000000  0.4955800000000  0.5070420000000 1.0
C      1  0.5557090000000  0.4791930000000  0.5156840000000 1.0
C      1  0.5575260000000  0.4994920000000  0.5349590000000 1.0
C      1  0.4890430000000  0.4543120000000  0.5278280000000 1.0
C      1  0.4927290000000  0.4510090000000  0.4912910000000 1.0
C      1  0.4639900000000  0.4867780000000  0.4939150000000 1.0
C      1  0.5391650000000  0.4957660000000  0.5565330000000 1.0
C      1  0.4995350000000  0.5234280000000  0.5049460000000 1.0
C      1  0.4943650000000  0.5126020000000  0.4582490000000 1.0
C      1  0.4440460000000  0.5052820000000  0.4923630000000 1.0
C      1  0.4306550000000  0.5400620000000  0.5180690000000 1.0
C      1  0.4757560000000  0.5320130000000  0.4638120000000 1.0
C      1  0.5012000000000  0.4857070000000  0.4601550000000 1.0
C      1  0.4910600000000  0.4332890000000  0.5122650000000 1.0
C      1  0.5004300000000  0.5316370000000  0.4778470000000 1.0
C      1  0.4252840000000  0.5142820000000  0.5136500000000 1.0
END
