TITL C-184273-2498-6 -3.37788014653795 125000 -451.272546834948 0 0 66 (C1) n - 1
REM
REM in /rds/project/t2_vol4/rds-t2-cs072/BORA/CARBON/from-Arr/AIRSS/Generating-Clusters/GAP-ML-2020/Only-C1/SD-CG/HFTN-CG
REM
REM
REM
REM
REM
REM ./C.cell (11c1c37f851c82e70ff6c80c92926a4b)
REM AIRSS Version 0.9.1 bugfix July 2018 build 013d7b7c2542+ Fri, 06 Jul 2018 19:26:36 +0100
REM compiler GCC version 9.3.0
REM options -cpp -mtune=generic -march=x86-64 -g -O0
REM seed 1315584641 1562532331 -1298197954 1920516029 -1264286396 -232316322 -295216221 2073634915 164280735 171595552 -1796261493 -197624222 -1294277084 -21870746 -1161419061 -656445317 -1871382265 2101025218 -1047921926 515143438 1755778653 -1273233438 -948841883 -2037934272 -332157561 -900081886 -1419539620 1520139940 -1071048259 -1969968548 1360988952 -575981270 1486262345
REM
CELL 1.54180   50.00000   50.00000   50.00000   90.00000   90.00000   90.00000
LATT -1
SFAC C  
C      1  0.4360610000000  0.4925280000000  0.5016000000000 1.0
C      1  0.4651620000000  0.4364420000000  0.5048730000000 1.0
C      1  0.5614710000000  0.5211280000000  0.4615540000000 1.0
C      1  0.4946550000000  0.5346820000000  0.5622810000000 1.0
C      1  0.5112260000000  0.4727970000000  0.4429470000000 1.0
C      1  0.5259490000000  0.5064930000000  0.5603920000000 1.0
C      1  0.4642070000000  0.4913570000000  0.4493340000000 1.0
C      1  0.4872680000000  0.4248700000000  0.5174210000000 1.0
C      1  0.5034840000000  0.4477650000000  0.4541940000000 1.0
C      1  0.5014830000000  0.4754880000000  0.5291970000000 1.0
C      1  0.5057910000000  0.5167990000000  0.4656140000000 1.0
C      1  0.5003340000000  0.4377310000000  0.5416450000000 1.0
C      1  0.5261250000000  0.5038490000000  0.4854330000000 1.0
C      1  0.4763660000000  0.5544270000000  0.4391870000000 1.0
C      1  0.5288020000000  0.4358530000000  0.5252470000000 1.0
C      1  0.5233790000000  0.4357660000000  0.4722860000000 1.0
C      1  0.5449780000000  0.5454600000000  0.4659470000000 1.0
C      1  0.4861140000000  0.5280250000000  0.4856540000000 1.0
C      1  0.4901790000000  0.4616240000000  0.5526520000000 1.0
C      1  0.4559790000000  0.5411590000000  0.4507900000000 1.0
C      1  0.5289780000000  0.5670330000000  0.5075770000000 1.0
C      1  0.4791100000000  0.4872510000000  0.5640530000000 1.0
C      1  0.4482070000000  0.5140660000000  0.4548020000000 1.0
C      1  0.4514780000000  0.5560560000000  0.4757390000000 1.0
C      1  0.4336600000000  0.5136250000000  0.4796330000000 1.0
C      1  0.5390920000000  0.5308570000000  0.5505010000000 1.0
C      1  0.5511210000000  0.4771360000000  0.5372720000000 1.0
C      1  0.5690960000000  0.4968620000000  0.5287810000000 1.0
C      1  0.5257540000000  0.4762200000000  0.4880080000000 1.0
C      1  0.5088960000000  0.5654170000000  0.5258910000000 1.0
C      1  0.4621050000000  0.5510240000000  0.5304860000000 1.0
C      1  0.5726190000000  0.4899960000000  0.5012040000000 1.0
C      1  0.4356540000000  0.5390550000000  0.4914060000000 1.0
C      1  0.4693630000000  0.5335720000000  0.5516920000000 1.0
C      1  0.4947240000000  0.5188560000000  0.5112460000000 1.0
C      1  0.5181210000000  0.5436510000000  0.4571750000000 1.0
C      1  0.4403880000000  0.5364170000000  0.5189260000000 1.0
C      1  0.4781320000000  0.4592900000000  0.4918930000000 1.0
C      1  0.5222550000000  0.5121250000000  0.5116940000000 1.0
C      1  0.4384960000000  0.5093140000000  0.5274140000000 1.0
C      1  0.4385120000000  0.4401310000000  0.4964510000000 1.0
C      1  0.5507500000000  0.4528830000000  0.5218110000000 1.0
C      1  0.5736690000000  0.5150510000000  0.4876690000000 1.0
C      1  0.5531660000000  0.4992690000000  0.4472310000000 1.0
C      1  0.4348970000000  0.4554870000000  0.4730010000000 1.0
C      1  0.4784530000000  0.5592640000000  0.4853860000000 1.0
C      1  0.4777050000000  0.4494840000000  0.4640700000000 1.0
C      1  0.5138240000000  0.4313930000000  0.5008410000000 1.0
C      1  0.5437700000000  0.4568110000000  0.4716150000000 1.0
C      1  0.4929710000000  0.4951010000000  0.4481610000000 1.0
C      1  0.5595390000000  0.4640030000000  0.4958890000000 1.0
C      1  0.4954530000000  0.5612580000000  0.4580350000000 1.0
C      1  0.5663630000000  0.5356500000000  0.5067060000000 1.0
C      1  0.5401600000000  0.4757180000000  0.4481690000000 1.0
C      1  0.5055600000000  0.4620380000000  0.5026660000000 1.0
C      1  0.4999410000000  0.5074560000000  0.5705990000000 1.0
C      1  0.4804230000000  0.4954970000000  0.5207210000000 1.0
C      1  0.5614290000000  0.5247410000000  0.5325850000000 1.0
C      1  0.4554490000000  0.4647530000000  0.4558020000000 1.0
C      1  0.4640770000000  0.4827080000000  0.5013660000000 1.0
C      1  0.5484770000000  0.5540440000000  0.4940870000000 1.0
C      1  0.4246970000000  0.4657830000000  0.4963960000000 1.0
C      1  0.5159980000000  0.5481840000000  0.5484780000000 1.0
C      1  0.4814400000000  0.5655730000000  0.5154890000000 1.0
C      1  0.4611860000000  0.5052280000000  0.5467820000000 1.0
C      1  0.5258300000000  0.4904240000000  0.5363530000000 1.0
END
