TITL C-18088-6851-4 74.6990652350707 125000 -386.515845763742 0 0 58 (C1) n - 1
REM
REM in /rds/project/t2_vol4/rds-t2-cs072/BORA/CARBON/from-Arr/AIRSS/Generating-Clusters/GAP-ML-2020/Only-C1/SD-CG/HFTN-CG
REM
REM
REM
REM
REM
REM ./C.cell (11c1c37f851c82e70ff6c80c92926a4b)
REM AIRSS Version 0.9.1 bugfix July 2018 build 013d7b7c2542+ Fri, 06 Jul 2018 19:26:36 +0100
REM compiler GCC version 9.3.0
REM options -cpp -mtune=generic -march=x86-64 -g -O0
REM seed 729027923 879491619 -455776794 56692203 -1421937407 2095278189 -387131375 -363683076 -733909387 724956106 -1079623979 -725056477 107009272 856693430 -2016882507 1854212549 215243826 1594237678 617892608 639586894 -722894050 -273754105 1344466404 1424343547 1286566647 854273584 999010694 757427572 515227782 924918897 1999288402 -1722132287 -1433310214
REM
CELL 1.54180   50.00000   50.00000   50.00000   90.00000   90.00000   90.00000
LATT -1
SFAC C  
C      1  0.4662780000000  0.5027810000000  0.4437610000000 1.0
C      1  0.5062870000000  0.5011590000000  0.5646560000000 1.0
C      1  0.4711260000000  0.5750640000000  0.5302170000000 1.0
C      1  0.5197380000000  0.5239860000000  0.5542120000000 1.0
C      1  0.4402000000000  0.4861700000000  0.5335090000000 1.0
C      1  0.5578340000000  0.5188210000000  0.4521580000000 1.0
C      1  0.5588090000000  0.4818410000000  0.4919590000000 1.0
C      1  0.5466660000000  0.5246630000000  0.5454500000000 1.0
C      1  0.5087350000000  0.5352380000000  0.5088760000000 1.0
C      1  0.4849400000000  0.4654470000000  0.5603710000000 1.0
C      1  0.4732060000000  0.4901860000000  0.4201730000000 1.0
C      1  0.4515760000000  0.4328360000000  0.4802010000000 1.0
C      1  0.4626080000000  0.5340440000000  0.5049670000000 1.0
C      1  0.4603230000000  0.5293830000000  0.5353760000000 1.0
C      1  0.4671890000000  0.4185740000000  0.4646240000000 1.0
C      1  0.5271680000000  0.5694740000000  0.4905190000000 1.0
C      1  0.4784570000000  0.5508730000000  0.5415100000000 1.0
C      1  0.5685190000000  0.4883120000000  0.5192660000000 1.0
C      1  0.4487430000000  0.5254750000000  0.4804950000000 1.0
C      1  0.5173800000000  0.5429460000000  0.4500490000000 1.0
C      1  0.5113840000000  0.4446970000000  0.4642790000000 1.0
C      1  0.4741210000000  0.5635560000000  0.5061100000000 1.0
C      1  0.5126170000000  0.4731500000000  0.5576410000000 1.0
C      1  0.5191690000000  0.4961660000000  0.4642400000000 1.0
C      1  0.5475760000000  0.5644940000000  0.5105000000000 1.0
C      1  0.5671750000000  0.5140930000000  0.5304600000000 1.0
C      1  0.5258240000000  0.4662220000000  0.5324010000000 1.0
C      1  0.4655070000000  0.5288170000000  0.4571900000000 1.0
C      1  0.5124130000000  0.4806650000000  0.5092300000000 1.0
C      1  0.5525690000000  0.4542320000000  0.4963260000000 1.0
C      1  0.4948000000000  0.4764340000000  0.4251610000000 1.0
C      1  0.4853120000000  0.4896750000000  0.5129710000000 1.0
C      1  0.4929330000000  0.5402340000000  0.4645430000000 1.0
C      1  0.4782680000000  0.4858360000000  0.4655240000000 1.0
C      1  0.5315550000000  0.4946210000000  0.4910360000000 1.0
C      1  0.4948060000000  0.5111360000000  0.4746430000000 1.0
C      1  0.5108890000000  0.4488310000000  0.5122330000000 1.0
C      1  0.5541160000000  0.4639020000000  0.5248490000000 1.0
C      1  0.4592330000000  0.4518890000000  0.5001270000000 1.0
C      1  0.4778550000000  0.4938540000000  0.5638710000000 1.0
C      1  0.5319340000000  0.5160790000000  0.4460170000000 1.0
C      1  0.4923190000000  0.4252600000000  0.4604420000000 1.0
C      1  0.4644650000000  0.4794450000000  0.4903670000000 1.0
C      1  0.5359400000000  0.5582520000000  0.4660270000000 1.0
C      1  0.5275570000000  0.4439990000000  0.4891620000000 1.0
C      1  0.4414990000000  0.4995050000000  0.4907860000000 1.0
C      1  0.4722030000000  0.4505730000000  0.5409010000000 1.0
C      1  0.4255590000000  0.4963080000000  0.5120560000000 1.0
C      1  0.5531030000000  0.5373690000000  0.5186600000000 1.0
C      1  0.5512470000000  0.5355130000000  0.4735150000000 1.0
C      1  0.5054410000000  0.5420470000000  0.5374120000000 1.0
C      1  0.4565330000000  0.5048140000000  0.5485000000000 1.0
C      1  0.4487700000000  0.4599200000000  0.5285330000000 1.0
C      1  0.5041270000000  0.4720820000000  0.4530960000000 1.0
C      1  0.4840140000000  0.4411170000000  0.5170140000000 1.0
C      1  0.4878210000000  0.5165490000000  0.5034670000000 1.0
C      1  0.5350230000000  0.5238510000000  0.4975040000000 1.0
C      1  0.4985440000000  0.5575390000000  0.4908610000000 1.0
END
