TITL C-18099-6062-6 -0.0293543261568643 125000 -703.228036227214 0 0 100 (C1) n - 1
REM
REM in /rds/project/t2_vol4/rds-t2-cs072/BORA/CARBON/from-Arr/AIRSS/Generating-Clusters/GAP-ML-2020/Only-C1/SD-CG/HFTN-CG
REM
REM
REM
REM
REM
REM ./C.cell (11c1c37f851c82e70ff6c80c92926a4b)
REM AIRSS Version 0.9.1 bugfix July 2018 build 013d7b7c2542+ Fri, 06 Jul 2018 19:26:36 +0100
REM compiler GCC version 9.3.0
REM options -cpp -mtune=generic -march=x86-64 -g -O0
REM seed -1464942614 -1187161523 -777361266 -232806083 399588332 -447060624 1526934314 -507689579 1167093529 -127562990 -452710044 -1797328887 -1150513870 -1654424385 -1782657847 -1450164481 -96415475 -840155603 -1301309564 578357823 -1404325999 2079267599 2017561348 -1920706467 -1040159544 -147285981 -14127801 302434447 -859286831 1190142232 -2029484948 -639227435 -1063408316
REM
CELL 1.54180   50.00000   50.00000   50.00000   90.00000   90.00000   90.00000
LATT -1
SFAC C  
C      1  0.5833880000000  0.5003830000000  0.5039350000000 1.0
C      1  0.5053330000000  0.5298590000000  0.4686970000000 1.0
C      1  0.5090050000000  0.4307700000000  0.5470450000000 1.0
C      1  0.4272110000000  0.4846010000000  0.5458940000000 1.0
C      1  0.5679230000000  0.5410890000000  0.4762530000000 1.0
C      1  0.4132720000000  0.4780940000000  0.5010290000000 1.0
C      1  0.5213920000000  0.5968900000000  0.4832630000000 1.0
C      1  0.4406580000000  0.5392220000000  0.4465770000000 1.0
C      1  0.5334580000000  0.4111800000000  0.5081500000000 1.0
C      1  0.4808080000000  0.5318550000000  0.4203820000000 1.0
C      1  0.5461770000000  0.5310550000000  0.4335740000000 1.0
C      1  0.4839840000000  0.4885950000000  0.4750050000000 1.0
C      1  0.5119630000000  0.5724870000000  0.5239230000000 1.0
C      1  0.5743910000000  0.4629490000000  0.5318280000000 1.0
C      1  0.4521340000000  0.4836270000000  0.5624690000000 1.0
C      1  0.4455470000000  0.4519540000000  0.4820670000000 1.0
C      1  0.4690330000000  0.4753540000000  0.4294340000000 1.0
C      1  0.5771500000000  0.4742430000000  0.4607780000000 1.0
C      1  0.4766590000000  0.4712900000000  0.5489080000000 1.0
C      1  0.4591340000000  0.5620410000000  0.4491540000000 1.0
C      1  0.5092050000000  0.4499020000000  0.4472090000000 1.0
C      1  0.4477990000000  0.4939380000000  0.4341660000000 1.0
C      1  0.4720570000000  0.5247200000000  0.5013040000000 1.0
C      1  0.5311970000000  0.5117570000000  0.4205350000000 1.0
C      1  0.5264040000000  0.4822830000000  0.5381550000000 1.0
C      1  0.4115050000000  0.5263130000000  0.4907020000000 1.0
C      1  0.4829060000000  0.4423830000000  0.5460800000000 1.0
C      1  0.5846250000000  0.4551820000000  0.5062750000000 1.0
C      1  0.4639020000000  0.5671730000000  0.5405510000000 1.0
C      1  0.5345460000000  0.5534570000000  0.5152260000000 1.0
C      1  0.5433220000000  0.5046950000000  0.5338570000000 1.0
C      1  0.5569380000000  0.4216100000000  0.5205400000000 1.0
C      1  0.4859590000000  0.4241400000000  0.4793560000000 1.0
C      1  0.4927800000000  0.5163420000000  0.5447600000000 1.0
C      1  0.5021020000000  0.5127520000000  0.4163380000000 1.0
C      1  0.5550460000000  0.5469700000000  0.5385500000000 1.0
C      1  0.4540710000000  0.5214910000000  0.4277420000000 1.0
C      1  0.4236500000000  0.5221730000000  0.4643230000000 1.0
C      1  0.5265520000000  0.5156260000000  0.4824660000000 1.0
C      1  0.4262150000000  0.4662300000000  0.5233890000000 1.0
C      1  0.4268280000000  0.4729380000000  0.4761650000000 1.0
C      1  0.4925470000000  0.4846810000000  0.5030230000000 1.0
C      1  0.5187000000000  0.4724670000000  0.4973170000000 1.0
C      1  0.4779530000000  0.4510410000000  0.4426560000000 1.0
C      1  0.4928280000000  0.5643390000000  0.5440620000000 1.0
C      1  0.4182320000000  0.5471220000000  0.5100020000000 1.0
C      1  0.5019350000000  0.4887820000000  0.5536720000000 1.0
C      1  0.4804630000000  0.5164010000000  0.4745300000000 1.0
C      1  0.4835020000000  0.5557240000000  0.4352900000000 1.0
C      1  0.5150910000000  0.4894570000000  0.5809020000000 1.0
C      1  0.4980030000000  0.5157820000000  0.5160590000000 1.0
C      1  0.5273610000000  0.4626760000000  0.5792690000000 1.0
C      1  0.4765690000000  0.5890560000000  0.4968080000000 1.0
C      1  0.5571250000000  0.4403520000000  0.5423160000000 1.0
C      1  0.5266180000000  0.5226610000000  0.5112420000000 1.0
C      1  0.5273930000000  0.5736570000000  0.4696480000000 1.0
C      1  0.5299230000000  0.4626420000000  0.5188980000000 1.0
C      1  0.5101660000000  0.4153390000000  0.5225650000000 1.0
C      1  0.4633650000000  0.5184010000000  0.5509090000000 1.0
C      1  0.5766530000000  0.5417490000000  0.5235690000000 1.0
C      1  0.4993260000000  0.5413600000000  0.5597740000000 1.0
C      1  0.4942570000000  0.4883800000000  0.4271860000000 1.0
C      1  0.4860230000000  0.4186050000000  0.5074450000000 1.0
C      1  0.4750970000000  0.5691610000000  0.4740470000000 1.0
C      1  0.4684760000000  0.4331860000000  0.5235250000000 1.0
C      1  0.5053900000000  0.4795510000000  0.4553670000000 1.0
C      1  0.4560520000000  0.5059950000000  0.5191660000000 1.0
C      1  0.4612570000000  0.5507740000000  0.4919530000000 1.0
C      1  0.5705490000000  0.4915660000000  0.5277880000000 1.0
C      1  0.4293790000000  0.4947160000000  0.4567890000000 1.0
C      1  0.5321950000000  0.4424090000000  0.5612560000000 1.0
C      1  0.4639070000000  0.5036520000000  0.5781270000000 1.0
C      1  0.5585240000000  0.4306660000000  0.4734870000000 1.0
C      1  0.4567020000000  0.5803720000000  0.5163440000000 1.0
C      1  0.4481100000000  0.5434270000000  0.5480100000000 1.0
C      1  0.5386540000000  0.4593990000000  0.4368970000000 1.0
C      1  0.5460910000000  0.4874780000000  0.4288300000000 1.0
C      1  0.5107100000000  0.4271430000000  0.4658860000000 1.0
C      1  0.4506400000000  0.4536530000000  0.5117320000000 1.0
C      1  0.4225640000000  0.5364680000000  0.5361960000000 1.0
C      1  0.4377460000000  0.5647230000000  0.5016850000000 1.0
C      1  0.5672140000000  0.5258210000000  0.4503160000000 1.0
C      1  0.5057410000000  0.5303070000000  0.5854810000000 1.0
C      1  0.4141820000000  0.5086820000000  0.5357770000000 1.0
C      1  0.4659900000000  0.4397600000000  0.4661160000000 1.0
C      1  0.5039130000000  0.5922350000000  0.5043300000000 1.0
C      1  0.5019570000000  0.5584300000000  0.4603240000000 1.0
C      1  0.5337000000000  0.4177920000000  0.4794210000000 1.0
C      1  0.4059870000000  0.5040050000000  0.5078060000000 1.0
C      1  0.5456310000000  0.5242200000000  0.5560050000000 1.0
C      1  0.5724860000000  0.4316680000000  0.4985860000000 1.0
C      1  0.5281480000000  0.4883610000000  0.4752850000000 1.0
C      1  0.5682470000000  0.4964720000000  0.4449210000000 1.0
C      1  0.5306650000000  0.5176500000000  0.5792340000000 1.0
C      1  0.5869950000000  0.4769460000000  0.4875270000000 1.0
C      1  0.5802550000000  0.5288650000000  0.4995370000000 1.0
C      1  0.5602280000000  0.4515010000000  0.4540200000000 1.0
C      1  0.4692450000000  0.4787520000000  0.5200280000000 1.0
C      1  0.5472030000000  0.5591960000000  0.4851840000000 1.0
C      1  0.4899090000000  0.5047160000000  0.5898210000000 1.0
END
