TITL C-184287-2493-2 36.7311800644549 125000 -281.015752196594 0 0 43 (C1) n - 1
REM
REM in /rds/project/t2_vol4/rds-t2-cs072/BORA/CARBON/from-Arr/AIRSS/Generating-Clusters/GAP-ML-2020/Only-C1/SD-CG/HFTN-CG
REM
REM
REM
REM
REM
REM ./C.cell (11c1c37f851c82e70ff6c80c92926a4b)
REM AIRSS Version 0.9.1 bugfix July 2018 build 013d7b7c2542+ Fri, 06 Jul 2018 19:26:36 +0100
REM compiler GCC version 9.3.0
REM options -cpp -mtune=generic -march=x86-64 -g -O0
REM seed -232092557 -610239383 -2131509351 -508753601 -2118517615 1014668250 1073420095 562950958 -1651383353 -1082452395 -916122108 -107028376 1866020407 1400585794 -1936366458 -718270954 154027050 -1226110957 1328073188 -758074576 165009724 -185826852 -713125384 1721070530 -336267149 267937587 1445230950 -1493787520 1572447860 -1527642571 2089896350 -1447358419 -181516043
REM
CELL 1.54180   50.00000   50.00000   50.00000   90.00000   90.00000   90.00000
LATT -1
SFAC C  
C      1  0.5181620000000  0.5014130000000  0.4538930000000 1.0
C      1  0.5223380000000  0.4684120000000  0.5417660000000 1.0
C      1  0.5470770000000  0.5081110000000  0.5230300000000 1.0
C      1  0.5433840000000  0.5411110000000  0.4680710000000 1.0
C      1  0.4871240000000  0.4729620000000  0.4748630000000 1.0
C      1  0.5050810000000  0.4540020000000  0.5592990000000 1.0
C      1  0.4754230000000  0.4928880000000  0.5470140000000 1.0
C      1  0.5349090000000  0.4524120000000  0.4757890000000 1.0
C      1  0.4591740000000  0.5316400000000  0.5085640000000 1.0
C      1  0.5168360000000  0.4405970000000  0.4955980000000 1.0
C      1  0.4649860000000  0.5309630000000  0.5374780000000 1.0
C      1  0.5099930000000  0.4742390000000  0.4547410000000 1.0
C      1  0.5339080000000  0.5564320000000  0.5147180000000 1.0
C      1  0.5178970000000  0.5208200000000  0.5496490000000 1.0
C      1  0.4976600000000  0.5202820000000  0.4470550000000 1.0
C      1  0.4807280000000  0.5326820000000  0.4876910000000 1.0
C      1  0.5214040000000  0.4653780000000  0.5125490000000 1.0
C      1  0.4955510000000  0.5560780000000  0.4783120000000 1.0
C      1  0.5499530000000  0.4987180000000  0.4964050000000 1.0
C      1  0.5364510000000  0.5343790000000  0.5305780000000 1.0
C      1  0.4641500000000  0.4909440000000  0.4681420000000 1.0
C      1  0.4305140000000  0.4874880000000  0.5095910000000 1.0
C      1  0.4373240000000  0.5140710000000  0.5014920000000 1.0
C      1  0.5162770000000  0.5661980000000  0.4947600000000 1.0
C      1  0.4408310000000  0.4932300000000  0.4825800000000 1.0
C      1  0.5317810000000  0.5510440000000  0.4452050000000 1.0
C      1  0.5087960000000  0.5158090000000  0.4940620000000 1.0
C      1  0.5342820000000  0.5149340000000  0.4768200000000 1.0
C      1  0.5434620000000  0.5615960000000  0.4884740000000 1.0
C      1  0.5067620000000  0.5466890000000  0.4536140000000 1.0
C      1  0.4412820000000  0.4654910000000  0.5202940000000 1.0
C      1  0.4901320000000  0.5194750000000  0.5505530000000 1.0
C      1  0.4742620000000  0.5168840000000  0.4621150000000 1.0
C      1  0.5018650000000  0.4878440000000  0.5003770000000 1.0
C      1  0.4825120000000  0.4637770000000  0.5471530000000 1.0
C      1  0.5268060000000  0.4527130000000  0.4496640000000 1.0
C      1  0.4775040000000  0.4889900000000  0.5150640000000 1.0
C      1  0.5324350000000  0.4949340000000  0.5446330000000 1.0
C      1  0.4952870000000  0.4259850000000  0.4868580000000 1.0
C      1  0.4510140000000  0.5084900000000  0.5482180000000 1.0
C      1  0.4802310000000  0.4485470000000  0.4904610000000 1.0
C      1  0.5453260000000  0.4714290000000  0.4954270000000 1.0
C      1  0.4691280000000  0.4599220000000  0.5173800000000 1.0
END
