TITL C-184272-2484-5 0.00522003640651444 125000 -22.9478494850976 0 0 4 (D(inf)h) n - 1
REM
REM in /rds/project/t2_vol4/rds-t2-cs072/BORA/CARBON/from-Arr/AIRSS/Generating-Clusters/GAP-ML-2020/Only-C1/SD-CG/HFTN-CG
REM
REM
REM
REM
REM
REM ./C.cell (11c1c37f851c82e70ff6c80c92926a4b)
REM AIRSS Version 0.9.1 bugfix July 2018 build 013d7b7c2542+ Fri, 06 Jul 2018 19:26:36 +0100
REM compiler GCC version 9.3.0
REM options -cpp -mtune=generic -march=x86-64 -g -O0
REM seed -2028973681 -2004207617 1953971910 1528199293 -1502699342 2104584667 1032908668 -473867035 1232187389 -120751558 1174615116 -1555587999 -1530889760 -1296759105 548521991 -753599329 -1818589541 -1551437366 -1087606617 1093212571 -1108512670 -2061584123 13076018 -1160826927 -563581432 1536765558 -1671552179 -1153654321 1052521542 1056334719 2049351980 793299051 251520413
REM
CELL 1.54180   50.00000   50.00000   50.00000   90.00000   90.00000   90.00000
LATT -1
SFAC C  
C      1  0.4995490000000  0.4640660000000  0.5147940000000 1.0
C      1  0.4998440000000  0.4875490000000  0.5051260000000 1.0
C      1  0.5004510000000  0.5359340000000  0.4852060000000 1.0
C      1  0.5001560000000  0.5124510000000  0.4948740000000 1.0
END
