TITL C-184285-2465-2 277.722512788932 125000 -297.709768428976 0 0 45 (C1) n - 1
REM
REM in /rds/project/t2_vol4/rds-t2-cs072/BORA/CARBON/from-Arr/AIRSS/Generating-Clusters/GAP-ML-2020/Only-C1/SD-CG/HFTN-CG
REM
REM
REM
REM
REM
REM ./C.cell (11c1c37f851c82e70ff6c80c92926a4b)
REM AIRSS Version 0.9.1 bugfix July 2018 build 013d7b7c2542+ Fri, 06 Jul 2018 19:26:36 +0100
REM compiler GCC version 9.3.0
REM options -cpp -mtune=generic -march=x86-64 -g -O0
REM seed 1199325387 988216741 -1100252287 -805700496 -1036741190 -1129684600 2025099759 669812748 -1663676267 -1761394952 -1771206341 237591667 -1192387688 1527084967 -1129411792 1255000327 -2069673040 -445159354 1927646804 149339111 -2080064251 713139653 961569033 1789236812 -251602108 -1703932015 730053474 -1049805831 -448636480 -362952635 2135908054 808510593 62177105
REM
CELL 1.54180   50.00000   50.00000   50.00000   90.00000   90.00000   90.00000
LATT -1
SFAC C  
C      1  0.4900680000000  0.5161570000000  0.4865090000000 1.0
C      1  0.5036580000000  0.4974710000000  0.5601340000000 1.0
C      1  0.4817440000000  0.5286700000000  0.4597660000000 1.0
C      1  0.4806310000000  0.5518280000000  0.5167270000000 1.0
C      1  0.5365330000000  0.5509060000000  0.4724700000000 1.0
C      1  0.4784150000000  0.4464460000000  0.5385500000000 1.0
C      1  0.5164250000000  0.5077470000000  0.4470770000000 1.0
C      1  0.4662830000000  0.4666010000000  0.5562410000000 1.0
C      1  0.4497560000000  0.4769000000000  0.5132730000000 1.0
C      1  0.5165020000000  0.4851750000000  0.4656360000000 1.0
C      1  0.5357920000000  0.5241410000000  0.4603020000000 1.0
C      1  0.5253600000000  0.4631670000000  0.5036550000000 1.0
C      1  0.5660510000000  0.5219490000000  0.5250470000000 1.0
C      1  0.5136600000000  0.5130050000000  0.5031740000000 1.0
C      1  0.4426510000000  0.5102230000000  0.4738770000000 1.0
C      1  0.5322930000000  0.4920540000000  0.4899810000000 1.0
C      1  0.4526000000000  0.4870150000000  0.5412040000000 1.0
C      1  0.4941710000000  0.4709760000000  0.5016270000000 1.0
C      1  0.5047890000000  0.4526130000000  0.5478870000000 1.0
C      1  0.4924580000000  0.4720090000000  0.5660290000000 1.0
C      1  0.5624070000000  0.5513230000000  0.4848900000000 1.0
C      1  0.5534040000000  0.5083570000000  0.4785560000000 1.0
C      1  0.4853950000000  0.5202550000000  0.5547330000000 1.0
C      1  0.4467710000000  0.4865640000000  0.4611900000000 1.0
C      1  0.5259930000000  0.4926780000000  0.5426030000000 1.0
C      1  0.4893820000000  0.4876800000000  0.4783930000000 1.0
C      1  0.5005590000000  0.4936400000000  0.5207730000000 1.0
C      1  0.4388320000000  0.4876750000000  0.4901020000000 1.0
C      1  0.5151630000000  0.5662860000000  0.4819080000000 1.0
C      1  0.4696040000000  0.5325390000000  0.4999300000000 1.0
C      1  0.4830590000000  0.4586310000000  0.4402360000000 1.0
C      1  0.5312910000000  0.4449730000000  0.4825650000000 1.0
C      1  0.4559870000000  0.5340610000000  0.4736840000000 1.0
C      1  0.4718020000000  0.4574110000000  0.5132590000000 1.0
C      1  0.4741010000000  0.4836050000000  0.4507870000000 1.0
C      1  0.4960570000000  0.5379550000000  0.5363440000000 1.0
C      1  0.4880450000000  0.5099720000000  0.4402260000000 1.0
C      1  0.4959220000000  0.5640900000000  0.4978940000000 1.0
C      1  0.5649380000000  0.5272690000000  0.4978220000000 1.0
C      1  0.5198960000000  0.4544180000000  0.4594890000000 1.0
C      1  0.5027830000000  0.4420390000000  0.4406520000000 1.0
C      1  0.5211460000000  0.5320940000000  0.5234160000000 1.0
C      1  0.5263390000000  0.4644160000000  0.5333580000000 1.0
C      1  0.4588750000000  0.5113760000000  0.5520350000000 1.0
C      1  0.5424110000000  0.5156390000000  0.5359880000000 1.0
END
