TITL C-18109-8085-1 -0.0333004079659348 125000 -173.718032688815 0 0 27 (C1) n - 1
REM
REM in /rds/project/t2_vol4/rds-t2-cs072/BORA/CARBON/from-Arr/AIRSS/Generating-Clusters/GAP-ML-2020/Only-C1/SD-CG/HFTN-CG
REM
REM
REM
REM
REM
REM ./C.cell (11c1c37f851c82e70ff6c80c92926a4b)
REM AIRSS Version 0.9.1 bugfix July 2018 build 013d7b7c2542+ Fri, 06 Jul 2018 19:26:36 +0100
REM compiler GCC version 9.3.0
REM options -cpp -mtune=generic -march=x86-64 -g -O0
REM seed 1302049109 -1643568494 -570067222 -1103466748 1644950030 608761628 1047673034 -609196188 -1455229688 -1126707102 1091105356 -2078771059 1232434868 -806565477 626636459 -971214295 120934903 -41336905 -195254681 -1412401547 295202309 1653618692 -1388660376 1796002135 -1274438533 1846042592 -1166909226 311584558 -1743125052 -1700374005 234991291 -1959271230 -1702143162
REM
CELL 1.54180   50.00000   50.00000   50.00000   90.00000   90.00000   90.00000
LATT -1
SFAC C  
C      1  0.5429260000000  0.4655150000000  0.5188980000000 1.0
C      1  0.5179120000000  0.4639710000000  0.5046620000000 1.0
C      1  0.4845870000000  0.5013800000000  0.4959370000000 1.0
C      1  0.4613910000000  0.4838620000000  0.4914440000000 1.0
C      1  0.5554420000000  0.4814000000000  0.4312670000000 1.0
C      1  0.4357640000000  0.5128980000000  0.5064090000000 1.0
C      1  0.4990200000000  0.4461780000000  0.5122560000000 1.0
C      1  0.4574830000000  0.4714550000000  0.5172000000000 1.0
C      1  0.4782030000000  0.5096230000000  0.5267100000000 1.0
C      1  0.4951700000000  0.5420090000000  0.4688200000000 1.0
C      1  0.4383930000000  0.4995430000000  0.4819430000000 1.0
C      1  0.5220710000000  0.5050150000000  0.5235900000000 1.0
C      1  0.5468230000000  0.4963220000000  0.4543370000000 1.0
C      1  0.4999660000000  0.4973950000000  0.5413670000000 1.0
C      1  0.5204190000000  0.5332170000000  0.4773990000000 1.0
C      1  0.4865550000000  0.5345720000000  0.5154390000000 1.0
C      1  0.4467630000000  0.5280790000000  0.4852130000000 1.0
C      1  0.5464540000000  0.4892780000000  0.5278040000000 1.0
C      1  0.5149460000000  0.5330050000000  0.5164850000000 1.0
C      1  0.4829580000000  0.4626770000000  0.5264290000000 1.0
C      1  0.5289590000000  0.5054360000000  0.4740450000000 1.0
C      1  0.4763670000000  0.5311690000000  0.4868750000000 1.0
C      1  0.5730020000000  0.4948140000000  0.4436820000000 1.0
C      1  0.4513800000000  0.4986400000000  0.5267820000000 1.0
C      1  0.4955020000000  0.4718220000000  0.5495000000000 1.0
C      1  0.5282890000000  0.5485350000000  0.4994920000000 1.0
C      1  0.5132560000000  0.4921900000000  0.4960150000000 1.0
END
