TITL C-18088-6851-5 -0.210977557319773 125000 -621.960277287657 0 0 92 (C1) n - 1
REM
REM in /rds/project/t2_vol4/rds-t2-cs072/BORA/CARBON/from-Arr/AIRSS/Generating-Clusters/GAP-ML-2020/Only-C1/SD-CG/HFTN-CG
REM
REM
REM
REM
REM
REM ./C.cell (11c1c37f851c82e70ff6c80c92926a4b)
REM AIRSS Version 0.9.1 bugfix July 2018 build 013d7b7c2542+ Fri, 06 Jul 2018 19:26:36 +0100
REM compiler GCC version 9.3.0
REM options -cpp -mtune=generic -march=x86-64 -g -O0
REM seed -1585221587 -1520819002 1352912785 -1644196316 -1095503643 -1785663527 546896461 45361668 -1950288546 1974449129 -553507741 -1405488635 1884446673 935483046 -1465579252 -334589121 -997168900 397844722 -1437981337 1190493485 676295227 -606011188 -359145623 -481134419 -1493627151 -1206254662 -1622805196 -1500976590 875211675 -1816134007 -1342976890 -1199606149 1780522702
REM
CELL 1.54180   50.00000   50.00000   50.00000   90.00000   90.00000   90.00000
LATT -1
SFAC C  
C      1  0.5290600000000  0.5190810000000  0.4477040000000 1.0
C      1  0.5282220000000  0.5209200000000  0.4956630000000 1.0
C      1  0.4583880000000  0.4188360000000  0.5157320000000 1.0
C      1  0.4260340000000  0.5387640000000  0.4868190000000 1.0
C      1  0.5123920000000  0.5411620000000  0.4593080000000 1.0
C      1  0.4302620000000  0.4683040000000  0.4663310000000 1.0
C      1  0.4531400000000  0.4455630000000  0.5013790000000 1.0
C      1  0.5252370000000  0.4784570000000  0.4719900000000 1.0
C      1  0.4676120000000  0.4736670000000  0.5601800000000 1.0
C      1  0.5779590000000  0.5139310000000  0.5078410000000 1.0
C      1  0.4636060000000  0.5143080000000  0.5262190000000 1.0
C      1  0.4885570000000  0.4823640000000  0.5064670000000 1.0
C      1  0.4941820000000  0.4435890000000  0.4412100000000 1.0
C      1  0.4805590000000  0.4555810000000  0.4933110000000 1.0
C      1  0.5223980000000  0.4737000000000  0.4261630000000 1.0
C      1  0.4455460000000  0.5388970000000  0.5588780000000 1.0
C      1  0.5189960000000  0.4348120000000  0.4514810000000 1.0
C      1  0.4902150000000  0.5439420000000  0.5743280000000 1.0
C      1  0.5672890000000  0.4960900000000  0.4869310000000 1.0
C      1  0.5652220000000  0.4475230000000  0.4830420000000 1.0
C      1  0.5354550000000  0.4599670000000  0.4487040000000 1.0
C      1  0.5727800000000  0.5095330000000  0.4401880000000 1.0
C      1  0.5374170000000  0.4910970000000  0.5762240000000 1.0
C      1  0.5194810000000  0.5380800000000  0.5760280000000 1.0
C      1  0.5543070000000  0.5377510000000  0.5391950000000 1.0
C      1  0.5128270000000  0.5682230000000  0.5380900000000 1.0
C      1  0.5226850000000  0.4163910000000  0.4732540000000 1.0
C      1  0.4660550000000  0.5280130000000  0.5771240000000 1.0
C      1  0.4643920000000  0.5421860000000  0.4476020000000 1.0
C      1  0.5135170000000  0.5799550000000  0.4824570000000 1.0
C      1  0.5332030000000  0.5609790000000  0.4699110000000 1.0
C      1  0.5289420000000  0.5466120000000  0.5498510000000 1.0
C      1  0.4849930000000  0.5038200000000  0.4852040000000 1.0
C      1  0.5614340000000  0.4713960000000  0.5033440000000 1.0
C      1  0.5643020000000  0.4610010000000  0.4576850000000 1.0
C      1  0.4490870000000  0.5493140000000  0.4711300000000 1.0
C      1  0.5740830000000  0.4889580000000  0.4587800000000 1.0
C      1  0.5153770000000  0.5662920000000  0.5089960000000 1.0
C      1  0.5555270000000  0.5317780000000  0.4379770000000 1.0
C      1  0.4535800000000  0.4688860000000  0.4500530000000 1.0
C      1  0.5454700000000  0.4702700000000  0.5566590000000 1.0
C      1  0.4465290000000  0.4971940000000  0.4420730000000 1.0
C      1  0.4477290000000  0.5663640000000  0.5161220000000 1.0
C      1  0.4587020000000  0.5111470000000  0.4973900000000 1.0
C      1  0.4906240000000  0.5488580000000  0.5030820000000 1.0
C      1  0.5273890000000  0.4375750000000  0.5022800000000 1.0
C      1  0.4266680000000  0.4965310000000  0.4626500000000 1.0
C      1  0.4293430000000  0.4851390000000  0.5361340000000 1.0
C      1  0.4861870000000  0.5038960000000  0.4189240000000 1.0
C      1  0.4871880000000  0.5781680000000  0.4713610000000 1.0
C      1  0.4854540000000  0.5357680000000  0.5287110000000 1.0
C      1  0.5359460000000  0.5172440000000  0.5834820000000 1.0
C      1  0.5284070000000  0.5067650000000  0.5209120000000 1.0
C      1  0.4802160000000  0.4610700000000  0.4617610000000 1.0
C      1  0.5002240000000  0.4365190000000  0.5114120000000 1.0
C      1  0.4411770000000  0.5108670000000  0.5478180000000 1.0
C      1  0.4996300000000  0.4026280000000  0.4863520000000 1.0
C      1  0.4287960000000  0.5086210000000  0.4889750000000 1.0
C      1  0.4493980000000  0.4400310000000  0.5301710000000 1.0
C      1  0.4639290000000  0.5171950000000  0.4331090000000 1.0
C      1  0.4950640000000  0.4616770000000  0.5687150000000 1.0
C      1  0.4573980000000  0.5607190000000  0.5427850000000 1.0
C      1  0.4305340000000  0.4620440000000  0.4932580000000 1.0
C      1  0.5610400000000  0.4788080000000  0.5345730000000 1.0
C      1  0.5115330000000  0.5231220000000  0.5381970000000 1.0
C      1  0.4576380000000  0.5007060000000  0.5711910000000 1.0
C      1  0.5325570000000  0.4655250000000  0.4975220000000 1.0
C      1  0.5580340000000  0.5081190000000  0.5304530000000 1.0
C      1  0.4995090000000  0.4596750000000  0.4181450000000 1.0
C      1  0.5087960000000  0.4859460000000  0.5741970000000 1.0
C      1  0.5476430000000  0.4245200000000  0.4876960000000 1.0
C      1  0.4828990000000  0.4790380000000  0.4067500000000 1.0
C      1  0.4976730000000  0.4862060000000  0.4630380000000 1.0
C      1  0.4234500000000  0.4854360000000  0.5086290000000 1.0
C      1  0.5647310000000  0.5498860000000  0.5152250000000 1.0
C      1  0.4881350000000  0.5577240000000  0.4509150000000 1.0
C      1  0.5393940000000  0.5496950000000  0.4986430000000 1.0
C      1  0.5201410000000  0.4520750000000  0.5578020000000 1.0
C      1  0.4858090000000  0.5593490000000  0.5492520000000 1.0
C      1  0.5893880000000  0.5385290000000  0.5092620000000 1.0
C      1  0.5508830000000  0.5579830000000  0.4472350000000 1.0
C      1  0.5158820000000  0.4790500000000  0.5166490000000 1.0
C      1  0.4791510000000  0.4903810000000  0.5344580000000 1.0
C      1  0.4234980000000  0.5574840000000  0.5071360000000 1.0
C      1  0.4852940000000  0.4106770000000  0.5083810000000 1.0
C      1  0.4669510000000  0.5640680000000  0.4911860000000 1.0
C      1  0.5390560000000  0.5047980000000  0.4737680000000 1.0
C      1  0.5016350000000  0.5283600000000  0.4854330000000 1.0
C      1  0.5072860000000  0.4536800000000  0.5336630000000 1.0
C      1  0.5001130000000  0.5016090000000  0.5522090000000 1.0
C      1  0.5108750000000  0.4990830000000  0.4350640000000 1.0
C      1  0.4446810000000  0.4624580000000  0.5464190000000 1.0
END
