TITL C-184271-2385-1 15.4437193398963 125000 -655.736743423904 0 0 94 (C1) n - 1
REM
REM in /rds/project/t2_vol4/rds-t2-cs072/BORA/CARBON/from-Arr/AIRSS/Generating-Clusters/GAP-ML-2020/Only-C1/SD-CG/HFTN-CG
REM
REM
REM
REM
REM
REM ./C.cell (11c1c37f851c82e70ff6c80c92926a4b)
REM AIRSS Version 0.9.1 bugfix July 2018 build 013d7b7c2542+ Fri, 06 Jul 2018 19:26:36 +0100
REM compiler GCC version 9.3.0
REM options -cpp -mtune=generic -march=x86-64 -g -O0
REM seed 642596626 1259715261 1103733118 323313987 -222531632 1915787008 1404222914 1004328959 -1045459012 673137977 -1742253872 1710610436 1214735698 -2000848494 -860066985 -204661326 655276630 2076728770 -1200056845 838542339 1336517429 1935745794 1914996297 -1059392040 -1792781147 1340299574 753796360 788056482 2089429987 -1960559334 1289408606 -1584760890 -2076732710
REM
CELL 1.54180   50.00000   50.00000   50.00000   90.00000   90.00000   90.00000
LATT -1
SFAC C  
C      1  0.5400070000000  0.5767320000000  0.4559730000000 1.0
C      1  0.4735660000000  0.5582980000000  0.5333290000000 1.0
C      1  0.5785000000000  0.5087630000000  0.5171930000000 1.0
C      1  0.4465930000000  0.4427760000000  0.5355410000000 1.0
C      1  0.5148980000000  0.4988350000000  0.5812200000000 1.0
C      1  0.4881870000000  0.4637040000000  0.5329950000000 1.0
C      1  0.4832970000000  0.4642250000000  0.4247140000000 1.0
C      1  0.5563670000000  0.5538780000000  0.4592080000000 1.0
C      1  0.5650230000000  0.4470010000000  0.4924360000000 1.0
C      1  0.4176830000000  0.4955170000000  0.4884360000000 1.0
C      1  0.4752300000000  0.4361570000000  0.5426720000000 1.0
C      1  0.5594470000000  0.4887920000000  0.4544230000000 1.0
C      1  0.4672660000000  0.4795050000000  0.5533780000000 1.0
C      1  0.4943890000000  0.5208780000000  0.4745920000000 1.0
C      1  0.5209270000000  0.4208120000000  0.5011160000000 1.0
C      1  0.5333340000000  0.5881200000000  0.4809570000000 1.0
C      1  0.5250850000000  0.4553530000000  0.4534600000000 1.0
C      1  0.4837880000000  0.4148630000000  0.5247960000000 1.0
C      1  0.5453920000000  0.5067270000000  0.4370790000000 1.0
C      1  0.5797150000000  0.4644360000000  0.5096790000000 1.0
C      1  0.5168870000000  0.4735550000000  0.5405620000000 1.0
C      1  0.5120190000000  0.5406000000000  0.4763610000000 1.0
C      1  0.4944800000000  0.4938130000000  0.4613470000000 1.0
C      1  0.5035450000000  0.4353630000000  0.4572210000000 1.0
C      1  0.4847380000000  0.5500430000000  0.5583460000000 1.0
C      1  0.5089440000000  0.5274670000000  0.4148840000000 1.0
C      1  0.4557190000000  0.4464030000000  0.4619220000000 1.0
C      1  0.4911230000000  0.5638060000000  0.5119000000000 1.0
C      1  0.4491330000000  0.5613590000000  0.4926100000000 1.0
C      1  0.4476120000000  0.5540370000000  0.5202630000000 1.0
C      1  0.4208600000000  0.5110710000000  0.4430210000000 1.0
C      1  0.5120600000000  0.4090540000000  0.5257300000000 1.0
C      1  0.5598650000000  0.5492480000000  0.4868120000000 1.0
C      1  0.4234580000000  0.4740250000000  0.5073180000000 1.0
C      1  0.5865280000000  0.4891210000000  0.4980990000000 1.0
C      1  0.5250320000000  0.5217150000000  0.5664570000000 1.0
C      1  0.5002380000000  0.4198920000000  0.4813870000000 1.0
C      1  0.4887430000000  0.5877180000000  0.4690600000000 1.0
C      1  0.5307630000000  0.5685010000000  0.5519510000000 1.0
C      1  0.5594120000000  0.5221380000000  0.4973500000000 1.0
C      1  0.4926320000000  0.5768210000000  0.4418670000000 1.0
C      1  0.4749610000000  0.5739560000000  0.4899210000000 1.0
C      1  0.4710660000000  0.5280080000000  0.5699110000000 1.0
C      1  0.5541210000000  0.4591700000000  0.4546190000000 1.0
C      1  0.4748620000000  0.5173440000000  0.5947240000000 1.0
C      1  0.5207570000000  0.5022210000000  0.4226700000000 1.0
C      1  0.5365580000000  0.4463400000000  0.5044480000000 1.0
C      1  0.5277310000000  0.4060590000000  0.5482130000000 1.0
C      1  0.5140570000000  0.4468910000000  0.5733990000000 1.0
C      1  0.4794720000000  0.4452580000000  0.4447160000000 1.0
C      1  0.4213850000000  0.5236960000000  0.4947070000000 1.0
C      1  0.4250040000000  0.4902650000000  0.4610800000000 1.0
C      1  0.4293820000000  0.5319140000000  0.5211140000000 1.0
C      1  0.5298480000000  0.4323850000000  0.5543100000000 1.0
C      1  0.5652520000000  0.4692140000000  0.5345650000000 1.0
C      1  0.4917010000000  0.4908460000000  0.4287520000000 1.0
C      1  0.4528310000000  0.4324340000000  0.4874740000000 1.0
C      1  0.4415630000000  0.4669290000000  0.5479860000000 1.0
C      1  0.4764250000000  0.4703520000000  0.5789750000000 1.0
C      1  0.5729330000000  0.4428370000000  0.4662240000000 1.0
C      1  0.4727730000000  0.4846600000000  0.4834830000000 1.0
C      1  0.4880560000000  0.5104820000000  0.5220750000000 1.0
C      1  0.4757310000000  0.4177250000000  0.4966880000000 1.0
C      1  0.5176330000000  0.5481300000000  0.5046130000000 1.0
C      1  0.4860700000000  0.4443840000000  0.5722210000000 1.0
C      1  0.5106080000000  0.6023040000000  0.4786590000000 1.0
C      1  0.5704790000000  0.5008170000000  0.4771970000000 1.0
C      1  0.4887930000000  0.4936060000000  0.5927530000000 1.0
C      1  0.5155750000000  0.4967230000000  0.5190850000000 1.0
C      1  0.4374580000000  0.5328070000000  0.4479770000000 1.0
C      1  0.5438340000000  0.5169670000000  0.5450950000000 1.0
C      1  0.4265810000000  0.4851250000000  0.5329890000000 1.0
C      1  0.4887510000000  0.4675460000000  0.5032820000000 1.0
C      1  0.5417220000000  0.5683770000000  0.5024220000000 1.0
C      1  0.5485110000000  0.5351670000000  0.4381350000000 1.0
C      1  0.4734550000000  0.5622810000000  0.4303260000000 1.0
C      1  0.4338740000000  0.5422620000000  0.4761570000000 1.0
C      1  0.4485000000000  0.4737800000000  0.4642980000000 1.0
C      1  0.5202520000000  0.5714950000000  0.4360900000000 1.0
C      1  0.4649940000000  0.5086550000000  0.5470570000000 1.0
C      1  0.5272120000000  0.5472460000000  0.4234560000000 1.0
C      1  0.4608530000000  0.5381290000000  0.4294840000000 1.0
C      1  0.4771020000000  0.5113580000000  0.4960550000000 1.0
C      1  0.4365980000000  0.5110740000000  0.5375280000000 1.0
C      1  0.4381830000000  0.4469250000000  0.5082830000000 1.0
C      1  0.5174510000000  0.4789960000000  0.4688600000000 1.0
C      1  0.5433380000000  0.5754250000000  0.5310200000000 1.0
C      1  0.5658130000000  0.4982260000000  0.5401600000000 1.0
C      1  0.5394050000000  0.4535780000000  0.5342020000000 1.0
C      1  0.5169980000000  0.4739410000000  0.4971000000000 1.0
C      1  0.5135160000000  0.5483780000000  0.5624510000000 1.0
C      1  0.5224900000000  0.4746000000000  0.5696250000000 1.0
C      1  0.4815760000000  0.5196240000000  0.4192840000000 1.0
C      1  0.5334200000000  0.5219690000000  0.5164210000000 1.0
END
