TITL C-18093-7297-3 -0.19920615561021 125000 -854.189013151912 0 0 123 (C1) n - 1
REM
REM in /rds/project/t2_vol4/rds-t2-cs072/BORA/CARBON/from-Arr/AIRSS/Generating-Clusters/GAP-ML-2020/Only-C1/SD-CG/HFTN-CG
REM
REM
REM
REM
REM
REM ./C.cell (11c1c37f851c82e70ff6c80c92926a4b)
REM AIRSS Version 0.9.1 bugfix July 2018 build 013d7b7c2542+ Fri, 06 Jul 2018 19:26:36 +0100
REM compiler GCC version 9.3.0
REM options -cpp -mtune=generic -march=x86-64 -g -O0
REM seed -1549855384 -1585423906 887687501 481678065 709203854 -1531933065 -1918904177 -179503502 680527826 -1679927412 -1818386158 72598125 1306374097 -1707697750 -1615250464 794703427 1039251270 1096244385 -2116289144 1981190038 -1461205498 -1198840153 1814536207 1736067216 266945868 249487851 -63178724 -79147432 695843854 -331446419 -403002913 -243571075 -1305464662
REM
CELL 1.54180   50.00000   50.00000   50.00000   90.00000   90.00000   90.00000
LATT -1
SFAC C  
C      1  0.5111590000000  0.5482530000000  0.4937070000000 1.0
C      1  0.5340910000000  0.5631920000000  0.4520910000000 1.0
C      1  0.5058930000000  0.5723860000000  0.4453730000000 1.0
C      1  0.4266150000000  0.4633170000000  0.5455390000000 1.0
C      1  0.4316520000000  0.4697220000000  0.4760370000000 1.0
C      1  0.4104030000000  0.4939320000000  0.5146440000000 1.0
C      1  0.5329410000000  0.4644960000000  0.5312250000000 1.0
C      1  0.4543410000000  0.5108140000000  0.5787390000000 1.0
C      1  0.4453640000000  0.4355300000000  0.5069480000000 1.0
C      1  0.5288490000000  0.4114820000000  0.5418910000000 1.0
C      1  0.5155370000000  0.5103640000000  0.4240010000000 1.0
C      1  0.4237680000000  0.5541430000000  0.5263840000000 1.0
C      1  0.5330290000000  0.4617650000000  0.5783950000000 1.0
C      1  0.4243470000000  0.4504950000000  0.5195410000000 1.0
C      1  0.5826640000000  0.5150050000000  0.4419930000000 1.0
C      1  0.5111040000000  0.4922630000000  0.4730730000000 1.0
C      1  0.5095700000000  0.5171760000000  0.4569240000000 1.0
C      1  0.4822530000000  0.5371930000000  0.5281170000000 1.0
C      1  0.4332010000000  0.5335510000000  0.5102470000000 1.0
C      1  0.5830460000000  0.4425000000000  0.5087510000000 1.0
C      1  0.5640400000000  0.4856850000000  0.5496640000000 1.0
C      1  0.5136380000000  0.4426640000000  0.5797330000000 1.0
C      1  0.4972900000000  0.5286750000000  0.5833730000000 1.0
C      1  0.5022440000000  0.4426220000000  0.5004560000000 1.0
C      1  0.4287540000000  0.4802870000000  0.4473650000000 1.0
C      1  0.4465530000000  0.4501190000000  0.5610970000000 1.0
C      1  0.5799960000000  0.4915550000000  0.5256680000000 1.0
C      1  0.5903460000000  0.5178050000000  0.5143640000000 1.0
C      1  0.4795850000000  0.4849440000000  0.4158590000000 1.0
C      1  0.5447060000000  0.5808540000000  0.4742730000000 1.0
C      1  0.5234390000000  0.4807790000000  0.4190110000000 1.0
C      1  0.5264860000000  0.5367220000000  0.4721800000000 1.0
C      1  0.4999150000000  0.4645910000000  0.4132120000000 1.0
C      1  0.5081960000000  0.4264510000000  0.5541980000000 1.0
C      1  0.5804530000000  0.4774280000000  0.4723290000000 1.0
C      1  0.4871290000000  0.5661040000000  0.4878190000000 1.0
C      1  0.4802250000000  0.5262470000000  0.4584390000000 1.0
C      1  0.5445320000000  0.4454940000000  0.4627020000000 1.0
C      1  0.5704020000000  0.5679660000000  0.5164170000000 1.0
C      1  0.5556360000000  0.5327910000000  0.5128890000000 1.0
C      1  0.4899720000000  0.4731760000000  0.5370900000000 1.0
C      1  0.4528960000000  0.4473940000000  0.4810400000000 1.0
C      1  0.4319050000000  0.5724670000000  0.5047410000000 1.0
C      1  0.5440440000000  0.4678070000000  0.5038940000000 1.0
C      1  0.5084630000000  0.5684420000000  0.5557160000000 1.0
C      1  0.5057450000000  0.4491640000000  0.5296790000000 1.0
C      1  0.5205900000000  0.4057320000000  0.5146060000000 1.0
C      1  0.4818880000000  0.5814290000000  0.5154020000000 1.0
C      1  0.5649990000000  0.4249070000000  0.5187760000000 1.0
C      1  0.5509370000000  0.4580920000000  0.5543610000000 1.0
C      1  0.4600560000000  0.4269090000000  0.4606340000000 1.0
C      1  0.4720690000000  0.5343950000000  0.4295720000000 1.0
C      1  0.5213590000000  0.5935730000000  0.4863070000000 1.0
C      1  0.5351310000000  0.5287250000000  0.5310420000000 1.0
C      1  0.4023080000000  0.5492940000000  0.4677810000000 1.0
C      1  0.4872600000000  0.5123680000000  0.4144580000000 1.0
C      1  0.5169910000000  0.5449350000000  0.5710290000000 1.0
C      1  0.4601710000000  0.4265320000000  0.5485540000000 1.0
C      1  0.5947140000000  0.5234280000000  0.4857610000000 1.0
C      1  0.5831260000000  0.5489960000000  0.4734670000000 1.0
C      1  0.4614860000000  0.4405940000000  0.4345020000000 1.0
C      1  0.4851770000000  0.4416300000000  0.5856600000000 1.0
C      1  0.4423150000000  0.5327790000000  0.4401860000000 1.0
C      1  0.5510720000000  0.4786870000000  0.4294440000000 1.0
C      1  0.4510710000000  0.4671580000000  0.4337460000000 1.0
C      1  0.4649150000000  0.4207350000000  0.5196900000000 1.0
C      1  0.5614820000000  0.4657840000000  0.4539430000000 1.0
C      1  0.4627410000000  0.5302070000000  0.5068760000000 1.0
C      1  0.4877830000000  0.5590030000000  0.4307040000000 1.0
C      1  0.5918180000000  0.5027400000000  0.4659190000000 1.0
C      1  0.5139600000000  0.4876220000000  0.5374270000000 1.0
C      1  0.5100990000000  0.5930730000000  0.5140970000000 1.0
C      1  0.4696250000000  0.5347910000000  0.5790460000000 1.0
C      1  0.4833500000000  0.4597570000000  0.4844030000000 1.0
C      1  0.5621800000000  0.5044300000000  0.4255230000000 1.0
C      1  0.4196140000000  0.5134750000000  0.4933080000000 1.0
C      1  0.5325630000000  0.4954990000000  0.4936030000000 1.0
C      1  0.4845090000000  0.4894550000000  0.4873680000000 1.0
C      1  0.4198410000000  0.4923230000000  0.5423660000000 1.0
C      1  0.5527090000000  0.5808350000000  0.5338050000000 1.0
C      1  0.5081230000000  0.5329050000000  0.5164500000000 1.0
C      1  0.4651330000000  0.5003540000000  0.5066330000000 1.0
C      1  0.5278110000000  0.4892960000000  0.5841230000000 1.0
C      1  0.4991470000000  0.5859980000000  0.4699560000000 1.0
C      1  0.5755230000000  0.4694240000000  0.5022480000000 1.0
C      1  0.4682270000000  0.5447700000000  0.4790000000000 1.0
C      1  0.5009070000000  0.4226590000000  0.4466640000000 1.0
C      1  0.4680590000000  0.5002010000000  0.4646330000000 1.0
C      1  0.4648380000000  0.4611810000000  0.5826130000000 1.0
C      1  0.4881440000000  0.4386880000000  0.4253430000000 1.0
C      1  0.4227390000000  0.5648580000000  0.4767670000000 1.0
C      1  0.4913580000000  0.4149760000000  0.5007760000000 1.0
C      1  0.5195280000000  0.5068370000000  0.5182550000000 1.0
C      1  0.5471680000000  0.5207780000000  0.4863110000000 1.0
C      1  0.4432430000000  0.4963850000000  0.4834630000000 1.0
C      1  0.4601270000000  0.5534300000000  0.5603100000000 1.0
C      1  0.4544300000000  0.5874360000000  0.5082730000000 1.0
C      1  0.5690820000000  0.5707520000000  0.4864710000000 1.0
C      1  0.4816600000000  0.4208900000000  0.5653010000000 1.0
C      1  0.5191580000000  0.4426400000000  0.4535730000000 1.0
C      1  0.5479160000000  0.5037180000000  0.5685900000000 1.0
C      1  0.4720670000000  0.4892070000000  0.5873170000000 1.0
C      1  0.4354300000000  0.5423690000000  0.5498060000000 1.0
C      1  0.4140040000000  0.4688210000000  0.5011140000000 1.0
C      1  0.4675580000000  0.4851250000000  0.5295520000000 1.0
C      1  0.4822060000000  0.5647490000000  0.5425040000000 1.0
C      1  0.4234940000000  0.5102470000000  0.4451450000000 1.0
C      1  0.5804440000000  0.5422460000000  0.5234980000000 1.0
C      1  0.5425240000000  0.4176260000000  0.5016540000000 1.0
C      1  0.5538550000000  0.4276590000000  0.5446940000000 1.0
C      1  0.5000050000000  0.5006690000000  0.5889350000000 1.0
C      1  0.4069290000000  0.5213870000000  0.4672990000000 1.0
C      1  0.5384520000000  0.5293680000000  0.5602980000000 1.0
C      1  0.5332030000000  0.4428510000000  0.4891920000000 1.0
C      1  0.4750240000000  0.4794270000000  0.4444040000000 1.0
C      1  0.4325240000000  0.5142380000000  0.5586130000000 1.0
C      1  0.5424030000000  0.5243000000000  0.4209980000000 1.0
C      1  0.5766050000000  0.5425130000000  0.4464310000000 1.0
C      1  0.5518640000000  0.5487620000000  0.4337320000000 1.0
C      1  0.5255040000000  0.5835910000000  0.5371640000000 1.0
C      1  0.4996350000000  0.4661510000000  0.4592240000000 1.0
C      1  0.4438470000000  0.5511260000000  0.4630830000000 1.0
C      1  0.4837720000000  0.4136910000000  0.4693990000000 1.0
END
