TITL C-18083-6009-1 0.13341583944233 125000 -267.55889811743 0 0 40 (C1) n - 1
REM
REM in /rds/project/t2_vol4/rds-t2-cs072/BORA/CARBON/from-Arr/AIRSS/Generating-Clusters/GAP-ML-2020/Only-C1/SD-CG/HFTN-CG
REM
REM
REM
REM
REM
REM ./C.cell (11c1c37f851c82e70ff6c80c92926a4b)
REM AIRSS Version 0.9.1 bugfix July 2018 build 013d7b7c2542+ Fri, 06 Jul 2018 19:26:36 +0100
REM compiler GCC version 9.3.0
REM options -cpp -mtune=generic -march=x86-64 -g -O0
REM seed -779934565 1456128751 -714873471 -1623799891 -1551793912 5996482 -106631402 261876454 1102657618 1631689273 505172628 -337929504 1606727800 1564016410 -2107308527 -903634679 255989 341115770 -1511808797 -639055490 -643536198 746770347 2068963491 72786282 1543338102 1234610012 -1921589193 1121929937 -528935388 1318463959 -1740918446 418672136 2040483469
REM
CELL 1.54180   50.00000   50.00000   50.00000   90.00000   90.00000   90.00000
LATT -1
SFAC C  
C      1  0.5024890000000  0.5132710000000  0.4634370000000 1.0
C      1  0.4970090000000  0.5202110000000  0.5678910000000 1.0
C      1  0.5288510000000  0.4650480000000  0.4958150000000 1.0
C      1  0.5306790000000  0.5210390000000  0.5342270000000 1.0
C      1  0.4810370000000  0.4936870000000  0.4590560000000 1.0
C      1  0.4587170000000  0.4652620000000  0.4880830000000 1.0
C      1  0.4862580000000  0.4381270000000  0.5147590000000 1.0
C      1  0.5359110000000  0.4676090000000  0.4686330000000 1.0
C      1  0.5170540000000  0.4599650000000  0.4503280000000 1.0
C      1  0.5468720000000  0.5021290000000  0.5189730000000 1.0
C      1  0.5440300000000  0.5393030000000  0.4796700000000 1.0
C      1  0.5461010000000  0.4935130000000  0.4663610000000 1.0
C      1  0.4484020000000  0.5169400000000  0.5211860000000 1.0
C      1  0.4775150000000  0.4496830000000  0.4717840000000 1.0
C      1  0.4918910000000  0.4332280000000  0.4883750000000 1.0
C      1  0.4590990000000  0.4919440000000  0.4779500000000 1.0
C      1  0.5117500000000  0.5097580000000  0.4930420000000 1.0
C      1  0.5018350000000  0.5592740000000  0.4775960000000 1.0
C      1  0.5058990000000  0.5427440000000  0.4552230000000 1.0
C      1  0.4989060000000  0.4781210000000  0.5294330000000 1.0
C      1  0.5041500000000  0.4817740000000  0.5007330000000 1.0
C      1  0.4775260000000  0.5545440000000  0.4923990000000 1.0
C      1  0.5346900000000  0.5378200000000  0.4528520000000 1.0
C      1  0.4502370000000  0.5153400000000  0.4924510000000 1.0
C      1  0.4649600000000  0.5367760000000  0.5349810000000 1.0
C      1  0.4627930000000  0.4563370000000  0.5151350000000 1.0
C      1  0.4856760000000  0.5461860000000  0.5188300000000 1.0
C      1  0.5122580000000  0.5342150000000  0.5142280000000 1.0
C      1  0.5221740000000  0.5208880000000  0.5609690000000 1.0
C      1  0.5244660000000  0.5536610000000  0.4946760000000 1.0
C      1  0.5299630000000  0.5095380000000  0.4487250000000 1.0
C      1  0.4909480000000  0.4671870000000  0.4538590000000 1.0
C      1  0.5054100000000  0.4430320000000  0.5343170000000 1.0
C      1  0.5426370000000  0.4742550000000  0.5197640000000 1.0
C      1  0.5441050000000  0.5109820000000  0.4901390000000 1.0
C      1  0.5226300000000  0.4625440000000  0.5384320000000 1.0
C      1  0.4698380000000  0.4754510000000  0.5347700000000 1.0
C      1  0.4725750000000  0.5189010000000  0.5567340000000 1.0
C      1  0.4562950000000  0.5413440000000  0.4819610000000 1.0
C      1  0.4563660000000  0.4983670000000  0.5422220000000 1.0
END
