TITL C-184288-2686-7 14.8921770877545 125000 -659.156117878074 0 0 93 (C1) n - 1
REM
REM in /rds/project/t2_vol4/rds-t2-cs072/BORA/CARBON/from-Arr/AIRSS/Generating-Clusters/GAP-ML-2020/Only-C1/SD-CG/HFTN-CG
REM
REM
REM
REM
REM
REM ./C.cell (11c1c37f851c82e70ff6c80c92926a4b)
REM AIRSS Version 0.9.1 bugfix July 2018 build 013d7b7c2542+ Fri, 06 Jul 2018 19:26:36 +0100
REM compiler GCC version 9.3.0
REM options -cpp -mtune=generic -march=x86-64 -g -O0
REM seed 692239248 846163684 -172643826 808993767 -455526329 -1814281856 1067392994 766470689 -930040027 -729277258 1007183353 345078341 -723713788 -593096882 1873480339 -2134501048 345434544 1793912591 202555729 -1270565358 -1888573158 -2046618714 1482620153 1090950533 1073385979 -111474231 -1375896961 -535123409 756259027 1129848876 2040969241 1490073362 279237622
REM
CELL 1.54180   50.00000   50.00000   50.00000   90.00000   90.00000   90.00000
LATT -1
SFAC C  
C      1  0.5451260000000  0.4868400000000  0.4095430000000 1.0
C      1  0.5301270000000  0.4342540000000  0.5256170000000 1.0
C      1  0.4387180000000  0.4819800000000  0.5699550000000 1.0
C      1  0.5795750000000  0.4880740000000  0.5047050000000 1.0
C      1  0.4314530000000  0.5203090000000  0.5442410000000 1.0
C      1  0.4458840000000  0.4549800000000  0.5653590000000 1.0
C      1  0.5579620000000  0.5307080000000  0.4462880000000 1.0
C      1  0.4992820000000  0.4175940000000  0.4625480000000 1.0
C      1  0.5677210000000  0.4633360000000  0.4970460000000 1.0
C      1  0.4747130000000  0.5121870000000  0.4108190000000 1.0
C      1  0.4996110000000  0.5385280000000  0.5716860000000 1.0
C      1  0.5379870000000  0.4439820000000  0.4625380000000 1.0
C      1  0.4727700000000  0.4475070000000  0.5697770000000 1.0
C      1  0.4587350000000  0.5506210000000  0.4616430000000 1.0
C      1  0.4549780000000  0.4318790000000  0.4746520000000 1.0
C      1  0.4965740000000  0.4868480000000  0.4442990000000 1.0
C      1  0.4327370000000  0.5374790000000  0.4663260000000 1.0
C      1  0.4385700000000  0.4420060000000  0.4957950000000 1.0
C      1  0.5719420000000  0.5076920000000  0.4580380000000 1.0
C      1  0.4865470000000  0.4310560000000  0.5510030000000 1.0
C      1  0.4907640000000  0.4674350000000  0.5790960000000 1.0
C      1  0.4708060000000  0.5200940000000  0.4720930000000 1.0
C      1  0.5110380000000  0.4684600000000  0.4829670000000 1.0
C      1  0.4869750000000  0.5304550000000  0.4990760000000 1.0
C      1  0.4695170000000  0.4764260000000  0.4571980000000 1.0
C      1  0.5131990000000  0.4606840000000  0.4521890000000 1.0
C      1  0.4984180000000  0.5004800000000  0.4178010000000 1.0
C      1  0.5374900000000  0.5302850000000  0.4257500000000 1.0
C      1  0.5462930000000  0.4548860000000  0.5148070000000 1.0
C      1  0.5150290000000  0.4651600000000  0.5648600000000 1.0
C      1  0.4998180000000  0.5740030000000  0.4578270000000 1.0
C      1  0.5267130000000  0.5072120000000  0.4119760000000 1.0
C      1  0.4770550000000  0.5705770000000  0.4751370000000 1.0
C      1  0.4664560000000  0.5500490000000  0.4338260000000 1.0
C      1  0.4968280000000  0.5121740000000  0.4606290000000 1.0
C      1  0.4886080000000  0.4127880000000  0.5071090000000 1.0
C      1  0.5546560000000  0.5678250000000  0.5122960000000 1.0
C      1  0.5290970000000  0.5682610000000  0.4521260000000 1.0
C      1  0.5110990000000  0.5239830000000  0.4816040000000 1.0
C      1  0.5637490000000  0.4753070000000  0.4218580000000 1.0
C      1  0.4507400000000  0.5257840000000  0.5660630000000 1.0
C      1  0.5051290000000  0.5111070000000  0.5776800000000 1.0
C      1  0.4908540000000  0.5138920000000  0.5233810000000 1.0
C      1  0.4253000000000  0.4690320000000  0.5002140000000 1.0
C      1  0.4767800000000  0.5617970000000  0.5033990000000 1.0
C      1  0.4238530000000  0.4923910000000  0.5474990000000 1.0
C      1  0.5356160000000  0.5183580000000  0.4894260000000 1.0
C      1  0.4205560000000  0.4701350000000  0.5289040000000 1.0
C      1  0.5138240000000  0.5729760000000  0.5388510000000 1.0
C      1  0.5552400000000  0.5011410000000  0.5570590000000 1.0
C      1  0.5203610000000  0.5544680000000  0.5605410000000 1.0
C      1  0.5140850000000  0.4408110000000  0.5488500000000 1.0
C      1  0.4929660000000  0.5603180000000  0.4323210000000 1.0
C      1  0.4330750000000  0.4471520000000  0.5411360000000 1.0
C      1  0.5209040000000  0.5537400000000  0.4282660000000 1.0
C      1  0.5172710000000  0.4186290000000  0.5050830000000 1.0
C      1  0.4488340000000  0.4971900000000  0.4630500000000 1.0
C      1  0.5615310000000  0.4593370000000  0.4685110000000 1.0
C      1  0.4929480000000  0.4392150000000  0.4468780000000 1.0
C      1  0.4659370000000  0.5627470000000  0.5439830000000 1.0
C      1  0.4836720000000  0.4943970000000  0.5850760000000 1.0
C      1  0.4295250000000  0.4941940000000  0.4856810000000 1.0
C      1  0.4366040000000  0.5169590000000  0.4448520000000 1.0
C      1  0.5812870000000  0.5343500000000  0.4963750000000 1.0
C      1  0.4510110000000  0.5558560000000  0.5198730000000 1.0
C      1  0.4712130000000  0.5454510000000  0.5657240000000 1.0
C      1  0.4555450000000  0.5252260000000  0.4243610000000 1.0
C      1  0.4660220000000  0.4477860000000  0.4525730000000 1.0
C      1  0.5661210000000  0.5567780000000  0.4874710000000 1.0
C      1  0.5830100000000  0.5093220000000  0.4843050000000 1.0
C      1  0.5540950000000  0.5553820000000  0.4617050000000 1.0
C      1  0.4328310000000  0.5344680000000  0.5185220000000 1.0
C      1  0.5477960000000  0.5458810000000  0.5592180000000 1.0
C      1  0.4455280000000  0.4306790000000  0.5222620000000 1.0
C      1  0.5295450000000  0.4748660000000  0.5035190000000 1.0
C      1  0.5679090000000  0.4802800000000  0.4496440000000 1.0
C      1  0.4754790000000  0.4710620000000  0.5115070000000 1.0
C      1  0.5361310000000  0.5021630000000  0.5122070000000 1.0
C      1  0.4767390000000  0.4916600000000  0.5265090000000 1.0
C      1  0.4721490000000  0.4198740000000  0.5288130000000 1.0
C      1  0.4562450000000  0.5015640000000  0.5803140000000 1.0
C      1  0.5767050000000  0.5299120000000  0.5239040000000 1.0
C      1  0.5630900000000  0.5516340000000  0.5351600000000 1.0
C      1  0.5321990000000  0.5801800000000  0.5199890000000 1.0
C      1  0.5248610000000  0.4938430000000  0.5593100000000 1.0
C      1  0.5666570000000  0.5027850000000  0.5281380000000 1.0
C      1  0.4849240000000  0.4745630000000  0.4864920000000 1.0
C      1  0.4877290000000  0.5731590000000  0.5291300000000 1.0
C      1  0.4278570000000  0.5227890000000  0.4922970000000 1.0
C      1  0.5585700000000  0.5235760000000  0.5719080000000 1.0
C      1  0.5241150000000  0.4220920000000  0.4763070000000 1.0
C      1  0.4771200000000  0.4136730000000  0.4810540000000 1.0
C      1  0.5172880000000  0.5089740000000  0.5326040000000 1.0
END
