TITL C-18109-8085-9 -91.2588191313049 125000 -611.805463656249 0 0 89 (C1) n - 1
REM
REM in /rds/project/t2_vol4/rds-t2-cs072/BORA/CARBON/from-Arr/AIRSS/Generating-Clusters/GAP-ML-2020/Only-C1/SD-CG/HFTN-CG
REM
REM
REM
REM
REM
REM ./C.cell (11c1c37f851c82e70ff6c80c92926a4b)
REM AIRSS Version 0.9.1 bugfix July 2018 build 013d7b7c2542+ Fri, 06 Jul 2018 19:26:36 +0100
REM compiler GCC version 9.3.0
REM options -cpp -mtune=generic -march=x86-64 -g -O0
REM seed -2053493942 -2110438313 414860985 1086950835 1921292369 -1085713157 -1960669661 813826300 1145298252 1322300755 -1824003093 -53848234 -697130338 -80812886 -1729006478 -1861124232 -1697100274 407256838 -1539524163 1005374005 186592040 -648203400 -1549723036 1421413264 -953941001 223445194 2080369060 59874805 1576790519 -198115484 549271790 1592393406 -702952113
REM
CELL 1.54180   50.00000   50.00000   50.00000   90.00000   90.00000   90.00000
LATT -1
SFAC C  
C      1  0.5638480000000  0.5521690000000  0.5097110000000 1.0
C      1  0.5386610000000  0.5228220000000  0.4251980000000 1.0
C      1  0.4386430000000  0.5528550000000  0.4676380000000 1.0
C      1  0.4800150000000  0.4285710000000  0.5108920000000 1.0
C      1  0.5037620000000  0.4779820000000  0.4959600000000 1.0
C      1  0.4332430000000  0.5030820000000  0.5389070000000 1.0
C      1  0.4599920000000  0.5045010000000  0.5747490000000 1.0
C      1  0.5382280000000  0.5162360000000  0.5650480000000 1.0
C      1  0.5352630000000  0.5440490000000  0.4681370000000 1.0
C      1  0.5015200000000  0.5874400000000  0.4890000000000 1.0
C      1  0.5136540000000  0.5275700000000  0.4147820000000 1.0
C      1  0.5201410000000  0.5080620000000  0.5859160000000 1.0
C      1  0.5139370000000  0.5578250000000  0.5566260000000 1.0
C      1  0.4719710000000  0.4676580000000  0.4321570000000 1.0
C      1  0.5114990000000  0.5646950000000  0.5279550000000 1.0
C      1  0.4479340000000  0.4853630000000  0.5562610000000 1.0
C      1  0.4522720000000  0.4644790000000  0.4528870000000 1.0
C      1  0.4627040000000  0.5050700000000  0.4965470000000 1.0
C      1  0.4695430000000  0.4945710000000  0.4193680000000 1.0
C      1  0.4932160000000  0.5108930000000  0.4278040000000 1.0
C      1  0.4610280000000  0.4468070000000  0.5244810000000 1.0
C      1  0.4832060000000  0.5255340000000  0.4558330000000 1.0
C      1  0.5691320000000  0.4474680000000  0.4807790000000 1.0
C      1  0.4186470000000  0.4971200000000  0.5156310000000 1.0
C      1  0.5186110000000  0.5343620000000  0.5194540000000 1.0
C      1  0.4883610000000  0.4989570000000  0.5086540000000 1.0
C      1  0.5398260000000  0.4394090000000  0.4532430000000 1.0
C      1  0.5685400000000  0.5101180000000  0.4591170000000 1.0
C      1  0.5715440000000  0.5074680000000  0.4872110000000 1.0
C      1  0.4725090000000  0.5230170000000  0.5545840000000 1.0
C      1  0.5541990000000  0.4868750000000  0.5007500000000 1.0
C      1  0.4189930000000  0.4700590000000  0.5037480000000 1.0
C      1  0.5212320000000  0.5114340000000  0.5373290000000 1.0
C      1  0.4787860000000  0.5480240000000  0.4970090000000 1.0
C      1  0.4787410000000  0.5032570000000  0.5943910000000 1.0
C      1  0.5406140000000  0.4623870000000  0.5692980000000 1.0
C      1  0.5285030000000  0.4805970000000  0.4855080000000 1.0
C      1  0.5703360000000  0.4622140000000  0.5043500000000 1.0
C      1  0.5774150000000  0.5264780000000  0.5069120000000 1.0
C      1  0.5743780000000  0.5215620000000  0.5356060000000 1.0
C      1  0.4445730000000  0.5058490000000  0.4270920000000 1.0
C      1  0.4538810000000  0.4477210000000  0.4763570000000 1.0
C      1  0.4927710000000  0.5419310000000  0.5690290000000 1.0
C      1  0.5437910000000  0.4942770000000  0.5278500000000 1.0
C      1  0.4571260000000  0.5331740000000  0.5080320000000 1.0
C      1  0.5103410000000  0.5249090000000  0.4706790000000 1.0
C      1  0.4873590000000  0.5791310000000  0.4666950000000 1.0
C      1  0.4425890000000  0.4540870000000  0.5028650000000 1.0
C      1  0.5327180000000  0.4212690000000  0.5026110000000 1.0
C      1  0.4155500000000  0.4959670000000  0.4700410000000 1.0
C      1  0.4355380000000  0.5316850000000  0.4265920000000 1.0
C      1  0.4992260000000  0.4864370000000  0.5837710000000 1.0
C      1  0.5191630000000  0.4973240000000  0.4646210000000 1.0
C      1  0.5067730000000  0.4224780000000  0.5179700000000 1.0
C      1  0.4994090000000  0.4611860000000  0.4342170000000 1.0
C      1  0.5162150000000  0.4534060000000  0.5592380000000 1.0
C      1  0.5463970000000  0.4310110000000  0.5274840000000 1.0
C      1  0.5613840000000  0.5010590000000  0.5507280000000 1.0
C      1  0.5408480000000  0.5454120000000  0.5592390000000 1.0
C      1  0.5212600000000  0.4321620000000  0.5412990000000 1.0
C      1  0.4353950000000  0.5474800000000  0.5190270000000 1.0
C      1  0.4056490000000  0.4718990000000  0.4791010000000 1.0
C      1  0.5614720000000  0.4595500000000  0.4548640000000 1.0
C      1  0.4419710000000  0.4928850000000  0.4549800000000 1.0
C      1  0.4939940000000  0.5001140000000  0.5388580000000 1.0
C      1  0.4757520000000  0.4296880000000  0.4818900000000 1.0
C      1  0.4467130000000  0.5289680000000  0.5385160000000 1.0
C      1  0.4707510000000  0.5547260000000  0.4681640000000 1.0
C      1  0.4646520000000  0.5063110000000  0.4687660000000 1.0
C      1  0.5609450000000  0.5471880000000  0.5391140000000 1.0
C      1  0.4965220000000  0.4253410000000  0.4653180000000 1.0
C      1  0.5472630000000  0.4283200000000  0.4797910000000 1.0
C      1  0.4935880000000  0.4727650000000  0.5571270000000 1.0
C      1  0.4650690000000  0.4633160000000  0.5486660000000 1.0
C      1  0.5126030000000  0.4874890000000  0.4372470000000 1.0
C      1  0.5251060000000  0.5780200000000  0.5036030000000 1.0
C      1  0.5622540000000  0.4856850000000  0.4447040000000 1.0
C      1  0.4259620000000  0.5416380000000  0.4927710000000 1.0
C      1  0.5440000000000  0.5611290000000  0.4906480000000 1.0
C      1  0.5118300000000  0.4392340000000  0.4473740000000 1.0
C      1  0.5654160000000  0.4512680000000  0.5300090000000 1.0
C      1  0.5527240000000  0.5323610000000  0.4482420000000 1.0
C      1  0.5594500000000  0.4710540000000  0.5510050000000 1.0
C      1  0.4143090000000  0.5147240000000  0.4931080000000 1.0
C      1  0.5402580000000  0.4936800000000  0.4275920000000 1.0
C      1  0.5006270000000  0.5268680000000  0.4985470000000 1.0
C      1  0.4893310000000  0.5719630000000  0.5106740000000 1.0
C      1  0.4986060000000  0.5266380000000  0.5921970000000 1.0
C      1  0.4262280000000  0.5501790000000  0.4422560000000 1.0
END
