TITL C-18091-5828-5 0.0340088884542437 125000 -110.249837315869 0 0 17 (C1) n - 1
REM
REM in /rds/project/t2_vol4/rds-t2-cs072/BORA/CARBON/from-Arr/AIRSS/Generating-Clusters/GAP-ML-2020/Only-C1/SD-CG/HFTN-CG
REM
REM
REM
REM
REM
REM ./C.cell (11c1c37f851c82e70ff6c80c92926a4b)
REM AIRSS Version 0.9.1 bugfix July 2018 build 013d7b7c2542+ Fri, 06 Jul 2018 19:26:36 +0100
REM compiler GCC version 9.3.0
REM options -cpp -mtune=generic -march=x86-64 -g -O0
REM seed 2004023945 67100949 2040898631 2094911540 -693215869 387860763 -396146526 1027850873 -318416990 2043486865 294654383 633887559 -641355946 -1323218323 -1114305699 -394713398 -688893199 168516435 380085847 -37329815 261040793 -1059724525 -1989817220 878713228 -1225223706 -801950578 1377781316 764749803 -740698955 -213096189 -815349042 -322379910 -2048984858
REM
CELL 1.54180   50.00000   50.00000   50.00000   90.00000   90.00000   90.00000
LATT -1
SFAC C  
C      1  0.4939190000000  0.4604430000000  0.5057870000000 1.0
C      1  0.4961250000000  0.4438380000000  0.4862410000000 1.0
C      1  0.4919380000000  0.4854410000000  0.5152040000000 1.0
C      1  0.4653000000000  0.5329390000000  0.4898880000000 1.0
C      1  0.5370330000000  0.4893790000000  0.5040430000000 1.0
C      1  0.5024270000000  0.4595830000000  0.4657790000000 1.0
C      1  0.4524740000000  0.5134980000000  0.5008900000000 1.0
C      1  0.5375900000000  0.4782590000000  0.4632940000000 1.0
C      1  0.5514130000000  0.4787460000000  0.4860230000000 1.0
C      1  0.4850540000000  0.5491210000000  0.4860870000000 1.0
C      1  0.5096180000000  0.5289440000000  0.5202570000000 1.0
C      1  0.4684240000000  0.5025990000000  0.5211120000000 1.0
C      1  0.5154070000000  0.5005380000000  0.5151200000000 1.0
C      1  0.4972940000000  0.5318510000000  0.5452600000000 1.0
C      1  0.5073720000000  0.5470470000000  0.5004200000000 1.0
C      1  0.4751740000000  0.5188000000000  0.5415170000000 1.0
C      1  0.5134370000000  0.4789740000000  0.4530780000000 1.0
END
