TITL C-184267-2463-8 -14.4565655076121 125000 -117.643668416668 0 0 19 (C1) n - 1
REM
REM in /rds/project/t2_vol4/rds-t2-cs072/BORA/CARBON/from-Arr/AIRSS/Generating-Clusters/GAP-ML-2020/Only-C1/SD-CG/HFTN-CG
REM
REM
REM
REM
REM
REM ./C.cell (11c1c37f851c82e70ff6c80c92926a4b)
REM AIRSS Version 0.9.1 bugfix July 2018 build 013d7b7c2542+ Fri, 06 Jul 2018 19:26:36 +0100
REM compiler GCC version 9.3.0
REM options -cpp -mtune=generic -march=x86-64 -g -O0
REM seed 641504687 1527892028 -1013167247 -1079166620 2006915068 514851518 1462775668 -1087579056 1182622208 -114822543 1244425139 763514567 -404872364 -1851733368 -1224785404 1010306711 1460923123 -535456458 1347100782 -1473879611 -1332321188 -1002342391 272372465 366803526 -956212250 -159516973 -1415431193 439993992 -1420527244 -81277385 -1275331880 254087433 -1789102938
REM
CELL 1.54180   50.00000   50.00000   50.00000   90.00000   90.00000   90.00000
LATT -1
SFAC C  
C      1  0.5013030000000  0.4872990000000  0.5001000000000 1.0
C      1  0.4641970000000  0.4722410000000  0.5356920000000 1.0
C      1  0.5398870000000  0.5128670000000  0.5009820000000 1.0
C      1  0.4925720000000  0.5510360000000  0.4820800000000 1.0
C      1  0.5104380000000  0.5676240000000  0.4871890000000 1.0
C      1  0.5622240000000  0.5153130000000  0.4530290000000 1.0
C      1  0.5097600000000  0.4544900000000  0.5419100000000 1.0
C      1  0.4638540000000  0.4971160000000  0.5201980000000 1.0
C      1  0.5263380000000  0.4728060000000  0.5341150000000 1.0
C      1  0.4838380000000  0.4622460000000  0.4995440000000 1.0
C      1  0.4805150000000  0.5264160000000  0.4828300000000 1.0
C      1  0.4858170000000  0.4546280000000  0.5278210000000 1.0
C      1  0.5255650000000  0.4890960000000  0.5127220000000 1.0
C      1  0.4843910000000  0.5106380000000  0.5058120000000 1.0
C      1  0.4581250000000  0.4734720000000  0.5063900000000 1.0
C      1  0.4579040000000  0.4906550000000  0.4557210000000 1.0
C      1  0.4674870000000  0.5123590000000  0.4635400000000 1.0
C      1  0.5354590000000  0.5354660000000  0.5150890000000 1.0
C      1  0.5503270000000  0.5142310000000  0.4752340000000 1.0
END
