TITL C-184271-2385-9 -0.0934344926416011 125000 -386.505113496024 0 0 58 (C1) n - 1
REM
REM in /rds/project/t2_vol4/rds-t2-cs072/BORA/CARBON/from-Arr/AIRSS/Generating-Clusters/GAP-ML-2020/Only-C1/SD-CG/HFTN-CG
REM
REM
REM
REM
REM
REM ./C.cell (11c1c37f851c82e70ff6c80c92926a4b)
REM AIRSS Version 0.9.1 bugfix July 2018 build 013d7b7c2542+ Fri, 06 Jul 2018 19:26:36 +0100
REM compiler GCC version 9.3.0
REM options -cpp -mtune=generic -march=x86-64 -g -O0
REM seed 1916459083 -2077244095 -1714113252 2094920382 -1596077586 -1360808904 389757101 -918705544 -1790515476 1183912054 2042100436 464503002 1678940277 2101985838 1476160967 1799201346 442663620 1216907863 -1865392540 -389093698 1595823003 1981581917 164437768 -1205027302 -26251617 889398246 -1237945982 1266565405 -1343460265 -1315949637 1862131311 1301774930 1938074857
REM
CELL 1.54180   50.00000   50.00000   50.00000   90.00000   90.00000   90.00000
LATT -1
SFAC C  
C      1  0.5502360000000  0.5028240000000  0.5248500000000 1.0
C      1  0.5234650000000  0.4802220000000  0.4401260000000 1.0
C      1  0.4891830000000  0.4523020000000  0.4660630000000 1.0
C      1  0.5067110000000  0.5110840000000  0.5012540000000 1.0
C      1  0.4730650000000  0.4389560000000  0.5164060000000 1.0
C      1  0.4714710000000  0.5407640000000  0.4809300000000 1.0
C      1  0.5201110000000  0.5087480000000  0.4406600000000 1.0
C      1  0.5382470000000  0.5015330000000  0.5524320000000 1.0
C      1  0.5351690000000  0.4778690000000  0.5211220000000 1.0
C      1  0.4656570000000  0.4717640000000  0.4668440000000 1.0
C      1  0.4792560000000  0.4876230000000  0.4474730000000 1.0
C      1  0.5298400000000  0.4736470000000  0.5488530000000 1.0
C      1  0.4495870000000  0.4753350000000  0.4884090000000 1.0
C      1  0.5110230000000  0.4574920000000  0.4861520000000 1.0
C      1  0.5424840000000  0.5449330000000  0.4661640000000 1.0
C      1  0.4852070000000  0.5627260000000  0.5126410000000 1.0
C      1  0.4910320000000  0.5148330000000  0.4498770000000 1.0
C      1  0.5433010000000  0.5199750000000  0.4538040000000 1.0
C      1  0.5304480000000  0.5225020000000  0.5143550000000 1.0
C      1  0.4409430000000  0.4743330000000  0.5386970000000 1.0
C      1  0.4322770000000  0.4972910000000  0.4891800000000 1.0
C      1  0.5001710000000  0.4399020000000  0.5293040000000 1.0
C      1  0.5467370000000  0.4718320000000  0.4557740000000 1.0
C      1  0.5561350000000  0.5503640000000  0.5363730000000 1.0
C      1  0.5182730000000  0.4359900000000  0.5075450000000 1.0
C      1  0.5274720000000  0.5449340000000  0.5372860000000 1.0
C      1  0.5279300000000  0.5686170000000  0.4965060000000 1.0
C      1  0.4652770000000  0.5312290000000  0.4531160000000 1.0
C      1  0.4862420000000  0.4812470000000  0.5522800000000 1.0
C      1  0.5536830000000  0.5566540000000  0.4904180000000 1.0
C      1  0.4586380000000  0.4647050000000  0.5156540000000 1.0
C      1  0.5179590000000  0.5228440000000  0.5549590000000 1.0
C      1  0.4576670000000  0.4876110000000  0.5581330000000 1.0
C      1  0.4767500000000  0.4241690000000  0.4698620000000 1.0
C      1  0.4988400000000  0.4673870000000  0.4419570000000 1.0
C      1  0.5142590000000  0.5549940000000  0.4739170000000 1.0
C      1  0.4295280000000  0.5076760000000  0.5171130000000 1.0
C      1  0.5769850000000  0.5031610000000  0.4847680000000 1.0
C      1  0.4821310000000  0.4833390000000  0.5213940000000 1.0
C      1  0.5393760000000  0.4515620000000  0.4741220000000 1.0
C      1  0.5730890000000  0.5144220000000  0.5093030000000 1.0
C      1  0.4665850000000  0.5383380000000  0.5121390000000 1.0
C      1  0.4394110000000  0.5225570000000  0.4469540000000 1.0
C      1  0.4607290000000  0.5157340000000  0.5545500000000 1.0
C      1  0.4861130000000  0.5658340000000  0.4837160000000 1.0
C      1  0.4189000000000  0.4885570000000  0.5335670000000 1.0
C      1  0.5124430000000  0.5644280000000  0.5209590000000 1.0
C      1  0.5604360000000  0.4973560000000  0.4634490000000 1.0
C      1  0.4468990000000  0.5269330000000  0.5301920000000 1.0
C      1  0.5049010000000  0.4588160000000  0.5508020000000 1.0
C      1  0.5685870000000  0.5446320000000  0.5124520000000 1.0
C      1  0.5416130000000  0.4309380000000  0.4925230000000 1.0
C      1  0.5086460000000  0.4815410000000  0.5047370000000 1.0
C      1  0.4833210000000  0.5138560000000  0.5206620000000 1.0
C      1  0.4264690000000  0.5093760000000  0.4648740000000 1.0
C      1  0.4990620000000  0.5265880000000  0.4770610000000 1.0
C      1  0.4911920000000  0.5134020000000  0.5508860000000 1.0
C      1  0.4688390000000  0.4217190000000  0.4944060000000 1.0
END
