TITL C-18099-6062-5 -13.9158392042477 125000 -575.1439603011 0 0 81 (C1) n - 1
REM
REM in /rds/project/t2_vol4/rds-t2-cs072/BORA/CARBON/from-Arr/AIRSS/Generating-Clusters/GAP-ML-2020/Only-C1/SD-CG/HFTN-CG
REM
REM
REM
REM
REM
REM ./C.cell (11c1c37f851c82e70ff6c80c92926a4b)
REM AIRSS Version 0.9.1 bugfix July 2018 build 013d7b7c2542+ Fri, 06 Jul 2018 19:26:36 +0100
REM compiler GCC version 9.3.0
REM options -cpp -mtune=generic -march=x86-64 -g -O0
REM seed -832743803 -1837070390 1474495610 1126800194 -19730983 1789880823 -1869627619 -1556715124 -2049885989 1436557479 122166602 -101500127 1047192665 597444101 1109855444 179076979 1805401755 -1276440831 -1887231143 383480819 754016934 -713510984 -1162779690 373182977 119121125 -2147191586 1255196554 1258776916 1158438485 -1486726814 -1796718428 -2081391130 -595545533
REM
CELL 1.54180   50.00000   50.00000   50.00000   90.00000   90.00000   90.00000
LATT -1
SFAC C  
C      1  0.5342180000000  0.4399520000000  0.4582570000000 1.0
C      1  0.4448180000000  0.5239560000000  0.5382370000000 1.0
C      1  0.4973660000000  0.4695610000000  0.4897850000000 1.0
C      1  0.4663440000000  0.5276310000000  0.5583860000000 1.0
C      1  0.5092910000000  0.5721300000000  0.5179340000000 1.0
C      1  0.4825560000000  0.5507150000000  0.5535530000000 1.0
C      1  0.5694300000000  0.4738150000000  0.4858770000000 1.0
C      1  0.4693050000000  0.5007700000000  0.4865290000000 1.0
C      1  0.4676340000000  0.4786500000000  0.5665210000000 1.0
C      1  0.5000520000000  0.4973010000000  0.4464800000000 1.0
C      1  0.4695270000000  0.5718040000000  0.4768430000000 1.0
C      1  0.4553310000000  0.4649140000000  0.4596270000000 1.0
C      1  0.5228410000000  0.4781360000000  0.4914420000000 1.0
C      1  0.4323360000000  0.4976490000000  0.5370360000000 1.0
C      1  0.5485240000000  0.5294940000000  0.5550530000000 1.0
C      1  0.5104290000000  0.5160370000000  0.5172670000000 1.0
C      1  0.5594510000000  0.5162270000000  0.4571660000000 1.0
C      1  0.4371710000000  0.5040030000000  0.4791840000000 1.0
C      1  0.4395870000000  0.4588360000000  0.4840950000000 1.0
C      1  0.4751610000000  0.4423830000000  0.4519970000000 1.0
C      1  0.4961330000000  0.4953500000000  0.5282520000000 1.0
C      1  0.4725380000000  0.4378350000000  0.5442550000000 1.0
C      1  0.4487020000000  0.5123940000000  0.4348800000000 1.0
C      1  0.4367430000000  0.5325570000000  0.4870540000000 1.0
C      1  0.4865340000000  0.4259990000000  0.4741560000000 1.0
C      1  0.5502330000000  0.4600750000000  0.5385630000000 1.0
C      1  0.4811050000000  0.4812110000000  0.4660070000000 1.0
C      1  0.5115540000000  0.4569370000000  0.5639620000000 1.0
C      1  0.4820590000000  0.5607520000000  0.5255950000000 1.0
C      1  0.5006400000000  0.5205160000000  0.4246650000000 1.0
C      1  0.5747950000000  0.5044400000000  0.5254120000000 1.0
C      1  0.5043770000000  0.5604710000000  0.4458810000000 1.0
C      1  0.4823010000000  0.5262630000000  0.4833510000000 1.0
C      1  0.4539450000000  0.5868520000000  0.4942850000000 1.0
C      1  0.4596760000000  0.5370990000000  0.4412750000000 1.0
C      1  0.5098930000000  0.5516150000000  0.5598820000000 1.0
C      1  0.5592570000000  0.5449550000000  0.5083020000000 1.0
C      1  0.5235030000000  0.5289770000000  0.5696000000000 1.0
C      1  0.4415190000000  0.5408330000000  0.5140340000000 1.0
C      1  0.4908550000000  0.5349570000000  0.5094650000000 1.0
C      1  0.4561750000000  0.5665080000000  0.5134920000000 1.0
C      1  0.4838570000000  0.4549200000000  0.5640580000000 1.0
C      1  0.5618030000000  0.5057680000000  0.5493330000000 1.0
C      1  0.5541960000000  0.4366220000000  0.4980910000000 1.0
C      1  0.4493630000000  0.4497020000000  0.5332570000000 1.0
C      1  0.5239530000000  0.4815250000000  0.5712410000000 1.0
C      1  0.5069790000000  0.5167180000000  0.4700910000000 1.0
C      1  0.5279240000000  0.5267580000000  0.4249370000000 1.0
C      1  0.5432840000000  0.5052110000000  0.4350450000000 1.0
C      1  0.5193730000000  0.5709140000000  0.4909920000000 1.0
C      1  0.5308890000000  0.5499740000000  0.4406130000000 1.0
C      1  0.5215260000000  0.4546480000000  0.4371680000000 1.0
C      1  0.4151550000000  0.4889450000000  0.5171570000000 1.0
C      1  0.4873280000000  0.4246140000000  0.5239780000000 1.0
C      1  0.4586590000000  0.5447190000000  0.4697200000000 1.0
C      1  0.4804930000000  0.4839850000000  0.5090990000000 1.0
C      1  0.4250420000000  0.4819290000000  0.4932890000000 1.0
C      1  0.4412320000000  0.4931580000000  0.4515990000000 1.0
C      1  0.5255710000000  0.5645880000000  0.5391340000000 1.0
C      1  0.5731260000000  0.5192990000000  0.5031740000000 1.0
C      1  0.4726690000000  0.4257300000000  0.4992210000000 1.0
C      1  0.5086660000000  0.5052180000000  0.5757310000000 1.0
C      1  0.5295240000000  0.4233630000000  0.5006450000000 1.0
C      1  0.5720570000000  0.5021190000000  0.4790270000000 1.0
C      1  0.4987270000000  0.5722750000000  0.4707020000000 1.0
C      1  0.5499120000000  0.5445520000000  0.4608500000000 1.0
C      1  0.5159340000000  0.4250240000000  0.4755550000000 1.0
C      1  0.4457640000000  0.4748290000000  0.5484860000000 1.0
C      1  0.5487200000000  0.4818680000000  0.5567200000000 1.0
C      1  0.4794510000000  0.5045460000000  0.5713840000000 1.0
C      1  0.4857260000000  0.5433950000000  0.4317550000000 1.0
C      1  0.5575180000000  0.4495060000000  0.4727230000000 1.0
C      1  0.4954760000000  0.4458120000000  0.4345280000000 1.0
C      1  0.5240470000000  0.4830930000000  0.4366630000000 1.0
C      1  0.5451300000000  0.5570850000000  0.4865660000000 1.0
C      1  0.5638250000000  0.4596570000000  0.5127680000000 1.0
C      1  0.5218890000000  0.5059100000000  0.4925210000000 1.0
C      1  0.4491030000000  0.4417190000000  0.5046450000000 1.0
C      1  0.5154220000000  0.4262770000000  0.5248650000000 1.0
C      1  0.5273500000000  0.4435370000000  0.5440970000000 1.0
C      1  0.5494240000000  0.5499280000000  0.5349370000000 1.0
END
