TITL C-184264-2461-6 -0.004201863707399 125000 -396.193820079744 0 0 59 (C1) n - 1
REM
REM in /rds/project/t2_vol4/rds-t2-cs072/BORA/CARBON/from-Arr/AIRSS/Generating-Clusters/GAP-ML-2020/Only-C1/SD-CG/HFTN-CG
REM
REM
REM
REM
REM
REM ./C.cell (11c1c37f851c82e70ff6c80c92926a4b)
REM AIRSS Version 0.9.1 bugfix July 2018 build 013d7b7c2542+ Fri, 06 Jul 2018 19:26:36 +0100
REM compiler GCC version 9.3.0
REM options -cpp -mtune=generic -march=x86-64 -g -O0
REM seed -1586124394 -1115841140 1975905472 367894976 -88784053 -1514150039 -1095066680 -818239356 -1660033001 129538728 278046691 1857934013 1970812073 -1338201869 1812203847 -1315746861 -2063257584 1380411157 -1364958468 1098822478 2008673020 -874361854 58042201 -1624622400 -141519950 -1646575521 -1197199169 230442876 -1060985379 -239387240 -102651341 -21677266 -510195131
REM
CELL 1.54180   50.00000   50.00000   50.00000   90.00000   90.00000   90.00000
LATT -1
SFAC C  
C      1  0.4880640000000  0.5700590000000  0.5066800000000 1.0
C      1  0.4745750000000  0.4470370000000  0.5450440000000 1.0
C      1  0.5652810000000  0.5123290000000  0.5025830000000 1.0
C      1  0.5497620000000  0.5488240000000  0.4771970000000 1.0
C      1  0.4911300000000  0.4314080000000  0.5095550000000 1.0
C      1  0.5566920000000  0.4870990000000  0.4629350000000 1.0
C      1  0.5539340000000  0.5386920000000  0.5040870000000 1.0
C      1  0.5082020000000  0.5171890000000  0.5079080000000 1.0
C      1  0.4907950000000  0.5294870000000  0.4560340000000 1.0
C      1  0.4565810000000  0.4980220000000  0.5488200000000 1.0
C      1  0.4337640000000  0.5258310000000  0.5080580000000 1.0
C      1  0.4711870000000  0.5206130000000  0.5555430000000 1.0
C      1  0.4770090000000  0.4947240000000  0.4275310000000 1.0
C      1  0.4432430000000  0.5289800000000  0.4804460000000 1.0
C      1  0.4390760000000  0.5005880000000  0.5231470000000 1.0
C      1  0.4791650000000  0.4743120000000  0.4702240000000 1.0
C      1  0.4394800000000  0.4519280000000  0.5062190000000 1.0
C      1  0.5259300000000  0.4499840000000  0.4673440000000 1.0
C      1  0.5159310000000  0.5651080000000  0.5051940000000 1.0
C      1  0.5304350000000  0.5440740000000  0.5192910000000 1.0
C      1  0.5349450000000  0.4474440000000  0.5127400000000 1.0
C      1  0.5126080000000  0.4596690000000  0.4465220000000 1.0
C      1  0.5579080000000  0.5282700000000  0.4601040000000 1.0
C      1  0.4636020000000  0.4983140000000  0.5068090000000 1.0
C      1  0.4794040000000  0.5642610000000  0.4801190000000 1.0
C      1  0.5562460000000  0.4619640000000  0.5011610000000 1.0
C      1  0.4994610000000  0.4357160000000  0.5374360000000 1.0
C      1  0.4764180000000  0.4759700000000  0.5482850000000 1.0
C      1  0.5400800000000  0.5085900000000  0.4495560000000 1.0
C      1  0.4548270000000  0.4882440000000  0.4776900000000 1.0
C      1  0.4654510000000  0.4472970000000  0.5149610000000 1.0
C      1  0.4785960000000  0.4753340000000  0.5155110000000 1.0
C      1  0.5126940000000  0.4456820000000  0.4942260000000 1.0
C      1  0.4449830000000  0.5462460000000  0.5235620000000 1.0
C      1  0.4675910000000  0.5170550000000  0.4397420000000 1.0
C      1  0.5420360000000  0.4980890000000  0.5409410000000 1.0
C      1  0.4322060000000  0.4715050000000  0.4869010000000 1.0
C      1  0.4975900000000  0.4731860000000  0.4931340000000 1.0
C      1  0.4805320000000  0.5237000000000  0.5066130000000 1.0
C      1  0.4736740000000  0.5499510000000  0.5227580000000 1.0
C      1  0.4589530000000  0.5451480000000  0.5474160000000 1.0
C      1  0.5435520000000  0.4906580000000  0.4927720000000 1.0
C      1  0.5149850000000  0.4970200000000  0.4886090000000 1.0
C      1  0.5114270000000  0.5069460000000  0.4590560000000 1.0
C      1  0.5684200000000  0.4958730000000  0.5277300000000 1.0
C      1  0.5737250000000  0.5080510000000  0.4744480000000 1.0
C      1  0.5011330000000  0.4865620000000  0.5592410000000 1.0
C      1  0.5527170000000  0.4599850000000  0.4712510000000 1.0
C      1  0.4258170000000  0.4762790000000  0.5136790000000 1.0
C      1  0.4472450000000  0.5106110000000  0.4604060000000 1.0
C      1  0.5243680000000  0.5623050000000  0.4768770000000 1.0
C      1  0.5009090000000  0.5575860000000  0.4614200000000 1.0
C      1  0.5222340000000  0.5205010000000  0.5366310000000 1.0
C      1  0.5770870000000  0.4710060000000  0.5176850000000 1.0
C      1  0.4949080000000  0.4820680000000  0.4463750000000 1.0
C      1  0.4716270000000  0.5361320000000  0.4805330000000 1.0
C      1  0.4999430000000  0.5143110000000  0.5556240000000 1.0
C      1  0.5257300000000  0.4761680000000  0.5490460000000 1.0
C      1  0.5241290000000  0.4500150000000  0.5385850000000 1.0
END
