TITL C-18100-7389-1 -0.216284259753261 125000 -857.065699701879 0 0 121 (C1) n - 1
REM
REM in /rds/project/t2_vol4/rds-t2-cs072/BORA/CARBON/from-Arr/AIRSS/Generating-Clusters/GAP-ML-2020/Only-C1/SD-CG/HFTN-CG
REM
REM
REM
REM
REM
REM ./C.cell (11c1c37f851c82e70ff6c80c92926a4b)
REM AIRSS Version 0.9.1 bugfix July 2018 build 013d7b7c2542+ Fri, 06 Jul 2018 19:26:36 +0100
REM compiler GCC version 9.3.0
REM options -cpp -mtune=generic -march=x86-64 -g -O0
REM seed 1971352875 -60347156 -1158567498 -1955135241 -1256412292 1262299686 689166974 323289773 1784428940 815859053 -1234929486 -1689624855 680913665 1241601613 -164781957 -139905383 1067879692 486961448 351287098 1335231429 -239155176 1824488053 1487896953 -1083168191 -1102021621 -1281124143 1917974813 -768669752 -1838146621 -1992977977 2061734830 1781721197 1038102371
REM
CELL 1.54180   50.00000   50.00000   50.00000   90.00000   90.00000   90.00000
LATT -1
SFAC C  
C      1  0.4623070000000  0.4104070000000  0.4822590000000 1.0
C      1  0.5450300000000  0.5385340000000  0.5654890000000 1.0
C      1  0.4564560000000  0.4809650000000  0.4740630000000 1.0
C      1  0.5026360000000  0.4876370000000  0.4105200000000 1.0
C      1  0.4660270000000  0.5902950000000  0.4804320000000 1.0
C      1  0.4468570000000  0.4610030000000  0.5274840000000 1.0
C      1  0.4963610000000  0.5539740000000  0.5720920000000 1.0
C      1  0.4341270000000  0.4396550000000  0.4472970000000 1.0
C      1  0.5245990000000  0.5581390000000  0.5672770000000 1.0
C      1  0.5416580000000  0.5865750000000  0.4783630000000 1.0
C      1  0.4913050000000  0.4509050000000  0.4485490000000 1.0
C      1  0.4918810000000  0.4611290000000  0.5418360000000 1.0
C      1  0.5357460000000  0.4240110000000  0.4925280000000 1.0
C      1  0.4816640000000  0.5076730000000  0.5951440000000 1.0
C      1  0.4955400000000  0.5442750000000  0.4649560000000 1.0
C      1  0.5809020000000  0.5281230000000  0.4574210000000 1.0
C      1  0.5180650000000  0.4703440000000  0.4862310000000 1.0
C      1  0.5486180000000  0.5428360000000  0.4244700000000 1.0
C      1  0.5822340000000  0.5260110000000  0.4868280000000 1.0
C      1  0.4577350000000  0.4960170000000  0.5999970000000 1.0
C      1  0.4588460000000  0.4701640000000  0.4169370000000 1.0
C      1  0.5157930000000  0.4444420000000  0.5821810000000 1.0
C      1  0.4787360000000  0.4359390000000  0.5555730000000 1.0
C      1  0.5029570000000  0.4880060000000  0.5955080000000 1.0
C      1  0.5067350000000  0.4888190000000  0.5529850000000 1.0
C      1  0.5544030000000  0.4916330000000  0.4602170000000 1.0
C      1  0.5141790000000  0.4468280000000  0.5007050000000 1.0
C      1  0.4237890000000  0.5362060000000  0.4969150000000 1.0
C      1  0.4230900000000  0.4877900000000  0.4395090000000 1.0
C      1  0.4838320000000  0.4948590000000  0.5079660000000 1.0
C      1  0.4922650000000  0.6010320000000  0.5200700000000 1.0
C      1  0.5618870000000  0.4352850000000  0.4983560000000 1.0
C      1  0.5383120000000  0.4618130000000  0.5775420000000 1.0
C      1  0.5590150000000  0.4536490000000  0.5611310000000 1.0
C      1  0.4207660000000  0.4911030000000  0.5134130000000 1.0
C      1  0.4358560000000  0.4620730000000  0.4329920000000 1.0
C      1  0.5303950000000  0.4250670000000  0.4626530000000 1.0
C      1  0.5732930000000  0.4804320000000  0.4798790000000 1.0
C      1  0.4674650000000  0.5933200000000  0.5090490000000 1.0
C      1  0.5476580000000  0.5101180000000  0.5685210000000 1.0
C      1  0.5182590000000  0.4524780000000  0.5291350000000 1.0
C      1  0.4233150000000  0.5184120000000  0.5197720000000 1.0
C      1  0.4701780000000  0.4548860000000  0.4706330000000 1.0
C      1  0.4696360000000  0.4550790000000  0.5778010000000 1.0
C      1  0.5648740000000  0.5391060000000  0.5440170000000 1.0
C      1  0.4880140000000  0.5884560000000  0.4621920000000 1.0
C      1  0.5396440000000  0.5949290000000  0.5063140000000 1.0
C      1  0.4338150000000  0.5630910000000  0.5003710000000 1.0
C      1  0.5285990000000  0.5170740000000  0.4984440000000 1.0
C      1  0.4281070000000  0.4770750000000  0.4884430000000 1.0
C      1  0.4488060000000  0.5759340000000  0.5222660000000 1.0
C      1  0.4379710000000  0.4360880000000  0.5202900000000 1.0
C      1  0.5174140000000  0.5395550000000  0.5097100000000 1.0
C      1  0.4519040000000  0.5394880000000  0.5598710000000 1.0
C      1  0.4362710000000  0.5090370000000  0.4268990000000 1.0
C      1  0.4269850000000  0.4777810000000  0.5368420000000 1.0
C      1  0.5741390000000  0.4399550000000  0.4522480000000 1.0
C      1  0.4853520000000  0.5641520000000  0.4449330000000 1.0
C      1  0.4696180000000  0.4068110000000  0.5107160000000 1.0
C      1  0.5274360000000  0.5802440000000  0.5492700000000 1.0
C      1  0.5690660000000  0.4398810000000  0.5243670000000 1.0
C      1  0.4861820000000  0.4642700000000  0.4210490000000 1.0
C      1  0.4819870000000  0.5094780000000  0.4053540000000 1.0
C      1  0.5480100000000  0.5811080000000  0.5289660000000 1.0
C      1  0.5701690000000  0.5068770000000  0.4415640000000 1.0
C      1  0.4343710000000  0.4928090000000  0.5591410000000 1.0
C      1  0.5034620000000  0.4235020000000  0.4558070000000 1.0
C      1  0.5733850000000  0.4516370000000  0.4775950000000 1.0
C      1  0.5131240000000  0.5952230000000  0.4743420000000 1.0
C      1  0.5263360000000  0.4216680000000  0.5407400000000 1.0
C      1  0.5722650000000  0.5516020000000  0.4959600000000 1.0
C      1  0.5660570000000  0.5586150000000  0.5235550000000 1.0
C      1  0.5220620000000  0.4073630000000  0.5134590000000 1.0
C      1  0.5008520000000  0.5901320000000  0.5445320000000 1.0
C      1  0.4390400000000  0.5322610000000  0.4441970000000 1.0
C      1  0.4976670000000  0.4000150000000  0.5017960000000 1.0
C      1  0.4612080000000  0.5481550000000  0.4342720000000 1.0
C      1  0.4756650000000  0.4684300000000  0.5185200000000 1.0
C      1  0.4898310000000  0.4070540000000  0.4742110000000 1.0
C      1  0.4244460000000  0.5243070000000  0.4696300000000 1.0
C      1  0.5746660000000  0.4647080000000  0.5386740000000 1.0
C      1  0.4439210000000  0.5743720000000  0.4768930000000 1.0
C      1  0.4184980000000  0.4958930000000  0.4663250000000 1.0
C      1  0.5686230000000  0.5104760000000  0.5473780000000 1.0
C      1  0.5128720000000  0.6039820000000  0.5018280000000 1.0
C      1  0.5066350000000  0.4256340000000  0.5634400000000 1.0
C      1  0.5003150000000  0.5576540000000  0.4186320000000 1.0
C      1  0.4801550000000  0.5291810000000  0.5725690000000 1.0
C      1  0.5608790000000  0.5661610000000  0.4726610000000 1.0
C      1  0.4820030000000  0.5741650000000  0.5584760000000 1.0
C      1  0.5271110000000  0.5568930000000  0.4138740000000 1.0
C      1  0.5795240000000  0.4915770000000  0.5286840000000 1.0
C      1  0.4312530000000  0.4463680000000  0.4947810000000 1.0
C      1  0.4467300000000  0.4340300000000  0.4726480000000 1.0
C      1  0.4942540000000  0.4607710000000  0.5919380000000 1.0
C      1  0.4342520000000  0.5197920000000  0.5487700000000 1.0
C      1  0.4853970000000  0.4514770000000  0.4961850000000 1.0
C      1  0.5815530000000  0.4991760000000  0.4996460000000 1.0
C      1  0.5364510000000  0.4732120000000  0.4431400000000 1.0
C      1  0.4956630000000  0.4981900000000  0.4595320000000 1.0
C      1  0.4567130000000  0.4978550000000  0.4108180000000 1.0
C      1  0.4754940000000  0.5022540000000  0.4801040000000 1.0
C      1  0.5163860000000  0.4918460000000  0.5050200000000 1.0
C      1  0.4562510000000  0.5653880000000  0.5486990000000 1.0
C      1  0.5243070000000  0.4815980000000  0.5303840000000 1.0
C      1  0.4610120000000  0.4225260000000  0.5328740000000 1.0
C      1  0.5474470000000  0.4439170000000  0.4482770000000 1.0
C      1  0.5537440000000  0.4285510000000  0.5462340000000 1.0
C      1  0.4778030000000  0.5339480000000  0.4836360000000 1.0
C      1  0.5509470000000  0.5131870000000  0.4213390000000 1.0
C      1  0.5655290000000  0.5503630000000  0.4486680000000 1.0
C      1  0.5363590000000  0.5158780000000  0.4717310000000 1.0
C      1  0.4901320000000  0.5396020000000  0.5096030000000 1.0
C      1  0.4505610000000  0.4786570000000  0.5796030000000 1.0
C      1  0.5105320000000  0.4724330000000  0.4583540000000 1.0
C      1  0.4814780000000  0.5172370000000  0.5252130000000 1.0
C      1  0.5120730000000  0.5212610000000  0.4591640000000 1.0
C      1  0.5309490000000  0.4903900000000  0.4185110000000 1.0
C      1  0.4794370000000  0.5375270000000  0.4131630000000 1.0
C      1  0.5275020000000  0.4893050000000  0.5772070000000 1.0
C      1  0.4900490000000  0.5114600000000  0.5507640000000 1.0
END
