TITL C-184287-2493-6 -0.228863174518313 125000 -566.336901170731 0 0 83 (C1) n - 1
REM
REM in /rds/project/t2_vol4/rds-t2-cs072/BORA/CARBON/from-Arr/AIRSS/Generating-Clusters/GAP-ML-2020/Only-C1/SD-CG/HFTN-CG
REM
REM
REM
REM
REM
REM ./C.cell (11c1c37f851c82e70ff6c80c92926a4b)
REM AIRSS Version 0.9.1 bugfix July 2018 build 013d7b7c2542+ Fri, 06 Jul 2018 19:26:36 +0100
REM compiler GCC version 9.3.0
REM options -cpp -mtune=generic -march=x86-64 -g -O0
REM seed -1094904288 1988137163 505544300 -1714930487 999621794 1686868716 651984254 -1159757398 -1888608331 -1424767057 578986013 1803929422 516803166 722436832 -318409400 476663957 132861276 -686148490 -1134286789 911368924 -814954882 565075724 -1696882042 -360120023 1666897337 -185443755 79141837 -824131089 -1863615351 168548549 -2059401724 -775028303 -1815345155
REM
CELL 1.54180   50.00000   50.00000   50.00000   90.00000   90.00000   90.00000
LATT -1
SFAC C  
C      1  0.5376480000000  0.5229570000000  0.5155690000000 1.0
C      1  0.4709770000000  0.4909050000000  0.5662130000000 1.0
C      1  0.4946420000000  0.5475920000000  0.5311690000000 1.0
C      1  0.4865760000000  0.5716270000000  0.4785100000000 1.0
C      1  0.5644240000000  0.4734060000000  0.4652950000000 1.0
C      1  0.4554870000000  0.5141360000000  0.5643920000000 1.0
C      1  0.5600700000000  0.4913310000000  0.4458530000000 1.0
C      1  0.4945320000000  0.5217460000000  0.4191530000000 1.0
C      1  0.4718890000000  0.5649210000000  0.5253100000000 1.0
C      1  0.5557700000000  0.5453840000000  0.4782330000000 1.0
C      1  0.4242120000000  0.4603800000000  0.4947770000000 1.0
C      1  0.5501030000000  0.4792110000000  0.5502990000000 1.0
C      1  0.4492120000000  0.4448630000000  0.4587370000000 1.0
C      1  0.4523200000000  0.5186440000000  0.5337260000000 1.0
C      1  0.4865880000000  0.4633210000000  0.4584920000000 1.0
C      1  0.5648980000000  0.5306800000000  0.5040500000000 1.0
C      1  0.4988380000000  0.4698520000000  0.4871800000000 1.0
C      1  0.4660310000000  0.5407190000000  0.5660750000000 1.0
C      1  0.5511840000000  0.4472500000000  0.4615020000000 1.0
C      1  0.5305660000000  0.4736090000000  0.5290350000000 1.0
C      1  0.5362240000000  0.4928650000000  0.5062510000000 1.0
C      1  0.5078230000000  0.4268800000000  0.4660280000000 1.0
C      1  0.5593820000000  0.4505610000000  0.5059470000000 1.0
C      1  0.5222770000000  0.4227100000000  0.4905930000000 1.0
C      1  0.4910400000000  0.5365590000000  0.4449240000000 1.0
C      1  0.5173200000000  0.5368820000000  0.5730170000000 1.0
C      1  0.5136120000000  0.5615250000000  0.4819900000000 1.0
C      1  0.5418570000000  0.5447740000000  0.5596320000000 1.0
C      1  0.4951480000000  0.5162260000000  0.5005170000000 1.0
C      1  0.5135760000000  0.4598430000000  0.5748930000000 1.0
C      1  0.4843900000000  0.5183050000000  0.5291440000000 1.0
C      1  0.4264390000000  0.5072420000000  0.4883490000000 1.0
C      1  0.5662620000000  0.4998230000000  0.5406700000000 1.0
C      1  0.5177890000000  0.4275390000000  0.5187950000000 1.0
C      1  0.4718620000000  0.5115810000000  0.4829700000000 1.0
C      1  0.5128560000000  0.5400010000000  0.5067280000000 1.0
C      1  0.5434690000000  0.5186240000000  0.5454900000000 1.0
C      1  0.5115250000000  0.4685440000000  0.4423840000000 1.0
C      1  0.5503010000000  0.5638740000000  0.5415620000000 1.0
C      1  0.4385650000000  0.4987590000000  0.5148240000000 1.0
C      1  0.5415710000000  0.5364450000000  0.4546840000000 1.0
C      1  0.5488960000000  0.5725210000000  0.5152260000000 1.0
C      1  0.4259970000000  0.4819980000000  0.4745590000000 1.0
C      1  0.4527160000000  0.5490000000000  0.5404970000000 1.0
C      1  0.5201390000000  0.5076600000000  0.5644360000000 1.0
C      1  0.4323190000000  0.4706090000000  0.5202110000000 1.0
C      1  0.5647550000000  0.4785790000000  0.4957590000000 1.0
C      1  0.4439030000000  0.5911220000000  0.4945090000000 1.0
C      1  0.5390330000000  0.4463980000000  0.5252010000000 1.0
C      1  0.4660650000000  0.4641140000000  0.5576140000000 1.0
C      1  0.4733170000000  0.5566360000000  0.4578280000000 1.0
C      1  0.4448480000000  0.5255760000000  0.4780740000000 1.0
C      1  0.4942650000000  0.4306690000000  0.5340540000000 1.0
C      1  0.4639910000000  0.4870710000000  0.4988100000000 1.0
C      1  0.4435180000000  0.4732460000000  0.4535170000000 1.0
C      1  0.4514310000000  0.4550600000000  0.5356490000000 1.0
C      1  0.5490990000000  0.4341590000000  0.4860880000000 1.0
C      1  0.5144120000000  0.4963900000000  0.4581030000000 1.0
C      1  0.4944380000000  0.4520110000000  0.5554240000000 1.0
C      1  0.5691570000000  0.5538070000000  0.5217440000000 1.0
C      1  0.4687600000000  0.4857990000000  0.4437690000000 1.0
C      1  0.4930650000000  0.5477260000000  0.5630890000000 1.0
C      1  0.4953060000000  0.4992910000000  0.5501810000000 1.0
C      1  0.5137000000000  0.4937220000000  0.4878430000000 1.0
C      1  0.4453880000000  0.5505040000000  0.4655200000000 1.0
C      1  0.4630010000000  0.4288200000000  0.4929020000000 1.0
C      1  0.5014620000000  0.4747690000000  0.5357530000000 1.0
C      1  0.4695340000000  0.5795750000000  0.5015340000000 1.0
C      1  0.4361680000000  0.5727170000000  0.4790930000000 1.0
C      1  0.4838910000000  0.4692470000000  0.5116830000000 1.0
C      1  0.4778260000000  0.4348600000000  0.4657580000000 1.0
C      1  0.4811470000000  0.4947380000000  0.4180180000000 1.0
C      1  0.5390910000000  0.5104330000000  0.4416020000000 1.0
C      1  0.5067910000000  0.4825750000000  0.4163210000000 1.0
C      1  0.5253530000000  0.4437050000000  0.4495540000000 1.0
C      1  0.5415250000000  0.5684430000000  0.4885150000000 1.0
C      1  0.4374880000000  0.4378900000000  0.4839040000000 1.0
C      1  0.5314330000000  0.4805060000000  0.5730550000000 1.0
C      1  0.5740810000000  0.5013700000000  0.5121990000000 1.0
C      1  0.5163200000000  0.5476510000000  0.4566400000000 1.0
C      1  0.4709760000000  0.4397980000000  0.5185160000000 1.0
C      1  0.4855470000000  0.5082360000000  0.4569200000000 1.0
C      1  0.5205910000000  0.5089040000000  0.4173640000000 1.0
END
