TITL C-184268-2664-6 73.2848927500691 125000 -694.917643243208 0 0 100 (C1) n - 1
REM
REM in /rds/project/t2_vol4/rds-t2-cs072/BORA/CARBON/from-Arr/AIRSS/Generating-Clusters/GAP-ML-2020/Only-C1/SD-CG/HFTN-CG
REM
REM
REM
REM
REM
REM ./C.cell (11c1c37f851c82e70ff6c80c92926a4b)
REM AIRSS Version 0.9.1 bugfix July 2018 build 013d7b7c2542+ Fri, 06 Jul 2018 19:26:36 +0100
REM compiler GCC version 9.3.0
REM options -cpp -mtune=generic -march=x86-64 -g -O0
REM seed -36638342 -478788000 -1806895038 1760847022 -856712209 1061897771 -1609086046 -1084671781 -1218704308 -964456454 -1550211008 -1097633538 -1634890205 1273363827 -1308315341 1809095759 -515344026 1259216918 -1256785142 -87099436 1828217147 -2116437198 -1842800881 665020519 -1766126600 -820027404 -1822763180 -1279064894 1888915007 16747158 1110226644 415156859 -49708152
REM
CELL 1.54180   50.00000   50.00000   50.00000   90.00000   90.00000   90.00000
LATT -1
SFAC C  
C      1  0.4181700000000  0.4983630000000  0.4783020000000 1.0
C      1  0.4901290000000  0.4667250000000  0.4200200000000 1.0
C      1  0.4696800000000  0.5539900000000  0.4318000000000 1.0
C      1  0.5180750000000  0.5448710000000  0.5767080000000 1.0
C      1  0.5724290000000  0.5029850000000  0.5350590000000 1.0
C      1  0.5186420000000  0.4717810000000  0.4202180000000 1.0
C      1  0.4511870000000  0.5173600000000  0.5747850000000 1.0
C      1  0.5343450000000  0.5459680000000  0.4361240000000 1.0
C      1  0.4367260000000  0.4537170000000  0.4808940000000 1.0
C      1  0.4210270000000  0.5202720000000  0.4619830000000 1.0
C      1  0.4202160000000  0.4504870000000  0.5056230000000 1.0
C      1  0.4832020000000  0.4233940000000  0.4822450000000 1.0
C      1  0.5017930000000  0.5240550000000  0.4697890000000 1.0
C      1  0.5083600000000  0.5332440000000  0.5245660000000 1.0
C      1  0.4724560000000  0.5221230000000  0.4697600000000 1.0
C      1  0.5365610000000  0.4888060000000  0.4705470000000 1.0
C      1  0.5133840000000  0.4876370000000  0.5341590000000 1.0
C      1  0.5592300000000  0.4604940000000  0.4481900000000 1.0
C      1  0.5137080000000  0.5213950000000  0.4974790000000 1.0
C      1  0.4631130000000  0.4938350000000  0.4617950000000 1.0
C      1  0.4789460000000  0.4441420000000  0.5370650000000 1.0
C      1  0.5385230000000  0.5072620000000  0.4935420000000 1.0
C      1  0.4183560000000  0.4974680000000  0.5071510000000 1.0
C      1  0.5411550000000  0.4658110000000  0.5394560000000 1.0
C      1  0.4584840000000  0.5445840000000  0.4854110000000 1.0
C      1  0.5429240000000  0.5202560000000  0.4300370000000 1.0
C      1  0.5202350000000  0.5015960000000  0.4252120000000 1.0
C      1  0.4540200000000  0.4976010000000  0.4332890000000 1.0
C      1  0.4472230000000  0.5425100000000  0.5619560000000 1.0
C      1  0.4846100000000  0.5372090000000  0.4158660000000 1.0
C      1  0.5265090000000  0.4676730000000  0.4895050000000 1.0
C      1  0.5019020000000  0.4157620000000  0.5027520000000 1.0
C      1  0.4436710000000  0.5461270000000  0.4389190000000 1.0
C      1  0.4886060000000  0.4788970000000  0.4640840000000 1.0
C      1  0.5219360000000  0.4316450000000  0.4502620000000 1.0
C      1  0.4957230000000  0.4214380000000  0.5301760000000 1.0
C      1  0.5688470000000  0.5067460000000  0.5053080000000 1.0
C      1  0.5639130000000  0.5148520000000  0.4491200000000 1.0
C      1  0.4465860000000  0.5534880000000  0.5350420000000 1.0
C      1  0.5675080000000  0.5372260000000  0.4677990000000 1.0
C      1  0.4557500000000  0.5338980000000  0.5144380000000 1.0
C      1  0.4437550000000  0.5072120000000  0.5148620000000 1.0
C      1  0.4817900000000  0.5247580000000  0.5317750000000 1.0
C      1  0.4761590000000  0.4610750000000  0.5099240000000 1.0
C      1  0.5225170000000  0.5137610000000  0.5427080000000 1.0
C      1  0.4696290000000  0.5612730000000  0.5667950000000 1.0
C      1  0.5106150000000  0.5526510000000  0.4543400000000 1.0
C      1  0.5167300000000  0.5663120000000  0.5334750000000 1.0
C      1  0.4907600000000  0.5791370000000  0.5260040000000 1.0
C      1  0.5656110000000  0.4875210000000  0.4593210000000 1.0
C      1  0.4170370000000  0.4733630000000  0.5225340000000 1.0
C      1  0.5401830000000  0.4248760000000  0.4712530000000 1.0
C      1  0.4601390000000  0.4395550000000  0.4934190000000 1.0
C      1  0.4775690000000  0.5229380000000  0.5883360000000 1.0
C      1  0.5297660000000  0.4159190000000  0.4963600000000 1.0
C      1  0.5695490000000  0.5354900000000  0.4969550000000 1.0
C      1  0.4832280000000  0.4956680000000  0.5393760000000 1.0
C      1  0.4937990000000  0.4306280000000  0.4562270000000 1.0
C      1  0.5341360000000  0.4537390000000  0.4351930000000 1.0
C      1  0.5445090000000  0.4287600000000  0.5165670000000 1.0
C      1  0.4402940000000  0.4338470000000  0.5159250000000 1.0
C      1  0.5382600000000  0.4349770000000  0.5431160000000 1.0
C      1  0.4900030000000  0.5482450000000  0.5814640000000 1.0
C      1  0.4945960000000  0.5127670000000  0.4137750000000 1.0
C      1  0.4346910000000  0.5187430000000  0.4357430000000 1.0
C      1  0.4801750000000  0.4823500000000  0.5689430000000 1.0
C      1  0.4501590000000  0.4894110000000  0.5673420000000 1.0
C      1  0.4928700000000  0.5816770000000  0.4974320000000 1.0
C      1  0.5478360000000  0.4572350000000  0.5097490000000 1.0
C      1  0.4679620000000  0.5733250000000  0.5409720000000 1.0
C      1  0.4608560000000  0.4842930000000  0.5228220000000 1.0
C      1  0.4489690000000  0.4438580000000  0.5410770000000 1.0
C      1  0.5627370000000  0.4426410000000  0.4696470000000 1.0
C      1  0.5364790000000  0.5731030000000  0.5136210000000 1.0
C      1  0.5518810000000  0.5580540000000  0.4563660000000 1.0
C      1  0.4395230000000  0.4719480000000  0.5439470000000 1.0
C      1  0.5667480000000  0.5241000000000  0.5542240000000 1.0
C      1  0.5217930000000  0.5824550000000  0.4914250000000 1.0
C      1  0.5158890000000  0.4220810000000  0.5524840000000 1.0
C      1  0.4974000000000  0.4719160000000  0.4918270000000 1.0
C      1  0.4849300000000  0.5668440000000  0.4519100000000 1.0
C      1  0.4749880000000  0.5698260000000  0.4787330000000 1.0
C      1  0.5780930000000  0.4847130000000  0.4859950000000 1.0
C      1  0.5711890000000  0.4579900000000  0.4924650000000 1.0
C      1  0.4878510000000  0.4543230000000  0.5641900000000 1.0
C      1  0.5501460000000  0.5058700000000  0.5702630000000 1.0
C      1  0.4345520000000  0.5452810000000  0.4670270000000 1.0
C      1  0.4755200000000  0.4908260000000  0.4162660000000 1.0
C      1  0.5325330000000  0.5591080000000  0.5569140000000 1.0
C      1  0.5299120000000  0.5710020000000  0.4682410000000 1.0
C      1  0.4835530000000  0.4546280000000  0.4451400000000 1.0
C      1  0.5588280000000  0.5547490000000  0.5164970000000 1.0
C      1  0.4963810000000  0.5028410000000  0.5842130000000 1.0
C      1  0.5564180000000  0.5482020000000  0.5445450000000 1.0
C      1  0.5592860000000  0.4839200000000  0.5531030000000 1.0
C      1  0.5137540000000  0.4914720000000  0.5058010000000 1.0
C      1  0.5226700000000  0.5155870000000  0.5745060000000 1.0
C      1  0.4380180000000  0.4793220000000  0.4701750000000 1.0
C      1  0.5119740000000  0.4980940000000  0.4561030000000 1.0
C      1  0.5049440000000  0.4360420000000  0.5741540000000 1.0
END
