TITL C-20254-1656-2 -0.27174246722967 125000 -650.197165054512 0 0 92 (C1) n - 1
REM
REM in /rds/project/t2_vol4/rds-t2-cs072/BORA/CARBON/from-Arr/AIRSS/Generating-Clusters/GAP-ML-2020/Only-C1/SD-CG/HFTN-CG
REM
REM
REM
REM
REM
REM ./C.cell (11c1c37f851c82e70ff6c80c92926a4b)
REM AIRSS Version 0.9.1 bugfix July 2018 build 013d7b7c2542+ Fri, 06 Jul 2018 19:26:36 +0100
REM compiler GCC version 9.3.0
REM options -cpp -mtune=generic -march=x86-64 -g -O0
REM seed -1472814778 -2039004382 1392932485 -245679468 849785586 -136813448 -1070773686 -186226141 912630335 1472301881 -1282793015 4420218 -180263986 1483623811 -1054245240 1451871338 1292489320 -734839654 662279317 118028900 485450210 339183112 -1174282383 1713863749 -2081088015 1465008997 329943696 -2070209163 -473955947 1997873689 -505255634 2002959572 1068719342
REM
CELL 1.54180   50.00000   50.00000   50.00000   90.00000   90.00000   90.00000
LATT -1
SFAC C  
C      1  0.5511400000000  0.4400520000000  0.4273630000000 1.0
C      1  0.4721270000000  0.5851150000000  0.4925310000000 1.0
C      1  0.5110570000000  0.5738200000000  0.4691800000000 1.0
C      1  0.4709220000000  0.5101040000000  0.5070590000000 1.0
C      1  0.4271970000000  0.5351080000000  0.5227810000000 1.0
C      1  0.5229990000000  0.4420320000000  0.4292160000000 1.0
C      1  0.5085560000000  0.5168090000000  0.5317500000000 1.0
C      1  0.5649740000000  0.4928130000000  0.5617830000000 1.0
C      1  0.4711870000000  0.4813470000000  0.5731740000000 1.0
C      1  0.4495960000000  0.5250130000000  0.5668110000000 1.0
C      1  0.4902090000000  0.5236600000000  0.4896290000000 1.0
C      1  0.4952800000000  0.5230610000000  0.5833330000000 1.0
C      1  0.5706750000000  0.4961480000000  0.4806430000000 1.0
C      1  0.5772670000000  0.4714650000000  0.4934150000000 1.0
C      1  0.5352170000000  0.5629920000000  0.5140310000000 1.0
C      1  0.5701660000000  0.5210060000000  0.4949520000000 1.0
C      1  0.5175630000000  0.5782250000000  0.4978720000000 1.0
C      1  0.4220670000000  0.5201830000000  0.4979690000000 1.0
C      1  0.4880610000000  0.4845700000000  0.5501820000000 1.0
C      1  0.4321410000000  0.5167680000000  0.5445990000000 1.0
C      1  0.5422510000000  0.5106040000000  0.4414770000000 1.0
C      1  0.4424950000000  0.5566340000000  0.4719310000000 1.0
C      1  0.5177540000000  0.4228440000000  0.5276020000000 1.0
C      1  0.5212570000000  0.5114880000000  0.5778180000000 1.0
C      1  0.4733510000000  0.5463050000000  0.4335010000000 1.0
C      1  0.4579160000000  0.4572220000000  0.5656750000000 1.0
C      1  0.5525410000000  0.5349800000000  0.5467770000000 1.0
C      1  0.5664750000000  0.4435370000000  0.4490070000000 1.0
C      1  0.4405630000000  0.4860940000000  0.4549960000000 1.0
C      1  0.5215020000000  0.5561920000000  0.4491850000000 1.0
C      1  0.4575400000000  0.4353000000000  0.5054210000000 1.0
C      1  0.4980070000000  0.4347370000000  0.5466580000000 1.0
C      1  0.4603440000000  0.5211940000000  0.4313640000000 1.0
C      1  0.5775630000000  0.4963390000000  0.5363590000000 1.0
C      1  0.5316440000000  0.4757650000000  0.5445430000000 1.0
C      1  0.5126760000000  0.5309400000000  0.4111840000000 1.0
C      1  0.4457580000000  0.4461890000000  0.4817730000000 1.0
C      1  0.5020490000000  0.5479970000000  0.4291830000000 1.0
C      1  0.5435220000000  0.5372800000000  0.4524510000000 1.0
C      1  0.4922500000000  0.4543890000000  0.4625320000000 1.0
C      1  0.4908000000000  0.5491400000000  0.5730640000000 1.0
C      1  0.4637500000000  0.5633990000000  0.4532200000000 1.0
C      1  0.5541990000000  0.4665290000000  0.5582350000000 1.0
C      1  0.5153170000000  0.4960050000000  0.5543450000000 1.0
C      1  0.4245000000000  0.4923900000000  0.5037820000000 1.0
C      1  0.4726570000000  0.4968330000000  0.4225160000000 1.0
C      1  0.4771970000000  0.4369170000000  0.5631570000000 1.0
C      1  0.4920260000000  0.5074340000000  0.4673490000000 1.0
C      1  0.5696740000000  0.5213670000000  0.5253560000000 1.0
C      1  0.4395730000000  0.5140440000000  0.4507370000000 1.0
C      1  0.5222060000000  0.5067220000000  0.4201500000000 1.0
C      1  0.4936210000000  0.4807700000000  0.4793700000000 1.0
C      1  0.4679420000000  0.4820670000000  0.4974310000000 1.0
C      1  0.4585880000000  0.4757480000000  0.4351590000000 1.0
C      1  0.4692620000000  0.5084340000000  0.5811420000000 1.0
C      1  0.4478810000000  0.5706730000000  0.4962780000000 1.0
C      1  0.5263900000000  0.4241030000000  0.4812190000000 1.0
C      1  0.4877060000000  0.5761510000000  0.5370060000000 1.0
C      1  0.4448840000000  0.4668460000000  0.5402880000000 1.0
C      1  0.4705550000000  0.4362250000000  0.4707330000000 1.0
C      1  0.4932660000000  0.5857000000000  0.5112280000000 1.0
C      1  0.4796230000000  0.4210230000000  0.4932650000000 1.0
C      1  0.4415380000000  0.5599630000000  0.5216980000000 1.0
C      1  0.4810410000000  0.5098180000000  0.5328280000000 1.0
C      1  0.5066250000000  0.4173540000000  0.5009890000000 1.0
C      1  0.5465930000000  0.4307090000000  0.5232030000000 1.0
C      1  0.5074320000000  0.5638760000000  0.5540930000000 1.0
C      1  0.5172470000000  0.4857750000000  0.4977160000000 1.0
C      1  0.5562420000000  0.5391170000000  0.4772770000000 1.0
C      1  0.4999880000000  0.4878320000000  0.4167460000000 1.0
C      1  0.4628130000000  0.5502210000000  0.5648870000000 1.0
C      1  0.5454990000000  0.4621620000000  0.4599370000000 1.0
C      1  0.5336360000000  0.5573260000000  0.5420960000000 1.0
C      1  0.4777940000000  0.4550370000000  0.4364370000000 1.0
C      1  0.5011450000000  0.4594070000000  0.4203520000000 1.0
C      1  0.5177920000000  0.4682070000000  0.5195450000000 1.0
C      1  0.5786140000000  0.4709890000000  0.5213440000000 1.0
C      1  0.4304310000000  0.4900900000000  0.5326310000000 1.0
C      1  0.4828370000000  0.5794360000000  0.4670080000000 1.0
C      1  0.4608670000000  0.5663360000000  0.5420350000000 1.0
C      1  0.4649340000000  0.4602010000000  0.5193150000000 1.0
C      1  0.5657230000000  0.4485710000000  0.4799020000000 1.0
C      1  0.4394410000000  0.4755430000000  0.4823850000000 1.0
C      1  0.5505840000000  0.4295070000000  0.4949110000000 1.0
C      1  0.5384880000000  0.5390300000000  0.4986540000000 1.0
C      1  0.5536890000000  0.4909580000000  0.4582540000000 1.0
C      1  0.4302150000000  0.5310360000000  0.4720940000000 1.0
C      1  0.5487160000000  0.5159130000000  0.5682470000000 1.0
C      1  0.5642920000000  0.4502020000000  0.5360970000000 1.0
C      1  0.5197190000000  0.4430280000000  0.4595650000000 1.0
C      1  0.5168900000000  0.5164710000000  0.5041500000000 1.0
C      1  0.4916990000000  0.4610410000000  0.5328680000000 1.0
END
