TITL C-20281-202-8 -741.39143647637 125000 -778.409931554734 0 0 112 (C1) n - 1
REM
REM in /rds/project/t2_vol4/rds-t2-cs072/BORA/CARBON/from-Arr/AIRSS/Generating-Clusters/GAP-ML-2020/Only-C1/SD-CG/HFTN-CG
REM
REM
REM
REM
REM
REM ./C.cell (11c1c37f851c82e70ff6c80c92926a4b)
REM AIRSS Version 0.9.1 bugfix July 2018 build 013d7b7c2542+ Fri, 06 Jul 2018 19:26:36 +0100
REM compiler GCC version 9.3.0
REM options -cpp -mtune=generic -march=x86-64 -g -O0
REM seed -1766493407 -2057095811 -784857610 -1816513245 215853246 -1790146227 707343559 -626575463 1728580651 -1845848438 1502252575 1278193669 478863494 -737693402 816328348 -1690890757 -286912044 549246227 -523830091 1532556967 1390299889 -1719275686 1710622246 198710669 2045642127 -547261770 -16491754 1194052894 -646572387 62695481 1766037879 -1595822958 340680432
REM
CELL 1.54180   50.00000   50.00000   50.00000   90.00000   90.00000   90.00000
LATT -1
SFAC C  
C      1  0.4731940000000  0.5733170000000  0.5220270000000 1.0
C      1  0.4202510000000  0.5424940000000  0.5238900000000 1.0
C      1  0.4945720000000  0.4648170000000  0.4917130000000 1.0
C      1  0.5585560000000  0.5067250000000  0.4386360000000 1.0
C      1  0.4111540000000  0.4655060000000  0.4894160000000 1.0
C      1  0.5065060000000  0.4714270000000  0.4457030000000 1.0
C      1  0.4578700000000  0.5753580000000  0.4709570000000 1.0
C      1  0.4527870000000  0.5705680000000  0.4992930000000 1.0
C      1  0.5732730000000  0.5258090000000  0.4549090000000 1.0
C      1  0.5562400000000  0.4354540000000  0.4261150000000 1.0
C      1  0.5145870000000  0.5253150000000  0.4546770000000 1.0
C      1  0.5442370000000  0.5659700000000  0.5309750000000 1.0
C      1  0.4684910000000  0.4698970000000  0.4763380000000 1.0
C      1  0.4651300000000  0.5071800000000  0.5011690000000 1.0
C      1  0.4393440000000  0.5228370000000  0.5683120000000 1.0
C      1  0.4422360000000  0.5192740000000  0.4350590000000 1.0
C      1  0.4200100000000  0.5389930000000  0.4773460000000 1.0
C      1  0.4913170000000  0.4459350000000  0.5738560000000 1.0
C      1  0.4377440000000  0.4911990000000  0.4347340000000 1.0
C      1  0.4444260000000  0.4275960000000  0.5078490000000 1.0
C      1  0.5145440000000  0.4239560000000  0.4535120000000 1.0
C      1  0.5296870000000  0.5110470000000  0.4335510000000 1.0
C      1  0.4647550000000  0.5592050000000  0.5461410000000 1.0
C      1  0.5380810000000  0.4153250000000  0.4984450000000 1.0
C      1  0.4321320000000  0.5410770000000  0.4509410000000 1.0
C      1  0.4050630000000  0.4900910000000  0.4747150000000 1.0
C      1  0.4694430000000  0.5255340000000  0.4792820000000 1.0
C      1  0.5038800000000  0.5368060000000  0.5791550000000 1.0
C      1  0.4504950000000  0.4842420000000  0.4929960000000 1.0
C      1  0.4972730000000  0.4966960000000  0.5359310000000 1.0
C      1  0.4560790000000  0.4769860000000  0.5636220000000 1.0
C      1  0.5379220000000  0.4219120000000  0.4382590000000 1.0
C      1  0.5650280000000  0.4350880000000  0.5240250000000 1.0
C      1  0.4247600000000  0.4963840000000  0.5311310000000 1.0
C      1  0.5751900000000  0.4441250000000  0.4769650000000 1.0
C      1  0.5424070000000  0.5076630000000  0.5776940000000 1.0
C      1  0.5137260000000  0.5133060000000  0.5014550000000 1.0
C      1  0.5708920000000  0.5599030000000  0.5201680000000 1.0
C      1  0.4072510000000  0.5150270000000  0.4882590000000 1.0
C      1  0.5802200000000  0.5075810000000  0.5398400000000 1.0
C      1  0.4939200000000  0.4269220000000  0.5307570000000 1.0
C      1  0.5166990000000  0.4781020000000  0.5421110000000 1.0
C      1  0.5192180000000  0.4256410000000  0.5441750000000 1.0
C      1  0.5382300000000  0.4612190000000  0.5775810000000 1.0
C      1  0.5103200000000  0.4920800000000  0.4230130000000 1.0
C      1  0.5144100000000  0.4195750000000  0.4833800000000 1.0
C      1  0.4989290000000  0.5648860000000  0.4361710000000 1.0
C      1  0.5338540000000  0.5840390000000  0.4633160000000 1.0
C      1  0.5713280000000  0.4721740000000  0.4726980000000 1.0
C      1  0.4539440000000  0.5127790000000  0.5283780000000 1.0
C      1  0.4531450000000  0.4518740000000  0.5489140000000 1.0
C      1  0.4420050000000  0.5394690000000  0.5435740000000 1.0
C      1  0.4505560000000  0.5627370000000  0.4473580000000 1.0
C      1  0.5654300000000  0.4280820000000  0.4953870000000 1.0
C      1  0.5767610000000  0.5174930000000  0.4818610000000 1.0
C      1  0.5192460000000  0.4409770000000  0.5691840000000 1.0
C      1  0.5517260000000  0.5353700000000  0.4929270000000 1.0
C      1  0.4915930000000  0.4326370000000  0.5001150000000 1.0
C      1  0.5404270000000  0.4201290000000  0.5271900000000 1.0
C      1  0.5700920000000  0.4579120000000  0.4246100000000 1.0
C      1  0.5265470000000  0.4853190000000  0.5884140000000 1.0
C      1  0.4705360000000  0.5247340000000  0.4285660000000 1.0
C      1  0.5014270000000  0.5610320000000  0.4853810000000 1.0
C      1  0.4825680000000  0.4990370000000  0.4160900000000 1.0
C      1  0.5330080000000  0.5379070000000  0.5396700000000 1.0
C      1  0.4804360000000  0.4861920000000  0.4543770000000 1.0
C      1  0.5652270000000  0.5632980000000  0.4902320000000 1.0
C      1  0.5446870000000  0.5635620000000  0.4469740000000 1.0
C      1  0.4634990000000  0.5277300000000  0.5822120000000 1.0
C      1  0.4732670000000  0.5547530000000  0.4305190000000 1.0
C      1  0.4958670000000  0.4443240000000  0.4413090000000 1.0
C      1  0.5445270000000  0.5838920000000  0.4892970000000 1.0
C      1  0.4791880000000  0.4693510000000  0.5834400000000 1.0
C      1  0.4713450000000  0.4988610000000  0.5467600000000 1.0
C      1  0.5654790000000  0.4972760000000  0.5638710000000 1.0
C      1  0.4980100000000  0.4886960000000  0.5930190000000 1.0
C      1  0.5679420000000  0.5539350000000  0.4585100000000 1.0
C      1  0.5695520000000  0.4796670000000  0.4418720000000 1.0
C      1  0.4743540000000  0.5526910000000  0.4841380000000 1.0
C      1  0.4315580000000  0.4960240000000  0.5609950000000 1.0
C      1  0.4850040000000  0.5159410000000  0.4564070000000 1.0
C      1  0.4915070000000  0.4928470000000  0.5059940000000 1.0
C      1  0.5841350000000  0.4850620000000  0.5210280000000 1.0
C      1  0.4382410000000  0.4480210000000  0.5250780000000 1.0
C      1  0.5065910000000  0.5781280000000  0.4609600000000 1.0
C      1  0.4792940000000  0.5492210000000  0.5687540000000 1.0
C      1  0.4093100000000  0.5167680000000  0.5171030000000 1.0
C      1  0.4254780000000  0.4541960000000  0.4658490000000 1.0
C      1  0.4627500000000  0.4281860000000  0.4886630000000 1.0
C      1  0.5190430000000  0.4685690000000  0.4728950000000 1.0
C      1  0.4682900000000  0.4481770000000  0.4375330000000 1.0
C      1  0.5785180000000  0.5337140000000  0.5299940000000 1.0
C      1  0.4284790000000  0.4721130000000  0.5122830000000 1.0
C      1  0.5000590000000  0.5770650000000  0.5101560000000 1.0
C      1  0.5416710000000  0.4819160000000  0.4814060000000 1.0
C      1  0.5618410000000  0.4692760000000  0.5621940000000 1.0
C      1  0.4883150000000  0.5151820000000  0.5913800000000 1.0
C      1  0.4539270000000  0.4454220000000  0.4648390000000 1.0
C      1  0.5380760000000  0.4968060000000  0.5061110000000 1.0
C      1  0.4764160000000  0.4363040000000  0.5512970000000 1.0
C      1  0.5517670000000  0.5227220000000  0.5208620000000 1.0
C      1  0.4192930000000  0.4788580000000  0.4518390000000 1.0
C      1  0.5846600000000  0.4920410000000  0.4923280000000 1.0
C      1  0.5298760000000  0.5317770000000  0.5693260000000 1.0
C      1  0.5215820000000  0.5344600000000  0.4827630000000 1.0
C      1  0.4639820000000  0.4785020000000  0.4291570000000 1.0
C      1  0.5281250000000  0.5823530000000  0.5140930000000 1.0
C      1  0.5670250000000  0.4626280000000  0.5333450000000 1.0
C      1  0.4275940000000  0.5557730000000  0.4999710000000 1.0
C      1  0.5366590000000  0.4750720000000  0.5246270000000 1.0
C      1  0.5085560000000  0.5249030000000  0.5282280000000 1.0
C      1  0.5223230000000  0.5479980000000  0.4361300000000 1.0
END
