TITL C-20216-1187-4 -13.1344202546997 125000 -406.807064030081 0 0 60 (C1) n - 1
REM
REM in /rds/project/t2_vol4/rds-t2-cs072/BORA/CARBON/from-Arr/AIRSS/Generating-Clusters/GAP-ML-2020/Only-C1/SD-CG/HFTN-CG
REM
REM
REM
REM
REM
REM ./C.cell (11c1c37f851c82e70ff6c80c92926a4b)
REM AIRSS Version 0.9.1 bugfix July 2018 build 013d7b7c2542+ Fri, 06 Jul 2018 19:26:36 +0100
REM compiler GCC version 9.3.0
REM options -cpp -mtune=generic -march=x86-64 -g -O0
REM seed -200248627 -454317250 851952308 310709484 1972523948 -1312881954 -458264681 114375798 -1592905918 383350883 1236991264 844188915 325991494 -107715335 276074614 1106060977 -274616403 67235381 -515221811 -2018126812 154428531 1580762397 -299188407 -1895018043 -948979007 -545929855 -1886149245 1746833099 1003613965 -214272308 -1455725020 -2011446253 -654338381
REM
CELL 1.54180   50.00000   50.00000   50.00000   90.00000   90.00000   90.00000
LATT -1
SFAC C  
C      1  0.4762110000000  0.5254240000000  0.5002790000000 1.0
C      1  0.4822850000000  0.4747130000000  0.4819230000000 1.0
C      1  0.5147410000000  0.4833280000000  0.5110350000000 1.0
C      1  0.5034200000000  0.5276280000000  0.4363010000000 1.0
C      1  0.5209050000000  0.5575710000000  0.4617620000000 1.0
C      1  0.4218620000000  0.5049310000000  0.5146270000000 1.0
C      1  0.5468790000000  0.5118290000000  0.4508000000000 1.0
C      1  0.5267760000000  0.5408250000000  0.4823900000000 1.0
C      1  0.5642350000000  0.4826160000000  0.5158750000000 1.0
C      1  0.4994210000000  0.4964600000000  0.5684040000000 1.0
C      1  0.4608420000000  0.5229570000000  0.4542780000000 1.0
C      1  0.5148010000000  0.5097770000000  0.5133500000000 1.0
C      1  0.5166970000000  0.5458650000000  0.5411080000000 1.0
C      1  0.4937890000000  0.5608300000000  0.4709830000000 1.0
C      1  0.5015600000000  0.4531020000000  0.4467750000000 1.0
C      1  0.5169780000000  0.5598690000000  0.5165130000000 1.0
C      1  0.4432410000000  0.5411790000000  0.5233920000000 1.0
C      1  0.5662160000000  0.5089730000000  0.5035930000000 1.0
C      1  0.4673690000000  0.4566360000000  0.5231990000000 1.0
C      1  0.4914670000000  0.5638540000000  0.5028300000000 1.0
C      1  0.5402330000000  0.5513380000000  0.5039480000000 1.0
C      1  0.4440260000000  0.4616260000000  0.5030130000000 1.0
C      1  0.5568000000000  0.4611350000000  0.4978480000000 1.0
C      1  0.5556430000000  0.5318590000000  0.5182840000000 1.0
C      1  0.4732240000000  0.5477850000000  0.5206760000000 1.0
C      1  0.4812220000000  0.5162980000000  0.5585440000000 1.0
C      1  0.4925750000000  0.4407700000000  0.5230980000000 1.0
C      1  0.5402860000000  0.4840480000000  0.4446570000000 1.0
C      1  0.5252940000000  0.4998030000000  0.5746910000000 1.0
C      1  0.5148620000000  0.4765170000000  0.4345530000000 1.0
C      1  0.4528690000000  0.5268390000000  0.4809530000000 1.0
C      1  0.4962640000000  0.4992480000000  0.4381170000000 1.0
C      1  0.4850680000000  0.4786210000000  0.5102850000000 1.0
C      1  0.4548170000000  0.4676710000000  0.4771730000000 1.0
C      1  0.4587600000000  0.4712460000000  0.4496000000000 1.0
C      1  0.5516610000000  0.4753920000000  0.4721790000000 1.0
C      1  0.4591940000000  0.5021030000000  0.5453410000000 1.0
C      1  0.4247530000000  0.4784330000000  0.5120900000000 1.0
C      1  0.4896190000000  0.5394380000000  0.5452960000000 1.0
C      1  0.5233180000000  0.4769800000000  0.4817840000000 1.0
C      1  0.4360870000000  0.5182680000000  0.5388560000000 1.0
C      1  0.4649720000000  0.4717990000000  0.5489440000000 1.0
C      1  0.5074430000000  0.4510590000000  0.5464800000000 1.0
C      1  0.5437660000000  0.5027080000000  0.5554070000000 1.0
C      1  0.5037210000000  0.5194520000000  0.4890050000000 1.0
C      1  0.5382330000000  0.4434440000000  0.5118830000000 1.0
C      1  0.5289980000000  0.5344460000000  0.4454030000000 1.0
C      1  0.5012330000000  0.4960610000000  0.4705430000000 1.0
C      1  0.4904840000000  0.4701570000000  0.5600250000000 1.0
C      1  0.5525250000000  0.4786960000000  0.5412600000000 1.0
C      1  0.4665040000000  0.4981200000000  0.4408300000000 1.0
C      1  0.5055320000000  0.4530640000000  0.4764750000000 1.0
C      1  0.5612200000000  0.5041810000000  0.4756230000000 1.0
C      1  0.5418100000000  0.5286860000000  0.5426370000000 1.0
C      1  0.5352270000000  0.4541750000000  0.5388810000000 1.0
C      1  0.4314360000000  0.5276720000000  0.4993420000000 1.0
C      1  0.4829450000000  0.5414210000000  0.4512700000000 1.0
C      1  0.5119750000000  0.4369790000000  0.5012140000000 1.0
C      1  0.4758960000000  0.4520120000000  0.4382360000000 1.0
C      1  0.4698090000000  0.5020800000000  0.5161380000000 1.0
END
