TITL C-200314-9449-6 0.0433546729903385 125000 -395.792684158256 0 0 59 (C1) n - 1
REM
REM in /rds/project/t2_vol4/rds-t2-cs072/BORA/CARBON/from-Arr/AIRSS/Generating-Clusters/GAP-ML-2020/Only-C1/SD-CG/HFTN-CG
REM
REM
REM
REM
REM
REM ./C.cell (11c1c37f851c82e70ff6c80c92926a4b)
REM AIRSS Version 0.9.1 bugfix July 2018 build 013d7b7c2542+ Fri, 06 Jul 2018 19:26:36 +0100
REM compiler GCC version 9.3.0
REM options -cpp -mtune=generic -march=x86-64 -g -O0
REM seed 1653295116 -501225274 2042765361 1056865166 2109469818 -900698088 -836796325 -1023232581 651816221 -444716309 2137408142 200828209 -388823878 733677969 46884175 1515223483 1407412022 -545803024 1272935186 793738728 -1449311506 -2115096382 -1100364793 -1552671972 -154968734 -2039325012 508354181 1359456304 741902966 1775696854 -1005141228 -213829579 1541296464
REM
CELL 1.54180   50.00000   50.00000   50.00000   90.00000   90.00000   90.00000
LATT -1
SFAC C  
C      1  0.4513800000000  0.5755580000000  0.5156950000000 1.0
C      1  0.4455930000000  0.5013690000000  0.5219720000000 1.0
C      1  0.4700890000000  0.5670920000000  0.4684350000000 1.0
C      1  0.4635200000000  0.5243890000000  0.4855920000000 1.0
C      1  0.5635370000000  0.5216750000000  0.4720040000000 1.0
C      1  0.5549280000000  0.5367830000000  0.5259910000000 1.0
C      1  0.4612990000000  0.4307550000000  0.5031240000000 1.0
C      1  0.5376470000000  0.5049080000000  0.5568830000000 1.0
C      1  0.5195990000000  0.5272480000000  0.5568630000000 1.0
C      1  0.4883450000000  0.4609870000000  0.5609990000000 1.0
C      1  0.5072770000000  0.5125090000000  0.5065620000000 1.0
C      1  0.4855120000000  0.4266160000000  0.4914110000000 1.0
C      1  0.4905700000000  0.4841410000000  0.5746880000000 1.0
C      1  0.5312230000000  0.4648770000000  0.4485310000000 1.0
C      1  0.4465620000000  0.4900640000000  0.4719560000000 1.0
C      1  0.5346500000000  0.5229830000000  0.4627970000000 1.0
C      1  0.4994480000000  0.5272370000000  0.4383690000000 1.0
C      1  0.5218140000000  0.5089480000000  0.4398020000000 1.0
C      1  0.5506320000000  0.4791690000000  0.5201520000000 1.0
C      1  0.4747970000000  0.5047230000000  0.5652350000000 1.0
C      1  0.5412590000000  0.4770110000000  0.4926190000000 1.0
C      1  0.5201040000000  0.4431200000000  0.4628010000000 1.0
C      1  0.4569440000000  0.5500980000000  0.5257720000000 1.0
C      1  0.4499810000000  0.5266900000000  0.5110850000000 1.0
C      1  0.4566970000000  0.4916170000000  0.5464180000000 1.0
C      1  0.5025370000000  0.4906210000000  0.5265510000000 1.0
C      1  0.4608340000000  0.4723720000000  0.4536720000000 1.0
C      1  0.4751940000000  0.5122700000000  0.4393140000000 1.0
C      1  0.4909140000000  0.5048750000000  0.4843270000000 1.0
C      1  0.5599750000000  0.5211310000000  0.5013160000000 1.0
C      1  0.5157520000000  0.4549180000000  0.5533450000000 1.0
C      1  0.4932330000000  0.4744680000000  0.4844470000000 1.0
C      1  0.4542830000000  0.5449470000000  0.4663130000000 1.0
C      1  0.4827990000000  0.5443460000000  0.5373200000000 1.0
C      1  0.5717140000000  0.4957180000000  0.4620520000000 1.0
C      1  0.5141740000000  0.5442070000000  0.4562670000000 1.0
C      1  0.5141290000000  0.4352220000000  0.5351110000000 1.0
C      1  0.4904030000000  0.5278320000000  0.5583380000000 1.0
C      1  0.5050870000000  0.4411510000000  0.5095700000000 1.0
C      1  0.4986760000000  0.5665960000000  0.4981740000000 1.0
C      1  0.4524480000000  0.5166060000000  0.4582360000000 1.0
C      1  0.5695920000000  0.5000330000000  0.5211840000000 1.0
C      1  0.4930870000000  0.4327400000000  0.4639830000000 1.0
C      1  0.5327100000000  0.5071310000000  0.4918390000000 1.0
C      1  0.4443470000000  0.4814690000000  0.5010740000000 1.0
C      1  0.5623300000000  0.5151250000000  0.5442950000000 1.0
C      1  0.5115980000000  0.4830750000000  0.4388170000000 1.0
C      1  0.5204970000000  0.4571990000000  0.4886420000000 1.0
C      1  0.5286290000000  0.4810130000000  0.5408010000000 1.0
C      1  0.5533620000000  0.4762810000000  0.4651500000000 1.0
C      1  0.5053240000000  0.5449380000000  0.5169960000000 1.0
C      1  0.4592140000000  0.4577480000000  0.5145850000000 1.0
C      1  0.4886620000000  0.4677430000000  0.5122680000000 1.0
C      1  0.4822570000000  0.4852460000000  0.4386120000000 1.0
C      1  0.5004870000000  0.5635810000000  0.4694210000000 1.0
C      1  0.5289060000000  0.5438840000000  0.5347480000000 1.0
C      1  0.4787070000000  0.4564990000000  0.4661930000000 1.0
C      1  0.4705460000000  0.5739490000000  0.4974870000000 1.0
C      1  0.4641850000000  0.4644990000000  0.5437960000000 1.0
END
