TITL C-20225-1358-4 77.5464859406291 125000 -673.680893921158 0 0 96 (C1) n - 1
REM
REM in /rds/project/t2_vol4/rds-t2-cs072/BORA/CARBON/from-Arr/AIRSS/Generating-Clusters/GAP-ML-2020/Only-C1/SD-CG/HFTN-CG
REM
REM
REM
REM
REM
REM ./C.cell (11c1c37f851c82e70ff6c80c92926a4b)
REM AIRSS Version 0.9.1 bugfix July 2018 build 013d7b7c2542+ Fri, 06 Jul 2018 19:26:36 +0100
REM compiler GCC version 9.3.0
REM options -cpp -mtune=generic -march=x86-64 -g -O0
REM seed 1288420818 773686257 -1765621816 1407944864 309722834 -1801338581 1321742630 192968877 1057939193 -760732474 -1723788814 -1380520133 1282749793 2010042379 448734265 -1404553966 1439643106 778458003 1940936628 1162552321 1196973841 1570145352 634209619 -1146163808 699240990 -766414431 -409163570 1307128296 -2062366622 -1521228319 -376771182 1862610010 1803642441
REM
CELL 1.54180   50.00000   50.00000   50.00000   90.00000   90.00000   90.00000
LATT -1
SFAC C  
C      1  0.4788040000000  0.5456600000000  0.5296120000000 1.0
C      1  0.5037610000000  0.5445010000000  0.5117220000000 1.0
C      1  0.5158670000000  0.5894760000000  0.4811750000000 1.0
C      1  0.5228870000000  0.4839120000000  0.4938570000000 1.0
C      1  0.5052360000000  0.5250750000000  0.4194950000000 1.0
C      1  0.5296720000000  0.5247450000000  0.5785270000000 1.0
C      1  0.5532560000000  0.4924950000000  0.4430700000000 1.0
C      1  0.4209630000000  0.4633440000000  0.5286810000000 1.0
C      1  0.4359620000000  0.5541030000000  0.5071990000000 1.0
C      1  0.5281550000000  0.5377750000000  0.4095700000000 1.0
C      1  0.4336930000000  0.4931580000000  0.4719340000000 1.0
C      1  0.5171820000000  0.5715060000000  0.5196610000000 1.0
C      1  0.4805750000000  0.4827030000000  0.4759400000000 1.0
C      1  0.4326180000000  0.4990190000000  0.4246950000000 1.0
C      1  0.5441950000000  0.4784310000000  0.5658780000000 1.0
C      1  0.4265400000000  0.5392100000000  0.5291430000000 1.0
C      1  0.4730120000000  0.5795590000000  0.4959190000000 1.0
C      1  0.5133480000000  0.4428450000000  0.5523530000000 1.0
C      1  0.4628570000000  0.5118350000000  0.5611730000000 1.0
C      1  0.4634510000000  0.4565190000000  0.5575040000000 1.0
C      1  0.4639170000000  0.4471770000000  0.4534220000000 1.0
C      1  0.4711500000000  0.4777360000000  0.5032600000000 1.0
C      1  0.5330650000000  0.4340720000000  0.5325560000000 1.0
C      1  0.5643920000000  0.4490200000000  0.4605680000000 1.0
C      1  0.5171160000000  0.4569270000000  0.4480330000000 1.0
C      1  0.5414820000000  0.5404440000000  0.4337430000000 1.0
C      1  0.5005550000000  0.4421850000000  0.4957900000000 1.0
C      1  0.4904110000000  0.5518910000000  0.5561070000000 1.0
C      1  0.4785630000000  0.5124570000000  0.4732620000000 1.0
C      1  0.4790690000000  0.4222770000000  0.4939310000000 1.0
C      1  0.4837690000000  0.4783730000000  0.4235540000000 1.0
C      1  0.5111310000000  0.5763350000000  0.4562630000000 1.0
C      1  0.4456850000000  0.4266750000000  0.5229950000000 1.0
C      1  0.5672160000000  0.4341570000000  0.4856630000000 1.0
C      1  0.5456890000000  0.5063560000000  0.5651520000000 1.0
C      1  0.5041290000000  0.5131880000000  0.5829140000000 1.0
C      1  0.5827680000000  0.5410100000000  0.5394060000000 1.0
C      1  0.4381360000000  0.5333580000000  0.4529720000000 1.0
C      1  0.4442310000000  0.5457240000000  0.4787610000000 1.0
C      1  0.5067260000000  0.4953120000000  0.4222700000000 1.0
C      1  0.5187720000000  0.4653910000000  0.5699960000000 1.0
C      1  0.4880580000000  0.4535670000000  0.4374050000000 1.0
C      1  0.5592290000000  0.4451090000000  0.5328360000000 1.0
C      1  0.5379370000000  0.4378710000000  0.4564970000000 1.0
C      1  0.4558160000000  0.4756570000000  0.4579320000000 1.0
C      1  0.4161270000000  0.5146610000000  0.5365360000000 1.0
C      1  0.5372250000000  0.5762680000000  0.4961310000000 1.0
C      1  0.5266660000000  0.5127760000000  0.4906830000000 1.0
C      1  0.4707060000000  0.4818290000000  0.5691580000000 1.0
C      1  0.5065140000000  0.4667690000000  0.4753830000000 1.0
C      1  0.5357130000000  0.5516510000000  0.5665610000000 1.0
C      1  0.5014620000000  0.5272750000000  0.4842230000000 1.0
C      1  0.5285410000000  0.4813790000000  0.4337810000000 1.0
C      1  0.5827650000000  0.4885360000000  0.4833310000000 1.0
C      1  0.5759920000000  0.5142080000000  0.4929600000000 1.0
C      1  0.5481860000000  0.5573580000000  0.4772420000000 1.0
C      1  0.4986150000000  0.5894540000000  0.5034580000000 1.0
C      1  0.4660450000000  0.5213580000000  0.4448730000000 1.0
C      1  0.4242980000000  0.4916060000000  0.5206340000000 1.0
C      1  0.4664580000000  0.5656860000000  0.4719400000000 1.0
C      1  0.5591350000000  0.5474910000000  0.5502110000000 1.0
C      1  0.5545850000000  0.5275110000000  0.4778300000000 1.0
C      1  0.4363200000000  0.5251920000000  0.5529030000000 1.0
C      1  0.5755790000000  0.5155990000000  0.5231670000000 1.0
C      1  0.4732270000000  0.5149760000000  0.5325430000000 1.0
C      1  0.4601370000000  0.5650820000000  0.5166380000000 1.0
C      1  0.5757370000000  0.4461070000000  0.5089820000000 1.0
C      1  0.4842410000000  0.5398260000000  0.4331080000000 1.0
C      1  0.4838810000000  0.5296160000000  0.5731390000000 1.0
C      1  0.4168470000000  0.4817900000000  0.4923050000000 1.0
C      1  0.5701610000000  0.4766800000000  0.4599210000000 1.0
C      1  0.5861740000000  0.4723370000000  0.5066190000000 1.0
C      1  0.4519280000000  0.5144930000000  0.4863920000000 1.0
C      1  0.5239050000000  0.4279850000000  0.5056720000000 1.0
C      1  0.4399600000000  0.4476490000000  0.5422970000000 1.0
C      1  0.4173210000000  0.4544680000000  0.5003090000000 1.0
C      1  0.5083300000000  0.4812910000000  0.5184370000000 1.0
C      1  0.4893130000000  0.4605460000000  0.5171010000000 1.0
C      1  0.5402820000000  0.4246190000000  0.4833360000000 1.0
C      1  0.5486540000000  0.5204080000000  0.5380310000000 1.0
C      1  0.4582400000000  0.4306040000000  0.4761140000000 1.0
C      1  0.4979950000000  0.4844300000000  0.5777210000000 1.0
C      1  0.4555640000000  0.5004050000000  0.5130830000000 1.0
C      1  0.5226890000000  0.5226010000000  0.5214510000000 1.0
C      1  0.5545590000000  0.5200610000000  0.4486930000000 1.0
C      1  0.4360190000000  0.4333840000000  0.4954390000000 1.0
C      1  0.5153650000000  0.5642130000000  0.5518100000000 1.0
C      1  0.4223590000000  0.5102320000000  0.4479390000000 1.0
C      1  0.4859860000000  0.5632290000000  0.4504530000000 1.0
C      1  0.5358680000000  0.5620080000000  0.4521950000000 1.0
C      1  0.5634500000000  0.4693910000000  0.5470940000000 1.0
C      1  0.5798830000000  0.4865030000000  0.5302010000000 1.0
C      1  0.4596920000000  0.4924460000000  0.4327770000000 1.0
C      1  0.4855820000000  0.4422910000000  0.5421350000000 1.0
C      1  0.4723540000000  0.4207930000000  0.5228360000000 1.0
C      1  0.5023190000000  0.5047880000000  0.5318320000000 1.0
END
