TITL C-20233-1190-7 -213.875355240951 125000 -994.645696495622 0 0 142 (C1) n - 1
REM
REM in /rds/project/t2_vol4/rds-t2-cs072/BORA/CARBON/from-Arr/AIRSS/Generating-Clusters/GAP-ML-2020/Only-C1/SD-CG/HFTN-CG
REM
REM
REM
REM
REM
REM ./C.cell (11c1c37f851c82e70ff6c80c92926a4b)
REM AIRSS Version 0.9.1 bugfix July 2018 build 013d7b7c2542+ Fri, 06 Jul 2018 19:26:36 +0100
REM compiler GCC version 9.3.0
REM options -cpp -mtune=generic -march=x86-64 -g -O0
REM seed 205725859 1161294261 125225226 1669628450 486209058 -1657916856 -955920551 1664250629 -1824966918 -1488572706 945487492 762481224 -2078727765 -867228290 313356957 -494967193 1865944539 -882777814 677893955 -1225775212 -1225905487 1459855246 40440684 -2120721427 -415555763 -47837256 -416609228 1107286646 -1382737773 -639077123 1943566439 477623064 223443332
REM
CELL 1.54180   50.00000   50.00000   50.00000   90.00000   90.00000   90.00000
LATT -1
SFAC C  
C      1  0.4849420000000  0.4885960000000  0.5111030000000 1.0
C      1  0.5360550000000  0.4668340000000  0.5803220000000 1.0
C      1  0.6142670000000  0.4684090000000  0.5195510000000 1.0
C      1  0.5205120000000  0.5928010000000  0.5288210000000 1.0
C      1  0.5061820000000  0.4097960000000  0.5193240000000 1.0
C      1  0.4620240000000  0.4787690000000  0.4603840000000 1.0
C      1  0.5503890000000  0.4423510000000  0.4544010000000 1.0
C      1  0.4283620000000  0.5584170000000  0.5259990000000 1.0
C      1  0.5794990000000  0.5576520000000  0.5057190000000 1.0
C      1  0.5069630000000  0.5817570000000  0.5518190000000 1.0
C      1  0.5369680000000  0.4277570000000  0.4330620000000 1.0
C      1  0.5519420000000  0.5902620000000  0.4818240000000 1.0
C      1  0.4814560000000  0.5834960000000  0.4977880000000 1.0
C      1  0.4066360000000  0.4845720000000  0.4677830000000 1.0
C      1  0.4735850000000  0.4960590000000  0.5376790000000 1.0
C      1  0.5259090000000  0.4618830000000  0.5259670000000 1.0
C      1  0.4300150000000  0.5192120000000  0.5787600000000 1.0
C      1  0.4926460000000  0.4474030000000  0.4851650000000 1.0
C      1  0.4760760000000  0.5445680000000  0.5361090000000 1.0
C      1  0.5394250000000  0.4436060000000  0.5042390000000 1.0
C      1  0.5458830000000  0.4201080000000  0.5544170000000 1.0
C      1  0.4855340000000  0.4738870000000  0.5944360000000 1.0
C      1  0.5142120000000  0.4274390000000  0.4963060000000 1.0
C      1  0.4103920000000  0.4708960000000  0.5710930000000 1.0
C      1  0.4901520000000  0.5839010000000  0.4463940000000 1.0
C      1  0.5832270000000  0.5462280000000  0.4794370000000 1.0
C      1  0.5314720000000  0.4879060000000  0.4141430000000 1.0
C      1  0.4508820000000  0.4249400000000  0.4736910000000 1.0
C      1  0.5245440000000  0.5996930000000  0.4808230000000 1.0
C      1  0.4272210000000  0.4492120000000  0.5322130000000 1.0
C      1  0.4474270000000  0.4748280000000  0.4861400000000 1.0
C      1  0.4299440000000  0.4395750000000  0.4619280000000 1.0
C      1  0.5471630000000  0.4860340000000  0.4384450000000 1.0
C      1  0.5649560000000  0.5388370000000  0.5512410000000 1.0
C      1  0.5157420000000  0.4638620000000  0.4066720000000 1.0
C      1  0.5633980000000  0.5811270000000  0.5066040000000 1.0
C      1  0.4920700000000  0.4991240000000  0.4394710000000 1.0
C      1  0.4201110000000  0.4604380000000  0.4804680000000 1.0
C      1  0.5482180000000  0.5837560000000  0.5304900000000 1.0
C      1  0.5599850000000  0.5322840000000  0.4368550000000 1.0
C      1  0.4745460000000  0.4956750000000  0.3960270000000 1.0
C      1  0.4400630000000  0.4530020000000  0.4372670000000 1.0
C      1  0.5854670000000  0.4592260000000  0.4855000000000 1.0
C      1  0.4779010000000  0.5419170000000  0.4183860000000 1.0
C      1  0.5351030000000  0.4077400000000  0.4563260000000 1.0
C      1  0.5271050000000  0.5683470000000  0.5676090000000 1.0
C      1  0.4559910000000  0.5839720000000  0.5436130000000 1.0
C      1  0.5327010000000  0.5343140000000  0.4246040000000 1.0
C      1  0.5366290000000  0.5243090000000  0.5886020000000 1.0
C      1  0.4968500000000  0.5455050000000  0.6006280000000 1.0
C      1  0.4166840000000  0.4957480000000  0.4432840000000 1.0
C      1  0.4806800000000  0.5362700000000  0.4842000000000 1.0
C      1  0.4152770000000  0.4493360000000  0.5581040000000 1.0
C      1  0.4119050000000  0.4594120000000  0.5092220000000 1.0
C      1  0.5857370000000  0.5015990000000  0.4638360000000 1.0
C      1  0.5567610000000  0.4670350000000  0.4910910000000 1.0
C      1  0.4340750000000  0.5592630000000  0.4773020000000 1.0
C      1  0.5076460000000  0.5978070000000  0.5033860000000 1.0
C      1  0.5569880000000  0.4199560000000  0.4713470000000 1.0
C      1  0.4909430000000  0.5186500000000  0.4041510000000 1.0
C      1  0.4779980000000  0.4284240000000  0.5670210000000 1.0
C      1  0.4769020000000  0.4333840000000  0.4620720000000 1.0
C      1  0.5059980000000  0.4308010000000  0.5617980000000 1.0
C      1  0.5213520000000  0.5500530000000  0.5880430000000 1.0
C      1  0.4270110000000  0.5238900000000  0.4448170000000 1.0
C      1  0.5273900000000  0.5423870000000  0.4860740000000 1.0
C      1  0.4598740000000  0.5526960000000  0.4655840000000 1.0
C      1  0.5715190000000  0.4171090000000  0.5442870000000 1.0
C      1  0.5064030000000  0.5365220000000  0.4690060000000 1.0
C      1  0.5803190000000  0.4250430000000  0.5190150000000 1.0
C      1  0.5173010000000  0.5229110000000  0.5277410000000 1.0
C      1  0.4885780000000  0.4900630000000  0.4680160000000 1.0
C      1  0.5674120000000  0.5052580000000  0.4423000000000 1.0
C      1  0.5972030000000  0.4476100000000  0.5099110000000 1.0
C      1  0.4187040000000  0.5170670000000  0.4887540000000 1.0
C      1  0.4029940000000  0.4852590000000  0.5147580000000 1.0
C      1  0.4755350000000  0.4676070000000  0.5482090000000 1.0
C      1  0.4804330000000  0.5717180000000  0.5517000000000 1.0
C      1  0.4621840000000  0.5045360000000  0.4388130000000 1.0
C      1  0.5441540000000  0.5199740000000  0.4879570000000 1.0
C      1  0.5513970000000  0.4870020000000  0.5638110000000 1.0
C      1  0.5201430000000  0.4114330000000  0.5439930000000 1.0
C      1  0.5766030000000  0.5187950000000  0.4845400000000 1.0
C      1  0.4446140000000  0.5072930000000  0.5274550000000 1.0
C      1  0.4749800000000  0.5077950000000  0.4895740000000 1.0
C      1  0.5792320000000  0.5360930000000  0.5264850000000 1.0
C      1  0.5506600000000  0.4755740000000  0.5383370000000 1.0
C      1  0.5151250000000  0.5952200000000  0.4541430000000 1.0
C      1  0.4193590000000  0.5368110000000  0.4686570000000 1.0
C      1  0.5585000000000  0.4215630000000  0.4998340000000 1.0
C      1  0.4359800000000  0.5430420000000  0.5640690000000 1.0
C      1  0.4471370000000  0.5357880000000  0.5359300000000 1.0
C      1  0.4922210000000  0.5193520000000  0.5431340000000 1.0
C      1  0.4739030000000  0.5790420000000  0.4679230000000 1.0
C      1  0.5338230000000  0.5042830000000  0.5098330000000 1.0
C      1  0.4696480000000  0.4624050000000  0.5030320000000 1.0
C      1  0.4691410000000  0.4547140000000  0.4419150000000 1.0
C      1  0.4455120000000  0.5028320000000  0.4972390000000 1.0
C      1  0.4938920000000  0.5645070000000  0.4244690000000 1.0
C      1  0.4510250000000  0.4939690000000  0.4127670000000 1.0
C      1  0.3981170000000  0.4989130000000  0.4904140000000 1.0
C      1  0.4169870000000  0.5001880000000  0.5355990000000 1.0
C      1  0.5543570000000  0.5164010000000  0.5682430000000 1.0
C      1  0.5117330000000  0.5200770000000  0.4472150000000 1.0
C      1  0.5510750000000  0.5649720000000  0.5525410000000 1.0
C      1  0.4886640000000  0.4715420000000  0.3980550000000 1.0
C      1  0.5142380000000  0.4823040000000  0.5069230000000 1.0
C      1  0.4864510000000  0.4050890000000  0.4699490000000 1.0
C      1  0.4563160000000  0.5344710000000  0.4397360000000 1.0
C      1  0.5325200000000  0.4388870000000  0.5732600000000 1.0
C      1  0.4866420000000  0.5527630000000  0.5084580000000 1.0
C      1  0.4346800000000  0.5724230000000  0.5022280000000 1.0
C      1  0.5147010000000  0.4787470000000  0.5947500000000 1.0
C      1  0.4571680000000  0.4496970000000  0.5303060000000 1.0
C      1  0.5575160000000  0.5781010000000  0.4560900000000 1.0
C      1  0.5191620000000  0.5057910000000  0.6014170000000 1.0
C      1  0.4153760000000  0.4978130000000  0.5637850000000 1.0
C      1  0.4942190000000  0.5186950000000  0.6076970000000 1.0
C      1  0.4726130000000  0.4995390000000  0.6031450000000 1.0
C      1  0.5228810000000  0.5620040000000  0.4226410000000 1.0
C      1  0.4734580000000  0.4563150000000  0.5757390000000 1.0
C      1  0.6071450000000  0.4916290000000  0.5066270000000 1.0
C      1  0.4308250000000  0.4777990000000  0.4247370000000 1.0
C      1  0.4489360000000  0.5100830000000  0.5959290000000 1.0
C      1  0.5140710000000  0.4060770000000  0.4744920000000 1.0
C      1  0.6000370000000  0.4825940000000  0.4780650000000 1.0
C      1  0.4664460000000  0.4056420000000  0.4910110000000 1.0
C      1  0.5710390000000  0.5536200000000  0.4542080000000 1.0
C      1  0.5027740000000  0.4547250000000  0.5419750000000 1.0
C      1  0.4323300000000  0.5698640000000  0.5527210000000 1.0
C      1  0.5831850000000  0.5091170000000  0.5125250000000 1.0
C      1  0.5211360000000  0.5141230000000  0.4061080000000 1.0
C      1  0.5262680000000  0.4374180000000  0.4106920000000 1.0
C      1  0.5350000000000  0.5817690000000  0.4390790000000 1.0
C      1  0.5592540000000  0.4887700000000  0.5147370000000 1.0
C      1  0.4771510000000  0.4078330000000  0.5189880000000 1.0
C      1  0.5153490000000  0.5462610000000  0.5120530000000 1.0
C      1  0.5103420000000  0.4711760000000  0.4784490000000 1.0
C      1  0.4563390000000  0.5877970000000  0.5134070000000 1.0
C      1  0.4665560000000  0.4232890000000  0.5405830000000 1.0
C      1  0.5398840000000  0.4683980000000  0.4643990000000 1.0
C      1  0.4894630000000  0.4701040000000  0.4264380000000 1.0
END
