TITL C-20210-1283-3 0.0252664642872916 125000 -683.715784343043 0 0 96 (C1) n - 1
REM
REM in /rds/project/t2_vol4/rds-t2-cs072/BORA/CARBON/from-Arr/AIRSS/Generating-Clusters/GAP-ML-2020/Only-C1/SD-CG/HFTN-CG
REM
REM
REM
REM
REM
REM ./C.cell (11c1c37f851c82e70ff6c80c92926a4b)
REM AIRSS Version 0.9.1 bugfix July 2018 build 013d7b7c2542+ Fri, 06 Jul 2018 19:26:36 +0100
REM compiler GCC version 9.3.0
REM options -cpp -mtune=generic -march=x86-64 -g -O0
REM seed 1886997982 -575258696 -2107324208 -1184070066 854769073 1332654721 825694884 -985681711 652415959 -468352708 328053800 221786829 1150659701 -497804520 -210482734 -1108551797 836384234 1250647556 1557201153 907190892 1502104436 176723348 -715221295 -1404392163 -953163448 1600830002 -425530863 -1264946772 -257180645 -39916593 -141657285 111987217 -198545346
REM
CELL 1.54180   50.00000   50.00000   50.00000   90.00000   90.00000   90.00000
LATT -1
SFAC C  
C      1  0.4883200000000  0.4235140000000  0.4688900000000 1.0
C      1  0.5403610000000  0.5461690000000  0.4436080000000 1.0
C      1  0.4720450000000  0.5261730000000  0.4604530000000 1.0
C      1  0.4418030000000  0.4686520000000  0.5262660000000 1.0
C      1  0.5356300000000  0.4301220000000  0.4922460000000 1.0
C      1  0.5228030000000  0.5663380000000  0.5286920000000 1.0
C      1  0.5657540000000  0.4914430000000  0.5430340000000 1.0
C      1  0.5262340000000  0.5501810000000  0.5536050000000 1.0
C      1  0.5610780000000  0.4773020000000  0.4317260000000 1.0
C      1  0.4568830000000  0.5874760000000  0.4961510000000 1.0
C      1  0.5007460000000  0.4718270000000  0.5029210000000 1.0
C      1  0.5216380000000  0.5123530000000  0.4801970000000 1.0
C      1  0.5786640000000  0.5235450000000  0.4597340000000 1.0
C      1  0.4477410000000  0.4409530000000  0.5213820000000 1.0
C      1  0.5016050000000  0.5353480000000  0.4632150000000 1.0
C      1  0.5777270000000  0.5379490000000  0.4849890000000 1.0
C      1  0.5237990000000  0.4423960000000  0.4443020000000 1.0
C      1  0.4297220000000  0.5536570000000  0.4795300000000 1.0
C      1  0.4705180000000  0.5067290000000  0.4855540000000 1.0
C      1  0.4118210000000  0.5094600000000  0.4738560000000 1.0
C      1  0.5595830000000  0.5261500000000  0.4385020000000 1.0
C      1  0.4160640000000  0.4836370000000  0.4865050000000 1.0
C      1  0.4860830000000  0.4727810000000  0.5788010000000 1.0
C      1  0.4634490000000  0.4839540000000  0.4318420000000 1.0
C      1  0.5604650000000  0.4431770000000  0.4872900000000 1.0
C      1  0.5154150000000  0.4730480000000  0.4080100000000 1.0
C      1  0.5618910000000  0.4643340000000  0.5328540000000 1.0
C      1  0.4835660000000  0.5910470000000  0.5063120000000 1.0
C      1  0.4450650000000  0.5308120000000  0.5640230000000 1.0
C      1  0.4354170000000  0.5706960000000  0.5020190000000 1.0
C      1  0.5053910000000  0.5423860000000  0.5966350000000 1.0
C      1  0.4736420000000  0.4152590000000  0.4916700000000 1.0
C      1  0.5691750000000  0.4505890000000  0.4616830000000 1.0
C      1  0.5243080000000  0.5208530000000  0.5066300000000 1.0
C      1  0.4534880000000  0.5519440000000  0.4628520000000 1.0
C      1  0.5410320000000  0.4478700000000  0.5412500000000 1.0
C      1  0.5119110000000  0.5473000000000  0.5078940000000 1.0
C      1  0.4691140000000  0.4393970000000  0.4532410000000 1.0
C      1  0.4299130000000  0.4676610000000  0.4662550000000 1.0
C      1  0.4933300000000  0.5822540000000  0.4795050000000 1.0
C      1  0.5048860000000  0.4560860000000  0.4271040000000 1.0
C      1  0.5990200000000  0.4957260000000  0.4911970000000 1.0
C      1  0.4668570000000  0.5762580000000  0.4707450000000 1.0
C      1  0.5814450000000  0.4753270000000  0.4522530000000 1.0
C      1  0.4201450000000  0.4836710000000  0.5149030000000 1.0
C      1  0.5231540000000  0.4986770000000  0.4142540000000 1.0
C      1  0.5167790000000  0.4282830000000  0.4687800000000 1.0
C      1  0.4918840000000  0.5183310000000  0.5896680000000 1.0
C      1  0.5297640000000  0.4292190000000  0.5213290000000 1.0
C      1  0.4496490000000  0.4309020000000  0.4941710000000 1.0
C      1  0.5467840000000  0.5706780000000  0.5130520000000 1.0
C      1  0.5284830000000  0.5218170000000  0.5488390000000 1.0
C      1  0.5884450000000  0.5189000000000  0.5053130000000 1.0
C      1  0.4268250000000  0.5125420000000  0.5545540000000 1.0
C      1  0.4675220000000  0.5141160000000  0.5125610000000 1.0
C      1  0.4123790000000  0.5330890000000  0.4889950000000 1.0
C      1  0.5270520000000  0.4562540000000  0.5654750000000 1.0
C      1  0.4658300000000  0.4886700000000  0.5652160000000 1.0
C      1  0.5968850000000  0.4715630000000  0.5026430000000 1.0
C      1  0.5916760000000  0.4981850000000  0.4638680000000 1.0
C      1  0.4872470000000  0.5338770000000  0.5233450000000 1.0
C      1  0.5455330000000  0.5015980000000  0.5605790000000 1.0
C      1  0.4657260000000  0.5146400000000  0.5769210000000 1.0
C      1  0.4132610000000  0.5334780000000  0.5174380000000 1.0
C      1  0.5067760000000  0.4172610000000  0.5317360000000 1.0
C      1  0.4151240000000  0.5081260000000  0.5305020000000 1.0
C      1  0.4260710000000  0.5099170000000  0.4499250000000 1.0
C      1  0.5496380000000  0.4517370000000  0.4402520000000 1.0
C      1  0.4868780000000  0.4840060000000  0.4823730000000 1.0
C      1  0.5111260000000  0.5590870000000  0.4794480000000 1.0
C      1  0.4379120000000  0.4853820000000  0.4446870000000 1.0
C      1  0.4653380000000  0.4876450000000  0.5340070000000 1.0
C      1  0.5581940000000  0.5596380000000  0.4897910000000 1.0
C      1  0.5739930000000  0.4577370000000  0.5079980000000 1.0
C      1  0.5132200000000  0.5385130000000  0.4373090000000 1.0
C      1  0.4766190000000  0.5575740000000  0.5388780000000 1.0
C      1  0.5159970000000  0.4850280000000  0.4810800000000 1.0
C      1  0.4488580000000  0.5541970000000  0.5468690000000 1.0
C      1  0.4830840000000  0.4100970000000  0.5171930000000 1.0
C      1  0.5025440000000  0.5167540000000  0.4226060000000 1.0
C      1  0.4951260000000  0.4845450000000  0.5274140000000 1.0
C      1  0.5391190000000  0.5598410000000  0.4684290000000 1.0
C      1  0.5812060000000  0.5093040000000  0.5295490000000 1.0
C      1  0.4666250000000  0.4255060000000  0.5366000000000 1.0
C      1  0.5202480000000  0.5558210000000  0.5804240000000 1.0
C      1  0.5305070000000  0.4829390000000  0.5759690000000 1.0
C      1  0.4769240000000  0.5093820000000  0.4337030000000 1.0
C      1  0.5049700000000  0.4915210000000  0.5877300000000 1.0
C      1  0.4930140000000  0.5797770000000  0.5298410000000 1.0
C      1  0.4997390000000  0.4488060000000  0.5703190000000 1.0
C      1  0.4904150000000  0.4290760000000  0.5534030000000 1.0
C      1  0.5084200000000  0.5114350000000  0.5302900000000 1.0
C      1  0.4455230000000  0.4444320000000  0.4693890000000 1.0
C      1  0.4292350000000  0.5561880000000  0.5260110000000 1.0
C      1  0.5497490000000  0.5019320000000  0.4252790000000 1.0
C      1  0.4773840000000  0.4581730000000  0.4336710000000 1.0
END
