TITL C-200322-9465-3 20.5406555413351 125000 -476.38003266363 0 0 70 (C1) n - 1
REM
REM in /rds/project/t2_vol4/rds-t2-cs072/BORA/CARBON/from-Arr/AIRSS/Generating-Clusters/GAP-ML-2020/Only-C1/SD-CG/HFTN-CG
REM
REM
REM
REM
REM
REM ./C.cell (11c1c37f851c82e70ff6c80c92926a4b)
REM AIRSS Version 0.9.1 bugfix July 2018 build 013d7b7c2542+ Fri, 06 Jul 2018 19:26:36 +0100
REM compiler GCC version 9.3.0
REM options -cpp -mtune=generic -march=x86-64 -g -O0
REM seed -1035004137 1155831878 1521463814 1701315900 1755683800 1567823070 -1277361514 -874455086 2084438461 2110274652 -2066523709 -1185717896 2110701538 -454813116 -107376513 1727546216 -854252001 1819897451 955295604 2049986135 -1011262296 1890678155 1705084822 1067609027 142563683 434202093 1726388609 -168243568 1102969528 -1219424083 2035416684 -821276101 -2014733344
REM
CELL 1.54180   50.00000   50.00000   50.00000   90.00000   90.00000   90.00000
LATT -1
SFAC C  
C      1  0.5505490000000  0.5675590000000  0.4794390000000 1.0
C      1  0.5270200000000  0.5311750000000  0.4931830000000 1.0
C      1  0.5700930000000  0.5036520000000  0.4966910000000 1.0
C      1  0.5570950000000  0.4989120000000  0.5565920000000 1.0
C      1  0.5487170000000  0.5227090000000  0.5608040000000 1.0
C      1  0.4630020000000  0.4370950000000  0.4602280000000 1.0
C      1  0.4963350000000  0.5736140000000  0.4987290000000 1.0
C      1  0.4680770000000  0.4801080000000  0.4410790000000 1.0
C      1  0.4509220000000  0.4634180000000  0.5454410000000 1.0
C      1  0.4976050000000  0.4806960000000  0.4439870000000 1.0
C      1  0.5213500000000  0.4626140000000  0.4503020000000 1.0
C      1  0.5045700000000  0.5064650000000  0.4311220000000 1.0
C      1  0.5575810000000  0.5511330000000  0.5232130000000 1.0
C      1  0.5161110000000  0.4872300000000  0.5007250000000 1.0
C      1  0.4214250000000  0.5126450000000  0.4948250000000 1.0
C      1  0.5203290000000  0.4267730000000  0.5084410000000 1.0
C      1  0.4906910000000  0.4384340000000  0.5474260000000 1.0
C      1  0.5585290000000  0.4586780000000  0.4958260000000 1.0
C      1  0.5289480000000  0.5749120000000  0.4638410000000 1.0
C      1  0.5713970000000  0.4776550000000  0.5134710000000 1.0
C      1  0.4742670000000  0.5639210000000  0.5137080000000 1.0
C      1  0.5410280000000  0.4380600000000  0.4907830000000 1.0
C      1  0.4597630000000  0.5089320000000  0.4412690000000 1.0
C      1  0.5438790000000  0.4790260000000  0.4571470000000 1.0
C      1  0.5441670000000  0.4825660000000  0.4868610000000 1.0
C      1  0.5452570000000  0.5714680000000  0.5076550000000 1.0
C      1  0.4649410000000  0.4879560000000  0.5103630000000 1.0
C      1  0.4678310000000  0.4772170000000  0.5646350000000 1.0
C      1  0.5685710000000  0.5430850000000  0.4785990000000 1.0
C      1  0.4716010000000  0.5000390000000  0.4858840000000 1.0
C      1  0.5137910000000  0.5212900000000  0.4695100000000 1.0
C      1  0.4716420000000  0.4287580000000  0.4847880000000 1.0
C      1  0.4987150000000  0.4942190000000  0.4770980000000 1.0
C      1  0.4929870000000  0.5241150000000  0.5173550000000 1.0
C      1  0.4304220000000  0.5060230000000  0.5204020000000 1.0
C      1  0.4354240000000  0.4578650000000  0.5012440000000 1.0
C      1  0.4530940000000  0.5445450000000  0.5042930000000 1.0
C      1  0.4550240000000  0.4376820000000  0.5069870000000 1.0
C      1  0.4450640000000  0.5298850000000  0.5291250000000 1.0
C      1  0.5363870000000  0.4565380000000  0.5460730000000 1.0
C      1  0.4720160000000  0.5042200000000  0.5573980000000 1.0
C      1  0.5185930000000  0.5750880000000  0.5173420000000 1.0
C      1  0.4912710000000  0.4608700000000  0.5661640000000 1.0
C      1  0.5536490000000  0.5036680000000  0.4469420000000 1.0
C      1  0.4825010000000  0.4989870000000  0.5294270000000 1.0
C      1  0.5281910000000  0.5158390000000  0.4439680000000 1.0
C      1  0.4759350000000  0.5288310000000  0.4914910000000 1.0
C      1  0.5183210000000  0.4347610000000  0.5354980000000 1.0
C      1  0.5714220000000  0.5328870000000  0.5055050000000 1.0
C      1  0.5693380000000  0.5159600000000  0.4685420000000 1.0
C      1  0.4381970000000  0.4774620000000  0.5229900000000 1.0
C      1  0.5208920000000  0.4412440000000  0.4695310000000 1.0
C      1  0.5141250000000  0.5590340000000  0.5412500000000 1.0
C      1  0.5584210000000  0.4758690000000  0.5399110000000 1.0
C      1  0.5006840000000  0.4277640000000  0.4863160000000 1.0
C      1  0.5019910000000  0.4778540000000  0.5247370000000 1.0
C      1  0.4647480000000  0.4410680000000  0.5341190000000 1.0
C      1  0.4654150000000  0.5312940000000  0.5506850000000 1.0
C      1  0.4358310000000  0.5345750000000  0.4823140000000 1.0
C      1  0.4903140000000  0.5396250000000  0.4650180000000 1.0
C      1  0.4866830000000  0.5479920000000  0.5367430000000 1.0
C      1  0.4328590000000  0.4689540000000  0.4750130000000 1.0
C      1  0.5191830000000  0.5138780000000  0.5125810000000 1.0
C      1  0.5148730000000  0.4731390000000  0.5553860000000 1.0
C      1  0.4243490000000  0.4953640000000  0.4724860000000 1.0
C      1  0.4827990000000  0.5244890000000  0.4400810000000 1.0
C      1  0.5400610000000  0.5450750000000  0.5458610000000 1.0
C      1  0.5029090000000  0.5673970000000  0.4708150000000 1.0
C      1  0.4385500000000  0.5171620000000  0.4581670000000 1.0
C      1  0.4516750000000  0.4609850000000  0.4545700000000 1.0
END
