TITL C-20235-1135-6 -0.0540516317695194 125000 -535.257172081201 0 0 79 (C1) n - 1
REM
REM in /rds/project/t2_vol4/rds-t2-cs072/BORA/CARBON/from-Arr/AIRSS/Generating-Clusters/GAP-ML-2020/Only-C1/SD-CG/HFTN-CG
REM
REM
REM
REM
REM
REM ./C.cell (11c1c37f851c82e70ff6c80c92926a4b)
REM AIRSS Version 0.9.1 bugfix July 2018 build 013d7b7c2542+ Fri, 06 Jul 2018 19:26:36 +0100
REM compiler GCC version 9.3.0
REM options -cpp -mtune=generic -march=x86-64 -g -O0
REM seed -1086427449 -49753364 2076900509 -1577420003 907967062 -493958952 1760129609 -693789361 1813209125 1621913860 -677431040 -591187699 -12061306 609304622 1503333656 1911953907 786566305 -868006154 1195368916 1752964092 629956671 -1305596427 1313944275 1841486270 2086822261 1575454867 -937273146 -7604432 -1483926504 -1915990990 1942421567 -594055774 -535847340
REM
CELL 1.54180   50.00000   50.00000   50.00000   90.00000   90.00000   90.00000
LATT -1
SFAC C  
C      1  0.4094960000000  0.5253560000000  0.5236490000000 1.0
C      1  0.5141600000000  0.5511280000000  0.5557470000000 1.0
C      1  0.5668950000000  0.4931730000000  0.5134880000000 1.0
C      1  0.5067680000000  0.5024780000000  0.5390750000000 1.0
C      1  0.5053190000000  0.5092250000000  0.4551460000000 1.0
C      1  0.5575760000000  0.5060790000000  0.5365880000000 1.0
C      1  0.4737070000000  0.5405470000000  0.5362980000000 1.0
C      1  0.4337270000000  0.5056600000000  0.4767690000000 1.0
C      1  0.5589620000000  0.5337920000000  0.5401050000000 1.0
C      1  0.5008240000000  0.4780560000000  0.4196040000000 1.0
C      1  0.4304840000000  0.5369370000000  0.5106050000000 1.0
C      1  0.4425770000000  0.4948650000000  0.5442130000000 1.0
C      1  0.5428640000000  0.5507210000000  0.5556090000000 1.0
C      1  0.4611010000000  0.4381380000000  0.5094050000000 1.0
C      1  0.5013570000000  0.4693260000000  0.4983790000000 1.0
C      1  0.4896530000000  0.4890810000000  0.5182600000000 1.0
C      1  0.5336540000000  0.4949360000000  0.5500310000000 1.0
C      1  0.5003060000000  0.5729480000000  0.4789310000000 1.0
C      1  0.4521300000000  0.4989800000000  0.4555360000000 1.0
C      1  0.5059880000000  0.5297140000000  0.5033260000000 1.0
C      1  0.5023050000000  0.4873710000000  0.5847070000000 1.0
C      1  0.4555050000000  0.5560070000000  0.4770310000000 1.0
C      1  0.4351130000000  0.5355350000000  0.4830690000000 1.0
C      1  0.4761440000000  0.4366360000000  0.5360800000000 1.0
C      1  0.4222690000000  0.5011620000000  0.5246540000000 1.0
C      1  0.5066610000000  0.5723620000000  0.5342490000000 1.0
C      1  0.5268100000000  0.4769190000000  0.4906130000000 1.0
C      1  0.5300880000000  0.5232760000000  0.4913080000000 1.0
C      1  0.5293150000000  0.5718010000000  0.5160600000000 1.0
C      1  0.5101850000000  0.5387530000000  0.4475000000000 1.0
C      1  0.5451010000000  0.5472350000000  0.4737970000000 1.0
C      1  0.4822260000000  0.5129120000000  0.4988130000000 1.0
C      1  0.5274430000000  0.5700600000000  0.4880510000000 1.0
C      1  0.4468490000000  0.4636650000000  0.5080570000000 1.0
C      1  0.5041310000000  0.5302390000000  0.5334060000000 1.0
C      1  0.5284670000000  0.5006130000000  0.4740070000000 1.0
C      1  0.4709880000000  0.4881300000000  0.4193010000000 1.0
C      1  0.5269430000000  0.4350350000000  0.5392440000000 1.0
C      1  0.4304920000000  0.4865800000000  0.4992820000000 1.0
C      1  0.5278140000000  0.4779350000000  0.5721270000000 1.0
C      1  0.5378490000000  0.5388340000000  0.4462420000000 1.0
C      1  0.5532070000000  0.4680220000000  0.5055330000000 1.0
C      1  0.4590310000000  0.5142270000000  0.4293250000000 1.0
C      1  0.5526210000000  0.4977330000000  0.4547660000000 1.0
C      1  0.5753620000000  0.5068480000000  0.4897150000000 1.0
C      1  0.4963610000000  0.5363580000000  0.5768990000000 1.0
C      1  0.4609540000000  0.4764120000000  0.5309230000000 1.0
C      1  0.5742000000000  0.4871510000000  0.4685200000000 1.0
C      1  0.5470580000000  0.4500300000000  0.5283130000000 1.0
C      1  0.4763230000000  0.5690390000000  0.4954360000000 1.0
C      1  0.5016500000000  0.4241570000000  0.5312310000000 1.0
C      1  0.4942610000000  0.5607240000000  0.4541900000000 1.0
C      1  0.5561170000000  0.4410600000000  0.4641480000000 1.0
C      1  0.5251880000000  0.4171120000000  0.4901370000000 1.0
C      1  0.4600260000000  0.5274980000000  0.5152150000000 1.0
C      1  0.4801580000000  0.5006390000000  0.4705280000000 1.0
C      1  0.4768600000000  0.4228480000000  0.4908360000000 1.0
C      1  0.4708570000000  0.4591900000000  0.5533950000000 1.0
C      1  0.5027790000000  0.5145640000000  0.5913660000000 1.0
C      1  0.5505130000000  0.5586970000000  0.5291080000000 1.0
C      1  0.4709110000000  0.5308800000000  0.5640290000000 1.0
C      1  0.4807450000000  0.4281680000000  0.4636250000000 1.0
C      1  0.5018720000000  0.4154760000000  0.5038680000000 1.0
C      1  0.5673380000000  0.4603000000000  0.4789720000000 1.0
C      1  0.4594260000000  0.5040640000000  0.5656350000000 1.0
C      1  0.5675020000000  0.5332640000000  0.4847720000000 1.0
C      1  0.5321010000000  0.4264920000000  0.4650040000000 1.0
C      1  0.4978590000000  0.4525750000000  0.4337690000000 1.0
C      1  0.4804550000000  0.5670400000000  0.5237550000000 1.0
C      1  0.4837410000000  0.4724580000000  0.4759440000000 1.0
C      1  0.4663810000000  0.5556950000000  0.4504290000000 1.0
C      1  0.4572400000000  0.5409040000000  0.4284780000000 1.0
C      1  0.5435710000000  0.5121790000000  0.4333530000000 1.0
C      1  0.5069780000000  0.4306400000000  0.4500310000000 1.0
C      1  0.5368240000000  0.4577110000000  0.5546970000000 1.0
C      1  0.4762460000000  0.4802300000000  0.5733300000000 1.0
C      1  0.5173490000000  0.4985140000000  0.4290090000000 1.0
C      1  0.4561970000000  0.4738430000000  0.4395550000000 1.0
C      1  0.4734940000000  0.4550600000000  0.4538030000000 1.0
END
