TITL C-200323-9364-10 -3.1333929772427 125000 -651.77844104941 0 0 95 (C1) n - 1
REM
REM in /rds/project/t2_vol4/rds-t2-cs072/BORA/CARBON/from-Arr/AIRSS/Generating-Clusters/GAP-ML-2020/Only-C1/SD-CG/HFTN-CG
REM
REM
REM
REM
REM
REM ./C.cell (11c1c37f851c82e70ff6c80c92926a4b)
REM AIRSS Version 0.9.1 bugfix July 2018 build 013d7b7c2542+ Fri, 06 Jul 2018 19:26:36 +0100
REM compiler GCC version 9.3.0
REM options -cpp -mtune=generic -march=x86-64 -g -O0
REM seed -2057871290 1027447852 -1616743254 -769533982 -1030136590 -1547663514 1500958157 -523692317 484684092 1546784499 -754119316 -1432800828 -704240198 2105448215 40112620 1996956251 -2112190102 564914891 1116113330 -787906619 -861901313 24807670 -405190164 -272431314 830077279 -1223424283 -1499131026 116182549 -177072946 -1692508129 -1396474088 876392469 -1565186229
REM
CELL 1.54180   50.00000   50.00000   50.00000   90.00000   90.00000   90.00000
LATT -1
SFAC C  
C      1  0.4649090000000  0.4992460000000  0.5567760000000 1.0
C      1  0.5147970000000  0.6043540000000  0.5162270000000 1.0
C      1  0.4542410000000  0.4589050000000  0.5410190000000 1.0
C      1  0.5031500000000  0.4132900000000  0.5097310000000 1.0
C      1  0.4561720000000  0.4167090000000  0.4647220000000 1.0
C      1  0.4568740000000  0.5330200000000  0.5108700000000 1.0
C      1  0.5621370000000  0.4706880000000  0.4815900000000 1.0
C      1  0.4108110000000  0.5052700000000  0.4804050000000 1.0
C      1  0.4653360000000  0.5065990000000  0.5014040000000 1.0
C      1  0.5130370000000  0.5330180000000  0.4301340000000 1.0
C      1  0.5407080000000  0.5055570000000  0.4603990000000 1.0
C      1  0.4388010000000  0.5316440000000  0.5364140000000 1.0
C      1  0.4813340000000  0.4554410000000  0.4368810000000 1.0
C      1  0.5275270000000  0.4154580000000  0.5239500000000 1.0
C      1  0.5493760000000  0.4456660000000  0.5518170000000 1.0
C      1  0.5241220000000  0.4863110000000  0.5350820000000 1.0
C      1  0.4815730000000  0.4971890000000  0.5247540000000 1.0
C      1  0.4587570000000  0.4578210000000  0.4867180000000 1.0
C      1  0.5389780000000  0.5730820000000  0.4850380000000 1.0
C      1  0.5085320000000  0.4859180000000  0.5834900000000 1.0
C      1  0.5336300000000  0.5351360000000  0.4534620000000 1.0
C      1  0.4433140000000  0.5801390000000  0.5159680000000 1.0
C      1  0.5766890000000  0.4934450000000  0.5209040000000 1.0
C      1  0.4198130000000  0.4948810000000  0.5063050000000 1.0
C      1  0.4235180000000  0.5292300000000  0.4727030000000 1.0
C      1  0.4503130000000  0.5100390000000  0.4278760000000 1.0
C      1  0.5226430000000  0.5360960000000  0.5718190000000 1.0
C      1  0.4472240000000  0.5630480000000  0.4708120000000 1.0
C      1  0.4422360000000  0.4865410000000  0.4399130000000 1.0
C      1  0.5649410000000  0.5444690000000  0.4610790000000 1.0
C      1  0.5177550000000  0.4649200000000  0.5185810000000 1.0
C      1  0.5064960000000  0.4616230000000  0.4199150000000 1.0
C      1  0.5014900000000  0.5367720000000  0.4924690000000 1.0
C      1  0.5339130000000  0.4413730000000  0.4521230000000 1.0
C      1  0.5635670000000  0.4451320000000  0.5258840000000 1.0
C      1  0.4840310000000  0.4263430000000  0.5261620000000 1.0
C      1  0.5224740000000  0.4851540000000  0.4191030000000 1.0
C      1  0.4969730000000  0.5500410000000  0.5663550000000 1.0
C      1  0.4260220000000  0.5038190000000  0.5318210000000 1.0
C      1  0.4878400000000  0.5472090000000  0.4360970000000 1.0
C      1  0.4821440000000  0.5501370000000  0.5122110000000 1.0
C      1  0.4876090000000  0.4641600000000  0.4681320000000 1.0
C      1  0.4422000000000  0.4845850000000  0.5458480000000 1.0
C      1  0.5670510000000  0.4994780000000  0.4736000000000 1.0
C      1  0.5339060000000  0.5831700000000  0.5125410000000 1.0
C      1  0.5812110000000  0.5233210000000  0.4730520000000 1.0
C      1  0.4467290000000  0.4417480000000  0.4635800000000 1.0
C      1  0.4951530000000  0.4349110000000  0.5512710000000 1.0
C      1  0.5245260000000  0.4638810000000  0.5829790000000 1.0
C      1  0.4887180000000  0.4688460000000  0.5169720000000 1.0
C      1  0.5529440000000  0.4951450000000  0.5692150000000 1.0
C      1  0.5219900000000  0.5184630000000  0.5045990000000 1.0
C      1  0.4820560000000  0.4804570000000  0.5727300000000 1.0
C      1  0.4834870000000  0.5144960000000  0.4807290000000 1.0
C      1  0.5434900000000  0.4848440000000  0.4398730000000 1.0
C      1  0.4450320000000  0.4840920000000  0.4911070000000 1.0
C      1  0.4842390000000  0.4143870000000  0.4620730000000 1.0
C      1  0.4284870000000  0.5587620000000  0.5222070000000 1.0
C      1  0.5221570000000  0.4952720000000  0.4817910000000 1.0
C      1  0.5489010000000  0.4266570000000  0.5115190000000 1.0
C      1  0.5160470000000  0.5110680000000  0.4144850000000 1.0
C      1  0.5300800000000  0.4675400000000  0.4912540000000 1.0
C      1  0.5179110000000  0.4366580000000  0.4297560000000 1.0
C      1  0.4713870000000  0.5755190000000  0.4741640000000 1.0
C      1  0.5242660000000  0.4293990000000  0.5496290000000 1.0
C      1  0.4959680000000  0.4919650000000  0.4703560000000 1.0
C      1  0.5087840000000  0.5081840000000  0.5277860000000 1.0
C      1  0.5530480000000  0.4618290000000  0.4536310000000 1.0
C      1  0.5626980000000  0.5695140000000  0.4714230000000 1.0
C      1  0.4562190000000  0.5274010000000  0.5604250000000 1.0
C      1  0.4605770000000  0.5343750000000  0.4334560000000 1.0
C      1  0.4924730000000  0.5654980000000  0.4573380000000 1.0
C      1  0.5171970000000  0.5546260000000  0.4721760000000 1.0
C      1  0.4663420000000  0.4485150000000  0.5156540000000 1.0
C      1  0.4305000000000  0.4909750000000  0.4655850000000 1.0
C      1  0.4712790000000  0.5794630000000  0.5043630000000 1.0
C      1  0.4529080000000  0.4602880000000  0.4395580000000 1.0
C      1  0.4350920000000  0.5478470000000  0.4937090000000 1.0
C      1  0.4401040000000  0.5423540000000  0.4521790000000 1.0
C      1  0.5680720000000  0.5057290000000  0.5467170000000 1.0
C      1  0.4986670000000  0.5635360000000  0.5381600000000 1.0
C      1  0.5036300000000  0.4196610000000  0.4825410000000 1.0
C      1  0.4915160000000  0.4270300000000  0.4382290000000 1.0
C      1  0.5411180000000  0.5474360000000  0.5532070000000 1.0
C      1  0.4761920000000  0.4548950000000  0.5609110000000 1.0
C      1  0.5509860000000  0.5289810000000  0.5117260000000 1.0
C      1  0.5274500000000  0.5650990000000  0.5354410000000 1.0
C      1  0.5283670000000  0.5081350000000  0.5786620000000 1.0
C      1  0.5740690000000  0.4666790000000  0.5099260000000 1.0
C      1  0.5147490000000  0.4465610000000  0.4750090000000 1.0
C      1  0.4719540000000  0.5438410000000  0.5760010000000 1.0
C      1  0.5726700000000  0.5142230000000  0.5002880000000 1.0
C      1  0.4920160000000  0.5906430000000  0.5225810000000 1.0
C      1  0.5490130000000  0.4662430000000  0.5712760000000 1.0
C      1  0.5585650000000  0.5308790000000  0.5395940000000 1.0
END
