TITL C-20645-1355-1 179.707393861033 125000 -942.635701735772 0 0 135 (C1) n - 1
REM
REM in /rds/project/t2_vol4/rds-t2-cs072/BORA/CARBON/from-Arr/AIRSS/Generating-Clusters/GAP-ML-2020/Only-C1/SD-CG/HFTN-CG
REM
REM
REM
REM
REM
REM ./C.cell (11c1c37f851c82e70ff6c80c92926a4b)
REM AIRSS Version 0.9.1 bugfix July 2018 build 013d7b7c2542+ Fri, 06 Jul 2018 19:26:36 +0100
REM compiler GCC version 9.3.0
REM options -cpp -mtune=generic -march=x86-64 -g -O0
REM seed -1386494407 -1591515176 -1917312353 220473645 -399083333 1565328626 14499719 1764697503 1448484889 1094281541 -207636251 -731522859 -1364955954 770824795 152268518 524576326 815149814 1559098584 2020146723 -1077795089 59542060 933903655 427296735 -2109938700 273903391 357068026 1540189692 1729490614 1127292689 -429351846 -885180893 -203449261 1958897160
REM
CELL 1.54180   50.00000   50.00000   50.00000   90.00000   90.00000   90.00000
LATT -1
SFAC C  
C      1  0.5261210000000  0.4708780000000  0.4363540000000 1.0
C      1  0.5220940000000  0.4191060000000  0.4702370000000 1.0
C      1  0.5669100000000  0.4460300000000  0.5299580000000 1.0
C      1  0.4832790000000  0.5876870000000  0.4610160000000 1.0
C      1  0.4087760000000  0.4538180000000  0.4819390000000 1.0
C      1  0.4229140000000  0.5030220000000  0.4689180000000 1.0
C      1  0.4935710000000  0.4867620000000  0.4092760000000 1.0
C      1  0.5520210000000  0.4312250000000  0.5084110000000 1.0
C      1  0.4820250000000  0.4654970000000  0.4254170000000 1.0
C      1  0.4149430000000  0.5302850000000  0.4603550000000 1.0
C      1  0.4908520000000  0.4692620000000  0.6165360000000 1.0
C      1  0.4512400000000  0.4302910000000  0.5446140000000 1.0
C      1  0.4142580000000  0.4541360000000  0.4544210000000 1.0
C      1  0.4248660000000  0.4506270000000  0.5072000000000 1.0
C      1  0.4861950000000  0.4594140000000  0.5911860000000 1.0
C      1  0.5667820000000  0.4815740000000  0.4187750000000 1.0
C      1  0.4472760000000  0.5212060000000  0.4306330000000 1.0
C      1  0.4084960000000  0.5125080000000  0.5412700000000 1.0
C      1  0.5100380000000  0.4134060000000  0.4975740000000 1.0
C      1  0.4976080000000  0.5124650000000  0.5539470000000 1.0
C      1  0.4249540000000  0.4715640000000  0.5535400000000 1.0
C      1  0.5852770000000  0.4673300000000  0.5262210000000 1.0
C      1  0.4220650000000  0.5747130000000  0.4670560000000 1.0
C      1  0.5386950000000  0.5250760000000  0.5354550000000 1.0
C      1  0.5637610000000  0.5252440000000  0.5815690000000 1.0
C      1  0.5801570000000  0.5437170000000  0.4867150000000 1.0
C      1  0.5950060000000  0.4784550000000  0.5007720000000 1.0
C      1  0.5772660000000  0.5337790000000  0.5605510000000 1.0
C      1  0.5335820000000  0.4769920000000  0.5374760000000 1.0
C      1  0.4509870000000  0.4229680000000  0.4422910000000 1.0
C      1  0.4697620000000  0.4724300000000  0.5689430000000 1.0
C      1  0.5552160000000  0.4628950000000  0.4374420000000 1.0
C      1  0.4719720000000  0.5070170000000  0.4750330000000 1.0
C      1  0.5321240000000  0.4524470000000  0.4979250000000 1.0
C      1  0.5007540000000  0.4277230000000  0.5554180000000 1.0
C      1  0.4971220000000  0.4892100000000  0.4787680000000 1.0
C      1  0.4524120000000  0.5666750000000  0.5362760000000 1.0
C      1  0.4821910000000  0.4715430000000  0.5380400000000 1.0
C      1  0.5085300000000  0.5171840000000  0.4390470000000 1.0
C      1  0.4427010000000  0.4283810000000  0.5170460000000 1.0
C      1  0.5222330000000  0.5656310000000  0.4414310000000 1.0
C      1  0.4773220000000  0.5812240000000  0.5371060000000 1.0
C      1  0.5195500000000  0.5491740000000  0.5787930000000 1.0
C      1  0.5731320000000  0.5064300000000  0.4332390000000 1.0
C      1  0.5438230000000  0.5049980000000  0.5760700000000 1.0
C      1  0.6038760000000  0.5056230000000  0.5003070000000 1.0
C      1  0.4063090000000  0.4775660000000  0.4670310000000 1.0
C      1  0.4387620000000  0.5687040000000  0.4459160000000 1.0
C      1  0.5286530000000  0.5333640000000  0.4815980000000 1.0
C      1  0.5176520000000  0.5256620000000  0.5092040000000 1.0
C      1  0.5403610000000  0.5854380000000  0.5169900000000 1.0
C      1  0.5800500000000  0.4891830000000  0.5445720000000 1.0
C      1  0.5445330000000  0.5706620000000  0.5405810000000 1.0
C      1  0.4244000000000  0.4998910000000  0.5610900000000 1.0
C      1  0.5476710000000  0.4788430000000  0.3972140000000 1.0
C      1  0.4809270000000  0.3921750000000  0.5325490000000 1.0
C      1  0.4579440000000  0.4686910000000  0.4445510000000 1.0
C      1  0.4460300000000  0.5183160000000  0.5669080000000 1.0
C      1  0.4093840000000  0.4961880000000  0.5184500000000 1.0
C      1  0.4754610000000  0.4133210000000  0.5494400000000 1.0
C      1  0.5652020000000  0.4531730000000  0.4616970000000 1.0
C      1  0.4838850000000  0.3998630000000  0.5064850000000 1.0
C      1  0.5066360000000  0.5388060000000  0.4600350000000 1.0
C      1  0.4138120000000  0.4694160000000  0.5273720000000 1.0
C      1  0.5425500000000  0.4487790000000  0.5497740000000 1.0
C      1  0.5615560000000  0.5464860000000  0.5371120000000 1.0
C      1  0.4934530000000  0.4460200000000  0.5304630000000 1.0
C      1  0.4877850000000  0.5926930000000  0.5124520000000 1.0
C      1  0.4621660000000  0.5079870000000  0.5050360000000 1.0
C      1  0.4630570000000  0.4821150000000  0.5173810000000 1.0
C      1  0.5828240000000  0.5437070000000  0.5151950000000 1.0
C      1  0.5046830000000  0.4894060000000  0.5360220000000 1.0
C      1  0.4226470000000  0.5419040000000  0.5060820000000 1.0
C      1  0.4464390000000  0.5594870000000  0.5095380000000 1.0
C      1  0.5551100000000  0.5549700000000  0.4751730000000 1.0
C      1  0.5216870000000  0.5690810000000  0.5586440000000 1.0
C      1  0.4591270000000  0.4131640000000  0.4979860000000 1.0
C      1  0.4764690000000  0.4168540000000  0.4490380000000 1.0
C      1  0.5060790000000  0.4886980000000  0.6047740000000 1.0
C      1  0.5548840000000  0.5295160000000  0.4298270000000 1.0
C      1  0.5259620000000  0.5950690000000  0.4796880000000 1.0
C      1  0.5067420000000  0.4428660000000  0.5792650000000 1.0
C      1  0.5046740000000  0.4502730000000  0.4340880000000 1.0
C      1  0.4725680000000  0.5048590000000  0.5736720000000 1.0
C      1  0.5038690000000  0.4254470000000  0.4484260000000 1.0
C      1  0.5941750000000  0.5201880000000  0.4774380000000 1.0
C      1  0.5312870000000  0.4563380000000  0.5774220000000 1.0
C      1  0.5240790000000  0.4879090000000  0.4090030000000 1.0
C      1  0.4366710000000  0.4478060000000  0.4379380000000 1.0
C      1  0.4460890000000  0.4546090000000  0.5608070000000 1.0
C      1  0.4857890000000  0.5325320000000  0.5129640000000 1.0
C      1  0.4632020000000  0.4552780000000  0.4739270000000 1.0
C      1  0.4591680000000  0.4252210000000  0.4717510000000 1.0
C      1  0.4960080000000  0.5638040000000  0.5489560000000 1.0
C      1  0.5314030000000  0.4824930000000  0.5900700000000 1.0
C      1  0.5155530000000  0.5968150000000  0.5068380000000 1.0
C      1  0.5236120000000  0.5242600000000  0.5626660000000 1.0
C      1  0.5271160000000  0.4241140000000  0.5435020000000 1.0
C      1  0.4284940000000  0.5111850000000  0.4992260000000 1.0
C      1  0.5862930000000  0.5012040000000  0.4579950000000 1.0
C      1  0.5487140000000  0.5805760000000  0.4888100000000 1.0
C      1  0.5553500000000  0.4929490000000  0.4902210000000 1.0
C      1  0.4685630000000  0.5325510000000  0.4165390000000 1.0
C      1  0.5942480000000  0.5136900000000  0.5481270000000 1.0
C      1  0.4498500000000  0.4984870000000  0.4524500000000 1.0
C      1  0.5120920000000  0.4963870000000  0.5065440000000 1.0
C      1  0.5035070000000  0.5380030000000  0.5979190000000 1.0
C      1  0.5043150000000  0.4442020000000  0.5031330000000 1.0
C      1  0.5069810000000  0.5615550000000  0.4163110000000 1.0
C      1  0.4169160000000  0.5384740000000  0.5355120000000 1.0
C      1  0.4123230000000  0.5513960000000  0.4798020000000 1.0
C      1  0.4867060000000  0.5118580000000  0.4185250000000 1.0
C      1  0.4909740000000  0.5136010000000  0.5981170000000 1.0
C      1  0.5115570000000  0.5880990000000  0.4568530000000 1.0
C      1  0.5322080000000  0.4135550000000  0.5180450000000 1.0
C      1  0.4395630000000  0.5444900000000  0.5518950000000 1.0
C      1  0.5785490000000  0.4764840000000  0.4755150000000 1.0
C      1  0.4786110000000  0.5596110000000  0.4210590000000 1.0
C      1  0.4788630000000  0.5358690000000  0.4710000000000 1.0
C      1  0.5187830000000  0.5427520000000  0.4012610000000 1.0
C      1  0.5395910000000  0.5074320000000  0.4718150000000 1.0
C      1  0.4504960000000  0.4639380000000  0.4987080000000 1.0
C      1  0.5497680000000  0.5534500000000  0.4451320000000 1.0
C      1  0.5180360000000  0.4943740000000  0.4563080000000 1.0
C      1  0.4717880000000  0.5531590000000  0.4940600000000 1.0
C      1  0.4302080000000  0.5409650000000  0.4394530000000 1.0
C      1  0.5295120000000  0.5208560000000  0.4167490000000 1.0
C      1  0.5365850000000  0.4792290000000  0.5067010000000 1.0
C      1  0.5514580000000  0.4968150000000  0.5471570000000 1.0
C      1  0.6010000000000  0.5229090000000  0.5224950000000 1.0
C      1  0.5458180000000  0.4359520000000  0.4772170000000 1.0
C      1  0.4769500000000  0.5816750000000  0.4886690000000 1.0
C      1  0.4892890000000  0.4616820000000  0.4838040000000 1.0
C      1  0.4663960000000  0.5761080000000  0.4407840000000 1.0
C      1  0.4887510000000  0.5368490000000  0.5409190000000 1.0
END
