TITL C-200321-9478-3 120.19806547761 125000 -860.290600182085 0 0 123 (C1) n - 1
REM
REM in /rds/project/t2_vol4/rds-t2-cs072/BORA/CARBON/from-Arr/AIRSS/Generating-Clusters/GAP-ML-2020/Only-C1/SD-CG/HFTN-CG
REM
REM
REM
REM
REM
REM ./C.cell (11c1c37f851c82e70ff6c80c92926a4b)
REM AIRSS Version 0.9.1 bugfix July 2018 build 013d7b7c2542+ Fri, 06 Jul 2018 19:26:36 +0100
REM compiler GCC version 9.3.0
REM options -cpp -mtune=generic -march=x86-64 -g -O0
REM seed -1112531798 309723784 1222207461 1315840377 -1805658123 -1842473794 220408939 -460972410 -1864903667 -151313835 -1540870079 -436649271 -390643085 -1694317451 -1544136892 595185232 -217935346 677736770 -170767040 -390169467 1783212764 -1679118911 -707434023 -1584027388 117148891 -833788053 599058569 70652152 -417948679 552378447 1109296733 -1382369557 -799952367
REM
CELL 1.54180   50.00000   50.00000   50.00000   90.00000   90.00000   90.00000
LATT -1
SFAC C  
C      1  0.4349620000000  0.5004240000000  0.5455400000000 1.0
C      1  0.5662220000000  0.5517970000000  0.4866870000000 1.0
C      1  0.4929140000000  0.4525210000000  0.4913340000000 1.0
C      1  0.5881740000000  0.5147200000000  0.4611420000000 1.0
C      1  0.5686540000000  0.4678810000000  0.5440380000000 1.0
C      1  0.4802830000000  0.5607790000000  0.5795630000000 1.0
C      1  0.4541320000000  0.4171780000000  0.4665150000000 1.0
C      1  0.4353780000000  0.5451430000000  0.5633580000000 1.0
C      1  0.4736140000000  0.5961820000000  0.4973650000000 1.0
C      1  0.5782160000000  0.5104770000000  0.4342240000000 1.0
C      1  0.5066310000000  0.5200080000000  0.5924200000000 1.0
C      1  0.4485700000000  0.5794920000000  0.5438670000000 1.0
C      1  0.5763520000000  0.4942420000000  0.5344030000000 1.0
C      1  0.5364650000000  0.5054090000000  0.4813110000000 1.0
C      1  0.4266200000000  0.4631590000000  0.5118430000000 1.0
C      1  0.5513500000000  0.5129870000000  0.5765750000000 1.0
C      1  0.5594530000000  0.5318330000000  0.4373570000000 1.0
C      1  0.5170130000000  0.5412060000000  0.5169960000000 1.0
C      1  0.4962370000000  0.5083820000000  0.5011590000000 1.0
C      1  0.5515400000000  0.4226200000000  0.4682050000000 1.0
C      1  0.5281790000000  0.5062190000000  0.5367040000000 1.0
C      1  0.5698380000000  0.4677940000000  0.4433440000000 1.0
C      1  0.5199480000000  0.5897560000000  0.5238450000000 1.0
C      1  0.5016690000000  0.4918700000000  0.5894120000000 1.0
C      1  0.4186550000000  0.5045240000000  0.4824470000000 1.0
C      1  0.5892650000000  0.4942020000000  0.4814910000000 1.0
C      1  0.4335850000000  0.4726040000000  0.5408930000000 1.0
C      1  0.4252940000000  0.5493890000000  0.4647540000000 1.0
C      1  0.4605550000000  0.5146130000000  0.5882220000000 1.0
C      1  0.4743350000000  0.4633490000000  0.5107860000000 1.0
C      1  0.5676510000000  0.4325880000000  0.5049800000000 1.0
C      1  0.4917190000000  0.5519650000000  0.4789480000000 1.0
C      1  0.5666280000000  0.4880220000000  0.4234410000000 1.0
C      1  0.5242820000000  0.5936330000000  0.4958260000000 1.0
C      1  0.4626770000000  0.5894140000000  0.4706710000000 1.0
C      1  0.4812710000000  0.5316800000000  0.5434140000000 1.0
C      1  0.4394310000000  0.4344580000000  0.5123850000000 1.0
C      1  0.4288650000000  0.5578880000000  0.5381160000000 1.0
C      1  0.4975710000000  0.5865190000000  0.5408000000000 1.0
C      1  0.5207400000000  0.5236740000000  0.4625640000000 1.0
C      1  0.4904490000000  0.5050290000000  0.4127410000000 1.0
C      1  0.5135510000000  0.4801210000000  0.5383390000000 1.0
C      1  0.5019940000000  0.4003570000000  0.4913430000000 1.0
C      1  0.4715180000000  0.4286710000000  0.4301230000000 1.0
C      1  0.4531390000000  0.4562050000000  0.5544740000000 1.0
C      1  0.4731940000000  0.4658760000000  0.5723830000000 1.0
C      1  0.4523400000000  0.4160430000000  0.4940420000000 1.0
C      1  0.5011250000000  0.4817830000000  0.4621450000000 1.0
C      1  0.5311120000000  0.5317370000000  0.5837490000000 1.0
C      1  0.4687910000000  0.5431830000000  0.4633770000000 1.0
C      1  0.5842020000000  0.5058590000000  0.5087790000000 1.0
C      1  0.5225810000000  0.4230600000000  0.5596880000000 1.0
C      1  0.5492380000000  0.4123140000000  0.4950480000000 1.0
C      1  0.5195840000000  0.5544330000000  0.4680770000000 1.0
C      1  0.5570420000000  0.4503860000000  0.5249520000000 1.0
C      1  0.4695060000000  0.5499910000000  0.5205600000000 1.0
C      1  0.4234040000000  0.5048380000000  0.4528570000000 1.0
C      1  0.4092600000000  0.4801730000000  0.4954070000000 1.0
C      1  0.5074170000000  0.4529690000000  0.4133070000000 1.0
C      1  0.4886250000000  0.4873710000000  0.5219890000000 1.0
C      1  0.4940790000000  0.5539590000000  0.4271700000000 1.0
C      1  0.4666370000000  0.5505520000000  0.4336820000000 1.0
C      1  0.4550870000000  0.5664580000000  0.5685730000000 1.0
C      1  0.5352820000000  0.4909160000000  0.4239700000000 1.0
C      1  0.5293160000000  0.4593750000000  0.5207290000000 1.0
C      1  0.5272080000000  0.4217370000000  0.4519980000000 1.0
C      1  0.5255080000000  0.5132490000000  0.5073480000000 1.0
C      1  0.5723130000000  0.5396310000000  0.4626880000000 1.0
C      1  0.5060600000000  0.5723330000000  0.4460260000000 1.0
C      1  0.4768000000000  0.4048990000000  0.5055280000000 1.0
C      1  0.4908460000000  0.5395360000000  0.5035310000000 1.0
C      1  0.4929620000000  0.5067770000000  0.4715090000000 1.0
C      1  0.4721100000000  0.5070650000000  0.5340070000000 1.0
C      1  0.5519190000000  0.4651400000000  0.5680250000000 1.0
C      1  0.4901620000000  0.5918740000000  0.4587790000000 1.0
C      1  0.4388150000000  0.5182170000000  0.5690780000000 1.0
C      1  0.4717520000000  0.5820160000000  0.5247350000000 1.0
C      1  0.5202190000000  0.4578540000000  0.4945750000000 1.0
C      1  0.5006500000000  0.4104990000000  0.5476640000000 1.0
C      1  0.4471250000000  0.5011330000000  0.4928420000000 1.0
C      1  0.5270720000000  0.4490870000000  0.5694690000000 1.0
C      1  0.4497270000000  0.4396060000000  0.4484560000000 1.0
C      1  0.5115670000000  0.5313090000000  0.5444560000000 1.0
C      1  0.5246790000000  0.4064780000000  0.5351720000000 1.0
C      1  0.5758300000000  0.5345420000000  0.5097470000000 1.0
C      1  0.4776130000000  0.4149390000000  0.5319280000000 1.0
C      1  0.4818700000000  0.5342740000000  0.5914700000000 1.0
C      1  0.5286290000000  0.4773230000000  0.4730250000000 1.0
C      1  0.4491230000000  0.5653990000000  0.4625560000000 1.0
C      1  0.5590050000000  0.5139370000000  0.5476050000000 1.0
C      1  0.4858700000000  0.4357000000000  0.4085280000000 1.0
C      1  0.5308090000000  0.5198250000000  0.4338600000000 1.0
C      1  0.5262260000000  0.4437540000000  0.4337690000000 1.0
C      1  0.4546370000000  0.4660950000000  0.4617480000000 1.0
C      1  0.4379210000000  0.5408780000000  0.5154570000000 1.0
C      1  0.4499480000000  0.4929270000000  0.4469540000000 1.0
C      1  0.5351250000000  0.5655580000000  0.5192770000000 1.0
C      1  0.5730910000000  0.4420800000000  0.4778820000000 1.0
C      1  0.5041050000000  0.4068450000000  0.4635490000000 1.0
C      1  0.4455300000000  0.5122800000000  0.5206970000000 1.0
C      1  0.5262810000000  0.5521790000000  0.5629760000000 1.0
C      1  0.5399660000000  0.4673260000000  0.4451170000000 1.0
C      1  0.5510450000000  0.4870450000000  0.5835990000000 1.0
C      1  0.4214450000000  0.5350880000000  0.4895400000000 1.0
C      1  0.5046000000000  0.4697460000000  0.5680730000000 1.0
C      1  0.5056820000000  0.5290340000000  0.4199870000000 1.0
C      1  0.4727930000000  0.4890260000000  0.5887280000000 1.0
C      1  0.5489490000000  0.5598730000000  0.5441950000000 1.0
C      1  0.5259850000000  0.4026470000000  0.5070800000000 1.0
C      1  0.4488070000000  0.5310550000000  0.4235510000000 1.0
C      1  0.5835270000000  0.4675290000000  0.4684240000000 1.0
C      1  0.4642890000000  0.5131660000000  0.4686390000000 1.0
C      1  0.5103080000000  0.4827540000000  0.4106140000000 1.0
C      1  0.5027380000000  0.5711610000000  0.5643950000000 1.0
C      1  0.5655870000000  0.5392750000000  0.5357490000000 1.0
C      1  0.5402300000000  0.5671670000000  0.4883720000000 1.0
C      1  0.4784670000000  0.4104210000000  0.4518910000000 1.0
C      1  0.4605970000000  0.4387460000000  0.5323980000000 1.0
C      1  0.4503280000000  0.4720840000000  0.4932490000000 1.0
C      1  0.4263910000000  0.5304830000000  0.4430290000000 1.0
C      1  0.5001360000000  0.6005710000000  0.4849890000000 1.0
C      1  0.4619340000000  0.5054780000000  0.4210050000000 1.0
C      1  0.4836780000000  0.4610960000000  0.4660160000000 1.0
END
