TITL C-20668-2291-8 0.253042741948544 125000 -672.985102000066 0 0 96 (C1) n - 1
REM
REM in /rds/project/t2_vol4/rds-t2-cs072/BORA/CARBON/from-Arr/AIRSS/Generating-Clusters/GAP-ML-2020/Only-C1/SD-CG/HFTN-CG
REM
REM
REM
REM
REM
REM ./C.cell (11c1c37f851c82e70ff6c80c92926a4b)
REM AIRSS Version 0.9.1 bugfix July 2018 build 013d7b7c2542+ Fri, 06 Jul 2018 19:26:36 +0100
REM compiler GCC version 9.3.0
REM options -cpp -mtune=generic -march=x86-64 -g -O0
REM seed -1026725878 1940087324 1055253828 -456120621 2080043213 360566622 967193426 1814649230 1134550053 946391737 1508999732 667114032 -1081059445 51109961 -1460653209 474086593 797816778 524164494 1733040997 -160108359 602670219 -1621744515 -70145544 1084809587 -1126769392 -1933615287 -2106379700 1744018378 585847104 1942604071 1231447750 688194288 -882681953
REM
CELL 1.54180   50.00000   50.00000   50.00000   90.00000   90.00000   90.00000
LATT -1
SFAC C  
C      1  0.5385310000000  0.5079740000000  0.4277200000000 1.0
C      1  0.4218090000000  0.4773220000000  0.5412690000000 1.0
C      1  0.4460540000000  0.5290520000000  0.4602070000000 1.0
C      1  0.4975140000000  0.5460840000000  0.5575230000000 1.0
C      1  0.5364420000000  0.5548750000000  0.5233610000000 1.0
C      1  0.4504760000000  0.5518210000000  0.4776860000000 1.0
C      1  0.5736550000000  0.4960810000000  0.4584720000000 1.0
C      1  0.4962160000000  0.4572640000000  0.5062230000000 1.0
C      1  0.4581880000000  0.4440490000000  0.5352580000000 1.0
C      1  0.4374410000000  0.4543910000000  0.5508510000000 1.0
C      1  0.4863300000000  0.5039780000000  0.5228860000000 1.0
C      1  0.4760280000000  0.4734520000000  0.5771550000000 1.0
C      1  0.4838410000000  0.5801890000000  0.5104230000000 1.0
C      1  0.4819510000000  0.4960050000000  0.4740330000000 1.0
C      1  0.4525850000000  0.5123770000000  0.5724270000000 1.0
C      1  0.5634980000000  0.4779820000000  0.5503500000000 1.0
C      1  0.5132640000000  0.5218580000000  0.4233200000000 1.0
C      1  0.4925700000000  0.5765930000000  0.4824600000000 1.0
C      1  0.5341060000000  0.5098900000000  0.5735220000000 1.0
C      1  0.5247350000000  0.5167990000000  0.4806560000000 1.0
C      1  0.5034730000000  0.4348130000000  0.4449470000000 1.0
C      1  0.4487040000000  0.4677840000000  0.5729870000000 1.0
C      1  0.5455720000000  0.4314490000000  0.4773150000000 1.0
C      1  0.4663960000000  0.4306340000000  0.4830310000000 1.0
C      1  0.5439540000000  0.4399120000000  0.5244400000000 1.0
C      1  0.5205250000000  0.5719030000000  0.4767290000000 1.0
C      1  0.5771160000000  0.5284190000000  0.4977950000000 1.0
C      1  0.4476380000000  0.5358080000000  0.5577410000000 1.0
C      1  0.5674070000000  0.4533460000000  0.5333190000000 1.0
C      1  0.4703550000000  0.5513520000000  0.5506350000000 1.0
C      1  0.4679750000000  0.4637200000000  0.5154910000000 1.0
C      1  0.5067030000000  0.4988120000000  0.5427410000000 1.0
C      1  0.4793510000000  0.5025700000000  0.5779850000000 1.0
C      1  0.4491400000000  0.5052130000000  0.4758210000000 1.0
C      1  0.4190430000000  0.5161650000000  0.5141060000000 1.0
C      1  0.5296280000000  0.5061840000000  0.5252790000000 1.0
C      1  0.5113700000000  0.4099710000000  0.5094580000000 1.0
C      1  0.5063560000000  0.5477900000000  0.4333450000000 1.0
C      1  0.4470190000000  0.5128240000000  0.5044390000000 1.0
C      1  0.5671240000000  0.4503170000000  0.4799190000000 1.0
C      1  0.5606710000000  0.5163700000000  0.4434380000000 1.0
C      1  0.5607820000000  0.5437370000000  0.4544520000000 1.0
C      1  0.4723460000000  0.5664440000000  0.4644660000000 1.0
C      1  0.4170880000000  0.4850660000000  0.5145830000000 1.0
C      1  0.4075090000000  0.5363260000000  0.4963490000000 1.0
C      1  0.5774780000000  0.4559570000000  0.5061520000000 1.0
C      1  0.5062030000000  0.4767110000000  0.4181550000000 1.0
C      1  0.4270290000000  0.5379350000000  0.5373750000000 1.0
C      1  0.5259390000000  0.4880210000000  0.4834490000000 1.0
C      1  0.4247100000000  0.5571420000000  0.4941070000000 1.0
C      1  0.5227570000000  0.4602740000000  0.5237350000000 1.0
C      1  0.4620490000000  0.4922360000000  0.5207870000000 1.0
C      1  0.5769670000000  0.5272310000000  0.5263010000000 1.0
C      1  0.4664630000000  0.4538070000000  0.4366850000000 1.0
C      1  0.5375100000000  0.4211440000000  0.5032970000000 1.0
C      1  0.5229320000000  0.5290580000000  0.5094500000000 1.0
C      1  0.4626650000000  0.5626420000000  0.5234640000000 1.0
C      1  0.5000780000000  0.4756850000000  0.4829810000000 1.0
C      1  0.4931230000000  0.4535730000000  0.4253470000000 1.0
C      1  0.4604370000000  0.5291120000000  0.4366900000000 1.0
C      1  0.5159810000000  0.4702860000000  0.5520800000000 1.0
C      1  0.5314730000000  0.4370860000000  0.4518250000000 1.0
C      1  0.4791430000000  0.5511150000000  0.4404490000000 1.0
C      1  0.5710850000000  0.4825540000000  0.5029270000000 1.0
C      1  0.5042980000000  0.5173460000000  0.5675090000000 1.0
C      1  0.4941970000000  0.4552270000000  0.5643720000000 1.0
C      1  0.5033650000000  0.5844960000000  0.5283030000000 1.0
C      1  0.5796760000000  0.5026180000000  0.4854190000000 1.0
C      1  0.4916170000000  0.5270730000000  0.5056840000000 1.0
C      1  0.4821560000000  0.4337540000000  0.5482750000000 1.0
C      1  0.5263660000000  0.5630360000000  0.4491460000000 1.0
C      1  0.4929070000000  0.5016740000000  0.4185510000000 1.0
C      1  0.5423170000000  0.5653440000000  0.4951940000000 1.0
C      1  0.4340260000000  0.4913130000000  0.5654690000000 1.0
C      1  0.5733320000000  0.5060570000000  0.5468670000000 1.0
C      1  0.4369810000000  0.4814790000000  0.4657660000000 1.0
C      1  0.5545330000000  0.5244020000000  0.5613780000000 1.0
C      1  0.4657610000000  0.5025680000000  0.4277170000000 1.0
C      1  0.4752400000000  0.4335950000000  0.4563650000000 1.0
C      1  0.4961010000000  0.5195060000000  0.4775590000000 1.0
C      1  0.5669990000000  0.4679330000000  0.4565540000000 1.0
C      1  0.5377940000000  0.4834580000000  0.5093050000000 1.0
C      1  0.5334470000000  0.4799030000000  0.4247690000000 1.0
C      1  0.4286990000000  0.4683290000000  0.4904790000000 1.0
C      1  0.5580900000000  0.5440120000000  0.5399510000000 1.0
C      1  0.5629710000000  0.5485170000000  0.4832660000000 1.0
C      1  0.4329910000000  0.5609580000000  0.5218950000000 1.0
C      1  0.4520690000000  0.4780070000000  0.4404570000000 1.0
C      1  0.5460130000000  0.4592320000000  0.4394940000000 1.0
C      1  0.5524040000000  0.5652530000000  0.4394380000000 1.0
C      1  0.4637160000000  0.5390370000000  0.5037840000000 1.0
C      1  0.5148210000000  0.5639460000000  0.5419430000000 1.0
C      1  0.4495980000000  0.4499790000000  0.4971070000000 1.0
C      1  0.5400520000000  0.4815040000000  0.5656790000000 1.0
C      1  0.4903600000000  0.4273710000000  0.5002370000000 1.0
C      1  0.4946010000000  0.4165410000000  0.5302010000000 1.0
END
