TITL C-200333-9381-7 0.0067938619756118 125000 -721.012675927753 0 0 103 (C1) n - 1
REM
REM in /rds/project/t2_vol4/rds-t2-cs072/BORA/CARBON/from-Arr/AIRSS/Generating-Clusters/GAP-ML-2020/Only-C1/SD-CG/HFTN-CG
REM
REM
REM
REM
REM
REM ./C.cell (11c1c37f851c82e70ff6c80c92926a4b)
REM AIRSS Version 0.9.1 bugfix July 2018 build 013d7b7c2542+ Fri, 06 Jul 2018 19:26:36 +0100
REM compiler GCC version 9.3.0
REM options -cpp -mtune=generic -march=x86-64 -g -O0
REM seed -436246915 1501236756 2119191492 -758489709 1540547697 1104672744 -754140119 -1633253534 2137772323 -2044974679 979131018 847839612 655365344 831835048 1466566353 -1097237173 502706075 -1261381160 1608442570 -1457581751 1237547145 1951100421 1714091332 -1640557508 2011619367 631017595 4545644 -1722130572 -2103350863 -922662375 -6485724 1936020722 1281188922
REM
CELL 1.54180   50.00000   50.00000   50.00000   90.00000   90.00000   90.00000
LATT -1
SFAC C  
C      1  0.4388240000000  0.5116290000000  0.5407000000000 1.0
C      1  0.5125520000000  0.5034290000000  0.4072280000000 1.0
C      1  0.4332540000000  0.5062980000000  0.4762480000000 1.0
C      1  0.4819770000000  0.5273940000000  0.4322760000000 1.0
C      1  0.4185390000000  0.4946910000000  0.4991750000000 1.0
C      1  0.5492530000000  0.4359240000000  0.4939650000000 1.0
C      1  0.4804270000000  0.4257650000000  0.5388850000000 1.0
C      1  0.5212760000000  0.4552500000000  0.5872710000000 1.0
C      1  0.5340400000000  0.4180030000000  0.5122720000000 1.0
C      1  0.4172100000000  0.5395630000000  0.5026540000000 1.0
C      1  0.5657700000000  0.5705240000000  0.5044770000000 1.0
C      1  0.4309510000000  0.5369400000000  0.4745140000000 1.0
C      1  0.5131530000000  0.5567910000000  0.4546190000000 1.0
C      1  0.4952840000000  0.4430140000000  0.4426610000000 1.0
C      1  0.4962230000000  0.5344530000000  0.5074620000000 1.0
C      1  0.4277340000000  0.4866830000000  0.4543770000000 1.0
C      1  0.5375260000000  0.4918680000000  0.4133930000000 1.0
C      1  0.5832160000000  0.4730520000000  0.5142330000000 1.0
C      1  0.4841410000000  0.4790130000000  0.5684960000000 1.0
C      1  0.5266680000000  0.4768800000000  0.5423390000000 1.0
C      1  0.4796990000000  0.5291970000000  0.4835220000000 1.0
C      1  0.5715910000000  0.4942420000000  0.4741530000000 1.0
C      1  0.4748440000000  0.4139440000000  0.4917010000000 1.0
C      1  0.4603940000000  0.4468770000000  0.5376260000000 1.0
C      1  0.5313210000000  0.4297290000000  0.5377040000000 1.0
C      1  0.5237270000000  0.5440760000000  0.5030280000000 1.0
C      1  0.5265280000000  0.5448660000000  0.4293500000000 1.0
C      1  0.4404310000000  0.4878040000000  0.5559720000000 1.0
C      1  0.5136680000000  0.4292150000000  0.4602400000000 1.0
C      1  0.4925670000000  0.5159120000000  0.5303790000000 1.0
C      1  0.5378280000000  0.5232970000000  0.5800140000000 1.0
C      1  0.4644620000000  0.5013490000000  0.4805440000000 1.0
C      1  0.4922260000000  0.4841940000000  0.4137930000000 1.0
C      1  0.4560380000000  0.4337050000000  0.4899570000000 1.0
C      1  0.5504830000000  0.5325360000000  0.4381380000000 1.0
C      1  0.5588120000000  0.4818190000000  0.5813920000000 1.0
C      1  0.5478470000000  0.4536710000000  0.5383000000000 1.0
C      1  0.4618020000000  0.5712580000000  0.5479130000000 1.0
C      1  0.4507710000000  0.5707750000000  0.5037070000000 1.0
C      1  0.5133130000000  0.4300360000000  0.5836240000000 1.0
C      1  0.5069630000000  0.4636040000000  0.5598910000000 1.0
C      1  0.5814670000000  0.4845100000000  0.5410120000000 1.0
C      1  0.4487620000000  0.4444580000000  0.4649960000000 1.0
C      1  0.4609000000000  0.5487660000000  0.4363800000000 1.0
C      1  0.4949590000000  0.5289850000000  0.5587490000000 1.0
C      1  0.5167640000000  0.4958040000000  0.5220600000000 1.0
C      1  0.5698940000000  0.5575120000000  0.4828210000000 1.0
C      1  0.5904680000000  0.4862790000000  0.4917660000000 1.0
C      1  0.5628140000000  0.4525440000000  0.5130670000000 1.0
C      1  0.4689780000000  0.4844590000000  0.5051600000000 1.0
C      1  0.4856930000000  0.4085470000000  0.5174870000000 1.0
C      1  0.5340550000000  0.4783570000000  0.5951600000000 1.0
C      1  0.4934720000000  0.5781690000000  0.4615110000000 1.0
C      1  0.5556690000000  0.5051730000000  0.4305480000000 1.0
C      1  0.4774240000000  0.4848010000000  0.4583860000000 1.0
C      1  0.5378080000000  0.5169640000000  0.5103450000000 1.0
C      1  0.5472200000000  0.5116210000000  0.4817920000000 1.0
C      1  0.4717850000000  0.4979710000000  0.4309490000000 1.0
C      1  0.5544330000000  0.5380130000000  0.4677810000000 1.0
C      1  0.5195030000000  0.5034090000000  0.5899380000000 1.0
C      1  0.5194320000000  0.5079320000000  0.4664730000000 1.0
C      1  0.4664740000000  0.5031560000000  0.5267360000000 1.0
C      1  0.4943700000000  0.5048800000000  0.5773610000000 1.0
C      1  0.4273360000000  0.5200730000000  0.4249990000000 1.0
C      1  0.4343760000000  0.5603920000000  0.5440970000000 1.0
C      1  0.5045980000000  0.4859790000000  0.4714830000000 1.0
C      1  0.4966250000000  0.5908780000000  0.4852810000000 1.0
C      1  0.5314640000000  0.5671870000000  0.5475900000000 1.0
C      1  0.5406030000000  0.4398730000000  0.4660460000000 1.0
C      1  0.5005190000000  0.4788830000000  0.5007410000000 1.0
C      1  0.4399310000000  0.4962890000000  0.4299900000000 1.0
C      1  0.4957490000000  0.5900190000000  0.5130320000000 1.0
C      1  0.5194790000000  0.5851470000000  0.5300110000000 1.0
C      1  0.5670880000000  0.4666870000000  0.5579570000000 1.0
C      1  0.4275370000000  0.5614820000000  0.5169710000000 1.0
C      1  0.4672000000000  0.5672860000000  0.4563900000000 1.0
C      1  0.5308000000000  0.5530560000000  0.4760420000000 1.0
C      1  0.5517870000000  0.5252220000000  0.5352480000000 1.0
C      1  0.5040350000000  0.4529040000000  0.5056250000000 1.0
C      1  0.4700960000000  0.5468140000000  0.5617730000000 1.0
C      1  0.4594550000000  0.4683690000000  0.5579530000000 1.0
C      1  0.4994810000000  0.5299850000000  0.4606120000000 1.0
C      1  0.5334050000000  0.4646020000000  0.4228680000000 1.0
C      1  0.5395250000000  0.5676970000000  0.5182010000000 1.0
C      1  0.5276600000000  0.5396480000000  0.5575630000000 1.0
C      1  0.5647300000000  0.4846280000000  0.4486370000000 1.0
C      1  0.4272770000000  0.4627470000000  0.4688720000000 1.0
C      1  0.5066230000000  0.5296940000000  0.4153870000000 1.0
C      1  0.4250180000000  0.4672820000000  0.4972080000000 1.0
C      1  0.5012120000000  0.4121220000000  0.4787290000000 1.0
C      1  0.4172220000000  0.5151520000000  0.5178980000000 1.0
C      1  0.5725410000000  0.5108570000000  0.5489290000000 1.0
C      1  0.5059200000000  0.4328120000000  0.5536320000000 1.0
C      1  0.5115000000000  0.4047070000000  0.5044920000000 1.0
C      1  0.4692490000000  0.5823010000000  0.5222560000000 1.0
C      1  0.4430630000000  0.5366110000000  0.5562140000000 1.0
C      1  0.4510930000000  0.4550400000000  0.5101630000000 1.0
C      1  0.5626750000000  0.5091520000000  0.5758570000000 1.0
C      1  0.4715630000000  0.4551400000000  0.4527090000000 1.0
C      1  0.5500120000000  0.4591450000000  0.4456520000000 1.0
C      1  0.4566800000000  0.5527910000000  0.4802600000000 1.0
C      1  0.5054830000000  0.4597430000000  0.4222240000000 1.0
C      1  0.4337080000000  0.5400230000000  0.4417320000000 1.0
END
