TITL C-20251-1788-9 6.84718536054071 125000 -783.448692171135 0 0 113 (C1) n - 1
REM
REM in /rds/project/t2_vol4/rds-t2-cs072/BORA/CARBON/from-Arr/AIRSS/Generating-Clusters/GAP-ML-2020/Only-C1/SD-CG/HFTN-CG
REM
REM
REM
REM
REM
REM ./C.cell (11c1c37f851c82e70ff6c80c92926a4b)
REM AIRSS Version 0.9.1 bugfix July 2018 build 013d7b7c2542+ Fri, 06 Jul 2018 19:26:36 +0100
REM compiler GCC version 9.3.0
REM options -cpp -mtune=generic -march=x86-64 -g -O0
REM seed 1245063586 1416748516 -89162848 668897821 -1224627737 619941598 1291699600 907640002 -2035716861 651094874 615027309 1151922428 143915473 -1795830137 -1015680569 2089696423 -462294857 88709607 -1043068072 -974751688 591612262 -571227242 -1518082283 689408471 -867412722 305726681 -1105521074 492500915 -553980826 1199622245 -563609703 -1472909211 -2022178350
REM
CELL 1.54180   50.00000   50.00000   50.00000   90.00000   90.00000   90.00000
LATT -1
SFAC C  
C      1  0.4605980000000  0.4845250000000  0.4828440000000 1.0
C      1  0.4597160000000  0.4309360000000  0.4733300000000 1.0
C      1  0.4535380000000  0.4894460000000  0.4303640000000 1.0
C      1  0.4972820000000  0.5854660000000  0.4666560000000 1.0
C      1  0.4903710000000  0.5111400000000  0.4514870000000 1.0
C      1  0.5445140000000  0.5249170000000  0.4424360000000 1.0
C      1  0.4457330000000  0.4666960000000  0.4469600000000 1.0
C      1  0.4896480000000  0.4396360000000  0.5151440000000 1.0
C      1  0.5499180000000  0.4757240000000  0.5893440000000 1.0
C      1  0.5251300000000  0.4778220000000  0.5710000000000 1.0
C      1  0.5189310000000  0.4811180000000  0.5262950000000 1.0
C      1  0.5797950000000  0.5292670000000  0.5277920000000 1.0
C      1  0.4170340000000  0.5345390000000  0.4800560000000 1.0
C      1  0.5348800000000  0.5238760000000  0.5170150000000 1.0
C      1  0.4958260000000  0.5307190000000  0.4949750000000 1.0
C      1  0.4985980000000  0.4612200000000  0.4667560000000 1.0
C      1  0.5105870000000  0.5904380000000  0.4916160000000 1.0
C      1  0.5235270000000  0.5259190000000  0.4252820000000 1.0
C      1  0.4969870000000  0.5570270000000  0.5726820000000 1.0
C      1  0.5123270000000  0.5090680000000  0.5330710000000 1.0
C      1  0.5512570000000  0.5775290000000  0.5289850000000 1.0
C      1  0.4768010000000  0.4091000000000  0.4690270000000 1.0
C      1  0.4137300000000  0.4704530000000  0.5143250000000 1.0
C      1  0.4688090000000  0.5994510000000  0.5125700000000 1.0
C      1  0.5835320000000  0.4743730000000  0.4871960000000 1.0
C      1  0.4914290000000  0.4414770000000  0.5574860000000 1.0
C      1  0.5316110000000  0.4819760000000  0.4430760000000 1.0
C      1  0.5599160000000  0.4844570000000  0.4338410000000 1.0
C      1  0.4528170000000  0.5434770000000  0.5637620000000 1.0
C      1  0.4330560000000  0.5245080000000  0.5544020000000 1.0
C      1  0.4686170000000  0.4579250000000  0.4651670000000 1.0
C      1  0.5457210000000  0.4396940000000  0.4745510000000 1.0
C      1  0.4578750000000  0.5685630000000  0.5498950000000 1.0
C      1  0.4784580000000  0.4847170000000  0.5791480000000 1.0
C      1  0.4440950000000  0.5154310000000  0.4437320000000 1.0
C      1  0.5866640000000  0.5284290000000  0.4821040000000 1.0
C      1  0.4231830000000  0.4730470000000  0.5415680000000 1.0
C      1  0.5045090000000  0.5889630000000  0.5403860000000 1.0
C      1  0.4509520000000  0.4794530000000  0.5728700000000 1.0
C      1  0.5588430000000  0.5679690000000  0.5040560000000 1.0
C      1  0.5329370000000  0.4280770000000  0.5241180000000 1.0
C      1  0.5312070000000  0.5677330000000  0.4867000000000 1.0
C      1  0.5563770000000  0.4596980000000  0.4937660000000 1.0
C      1  0.4681990000000  0.5848170000000  0.4648460000000 1.0
C      1  0.5543150000000  0.5236490000000  0.5417780000000 1.0
C      1  0.4871110000000  0.3966260000000  0.4937610000000 1.0
C      1  0.5707240000000  0.4389200000000  0.4563450000000 1.0
C      1  0.4875030000000  0.5209210000000  0.5216760000000 1.0
C      1  0.4730780000000  0.3975120000000  0.5166570000000 1.0
C      1  0.4497110000000  0.5634660000000  0.4565890000000 1.0
C      1  0.5360760000000  0.5308480000000  0.5647550000000 1.0
C      1  0.5138800000000  0.4035180000000  0.4828890000000 1.0
C      1  0.4438760000000  0.4568480000000  0.5560890000000 1.0
C      1  0.4363030000000  0.5777360000000  0.4993510000000 1.0
C      1  0.4567210000000  0.5428220000000  0.4390120000000 1.0
C      1  0.5074950000000  0.5088850000000  0.4754240000000 1.0
C      1  0.5783880000000  0.5460190000000  0.5039400000000 1.0
C      1  0.4140470000000  0.5205710000000  0.5054490000000 1.0
C      1  0.4926130000000  0.4701070000000  0.5132490000000 1.0
C      1  0.4618330000000  0.5100330000000  0.5223640000000 1.0
C      1  0.4888270000000  0.4607080000000  0.4073980000000 1.0
C      1  0.4562790000000  0.5954870000000  0.4877480000000 1.0
C      1  0.4622540000000  0.4255670000000  0.5209360000000 1.0
C      1  0.5242820000000  0.5556270000000  0.5656210000000 1.0
C      1  0.4970000000000  0.5989540000000  0.5149540000000 1.0
C      1  0.4242090000000  0.4524730000000  0.4935810000000 1.0
C      1  0.5017860000000  0.4398320000000  0.4144780000000 1.0
C      1  0.4185880000000  0.5152700000000  0.4587640000000 1.0
C      1  0.5923320000000  0.4709750000000  0.5154790000000 1.0
C      1  0.5771990000000  0.5025150000000  0.4946990000000 1.0
C      1  0.5694860000000  0.5124960000000  0.4379460000000 1.0
C      1  0.5200360000000  0.5453990000000  0.5032590000000 1.0
C      1  0.5063920000000  0.4792780000000  0.4866690000000 1.0
C      1  0.5691000000000  0.4885560000000  0.5785420000000 1.0
C      1  0.4063550000000  0.4936810000000  0.4991080000000 1.0
C      1  0.5839360000000  0.4985370000000  0.5249020000000 1.0
C      1  0.4810380000000  0.4855500000000  0.4168620000000 1.0
C      1  0.4846850000000  0.5767740000000  0.5567350000000 1.0
C      1  0.5075210000000  0.4302090000000  0.5359860000000 1.0
C      1  0.5910170000000  0.4575530000000  0.4638700000000 1.0
C      1  0.4305700000000  0.4959980000000  0.5596990000000 1.0
C      1  0.5104690000000  0.5491870000000  0.4359800000000 1.0
C      1  0.4782650000000  0.5361080000000  0.5771710000000 1.0
C      1  0.5029340000000  0.4112300000000  0.4570880000000 1.0
C      1  0.4695920000000  0.5336750000000  0.4843390000000 1.0
C      1  0.4438420000000  0.4325520000000  0.4969500000000 1.0
C      1  0.5860950000000  0.5256950000000  0.4551620000000 1.0
C      1  0.5301320000000  0.5771750000000  0.5461720000000 1.0
C      1  0.5236390000000  0.4527180000000  0.4540360000000 1.0
C      1  0.5401030000000  0.4722060000000  0.5454990000000 1.0
C      1  0.4232590000000  0.4657820000000  0.4661830000000 1.0
C      1  0.5168000000000  0.5083020000000  0.5660990000000 1.0
C      1  0.4984620000000  0.4646630000000  0.5729290000000 1.0
C      1  0.5074000000000  0.4988780000000  0.4296560000000 1.0
C      1  0.5748950000000  0.4620900000000  0.4411210000000 1.0
C      1  0.4298850000000  0.5593450000000  0.4781810000000 1.0
C      1  0.5515130000000  0.4460840000000  0.5356950000000 1.0
C      1  0.4842940000000  0.5378740000000  0.4381650000000 1.0
C      1  0.5333030000000  0.4201750000000  0.4947470000000 1.0
C      1  0.5130500000000  0.4298460000000  0.4378390000000 1.0
C      1  0.4639460000000  0.5090250000000  0.4673430000000 1.0
C      1  0.4686320000000  0.4860990000000  0.5096800000000 1.0
C      1  0.5623500000000  0.4948600000000  0.5473180000000 1.0
C      1  0.4492760000000  0.5816330000000  0.5259680000000 1.0
C      1  0.4107150000000  0.4903980000000  0.4708480000000 1.0
C      1  0.4635370000000  0.4380960000000  0.5485100000000 1.0
C      1  0.4340600000000  0.5240660000000  0.5256710000000 1.0
C      1  0.5721040000000  0.4508490000000  0.5179190000000 1.0
C      1  0.5351860000000  0.5068060000000  0.4653880000000 1.0
C      1  0.5470840000000  0.5054120000000  0.4936430000000 1.0
C      1  0.5346090000000  0.4795890000000  0.4998410000000 1.0
C      1  0.4903670000000  0.5107570000000  0.5788940000000 1.0
C      1  0.5181060000000  0.5680910000000  0.4567160000000 1.0
END
