TITL C-20238-1471-8 -0.253780121900347 125000 -282.787724553648 0 0 42 (C1) n - 1
REM
REM in /rds/project/t2_vol4/rds-t2-cs072/BORA/CARBON/from-Arr/AIRSS/Generating-Clusters/GAP-ML-2020/Only-C1/SD-CG/HFTN-CG
REM
REM
REM
REM
REM
REM ./C.cell (11c1c37f851c82e70ff6c80c92926a4b)
REM AIRSS Version 0.9.1 bugfix July 2018 build 013d7b7c2542+ Fri, 06 Jul 2018 19:26:36 +0100
REM compiler GCC version 9.3.0
REM options -cpp -mtune=generic -march=x86-64 -g -O0
REM seed -1497575302 -292808792 1538998759 1694455554 1481362920 1065387695 854056552 -288402033 681389762 1290724870 1831798779 -966283657 -2064681506 59977848 2073078046 2020470372 -748828706 1356311019 646911491 1941229009 -40905200 -416082830 -608215682 838051612 578427510 -1658807913 -437490442 -1991635475 1636333690 353460187 -784876281 -1812430510 -490438225
REM
CELL 1.54180   50.00000   50.00000   50.00000   90.00000   90.00000   90.00000
LATT -1
SFAC C  
C      1  0.4635060000000  0.4400940000000  0.5035590000000 1.0
C      1  0.4816070000000  0.5194590000000  0.5448890000000 1.0
C      1  0.4536310000000  0.5331510000000  0.4722200000000 1.0
C      1  0.4556080000000  0.5077440000000  0.5345180000000 1.0
C      1  0.4362660000000  0.5231120000000  0.4917250000000 1.0
C      1  0.5299800000000  0.5145460000000  0.5337990000000 1.0
C      1  0.4638400000000  0.4850620000000  0.4637210000000 1.0
C      1  0.5296990000000  0.5385240000000  0.5192440000000 1.0
C      1  0.5479260000000  0.4939390000000  0.5240160000000 1.0
C      1  0.5056660000000  0.5526090000000  0.5183800000000 1.0
C      1  0.4637060000000  0.4564460000000  0.5269370000000 1.0
C      1  0.5400260000000  0.4672870000000  0.5311010000000 1.0
C      1  0.5071270000000  0.4749190000000  0.5496480000000 1.0
C      1  0.4556540000000  0.4827760000000  0.5204010000000 1.0
C      1  0.4912550000000  0.4534160000000  0.5362910000000 1.0
C      1  0.4957660000000  0.5153930000000  0.4558970000000 1.0
C      1  0.4885360000000  0.4353020000000  0.4938580000000 1.0
C      1  0.5571270000000  0.4953580000000  0.4980980000000 1.0
C      1  0.4985100000000  0.5574340000000  0.4904630000000 1.0
C      1  0.5316520000000  0.4647120000000  0.5570760000000 1.0
C      1  0.4996160000000  0.4528220000000  0.4733570000000 1.0
C      1  0.4605940000000  0.5506790000000  0.5169500000000 1.0
C      1  0.4837460000000  0.5149350000000  0.4969770000000 1.0
C      1  0.4434470000000  0.5282910000000  0.5181040000000 1.0
C      1  0.4832740000000  0.5459300000000  0.5338120000000 1.0
C      1  0.5390110000000  0.5192150000000  0.4386840000000 1.0
C      1  0.5063960000000  0.5049120000000  0.4825070000000 1.0
C      1  0.5058960000000  0.5044960000000  0.5469640000000 1.0
C      1  0.4679900000000  0.5133260000000  0.4552360000000 1.0
C      1  0.5403550000000  0.5394940000000  0.4922510000000 1.0
C      1  0.5297040000000  0.4583230000000  0.4817800000000 1.0
C      1  0.4797610000000  0.4644570000000  0.4557040000000 1.0
C      1  0.5473420000000  0.4793430000000  0.4751370000000 1.0
C      1  0.5307340000000  0.4497940000000  0.5096510000000 1.0
C      1  0.5485470000000  0.5043970000000  0.4585650000000 1.0
C      1  0.5055510000000  0.4388920000000  0.5167900000000 1.0
C      1  0.4976290000000  0.4782860000000  0.4915550000000 1.0
C      1  0.5169490000000  0.5329790000000  0.4491300000000 1.0
C      1  0.4692710000000  0.4884520000000  0.4940470000000 1.0
C      1  0.4703420000000  0.5518000000000  0.4895780000000 1.0
C      1  0.5566860000000  0.5191460000000  0.4830970000000 1.0
C      1  0.5200680000000  0.5487470000000  0.4742820000000 1.0
END
