TITL C-20245-1490-2 -472.102680903236 125000 -785.022890270801 0 0 111 (C1) n - 1
REM
REM in /rds/project/t2_vol4/rds-t2-cs072/BORA/CARBON/from-Arr/AIRSS/Generating-Clusters/GAP-ML-2020/Only-C1/SD-CG/HFTN-CG
REM
REM
REM
REM
REM
REM ./C.cell (11c1c37f851c82e70ff6c80c92926a4b)
REM AIRSS Version 0.9.1 bugfix July 2018 build 013d7b7c2542+ Fri, 06 Jul 2018 19:26:36 +0100
REM compiler GCC version 9.3.0
REM options -cpp -mtune=generic -march=x86-64 -g -O0
REM seed 1435972267 -1531178265 -148141300 -2101477445 -863337995 -1240958907 -740328662 1366145975 -60015841 1209508452 534026562 -1691662184 -2057671881 -641197890 1655551674 1047304006 907513177 1583142126 471174849 -1450343080 1464370217 -1083952432 1231419956 754331184 286417338 -1827984751 -1750080603 542146491 443073941 -535685013 -114905864 -38977646 -132970772
REM
CELL 1.54180   50.00000   50.00000   50.00000   90.00000   90.00000   90.00000
LATT -1
SFAC C  
C      1  0.5800260000000  0.5089130000000  0.4868590000000 1.0
C      1  0.4962820000000  0.5350230000000  0.4233770000000 1.0
C      1  0.5231350000000  0.4803590000000  0.4936980000000 1.0
C      1  0.4716860000000  0.4845230000000  0.5791920000000 1.0
C      1  0.5004630000000  0.4817530000000  0.5798770000000 1.0
C      1  0.5619230000000  0.4968690000000  0.5593650000000 1.0
C      1  0.5181300000000  0.4891530000000  0.5204760000000 1.0
C      1  0.5550210000000  0.4958170000000  0.4196750000000 1.0
C      1  0.4263910000000  0.4402870000000  0.5280480000000 1.0
C      1  0.4197020000000  0.4673910000000  0.5319440000000 1.0
C      1  0.5676730000000  0.4478580000000  0.5233490000000 1.0
C      1  0.4575930000000  0.4137350000000  0.5160020000000 1.0
C      1  0.4584420000000  0.5096780000000  0.5755030000000 1.0
C      1  0.5380590000000  0.4477260000000  0.4619050000000 1.0
C      1  0.4727020000000  0.4998610000000  0.5213500000000 1.0
C      1  0.5134400000000  0.5286910000000  0.4770490000000 1.0
C      1  0.5409080000000  0.5412410000000  0.4326050000000 1.0
C      1  0.4954230000000  0.4674560000000  0.4836360000000 1.0
C      1  0.5762050000000  0.4740100000000  0.4554190000000 1.0
C      1  0.5149320000000  0.5899530000000  0.5385330000000 1.0
C      1  0.4192910000000  0.4793960000000  0.4422350000000 1.0
C      1  0.5211660000000  0.4164770000000  0.4957570000000 1.0
C      1  0.4622240000000  0.4554710000000  0.4298360000000 1.0
C      1  0.5000240000000  0.4851380000000  0.4079780000000 1.0
C      1  0.4917120000000  0.4345010000000  0.5598660000000 1.0
C      1  0.4799060000000  0.4975700000000  0.4470420000000 1.0
C      1  0.4276930000000  0.4426230000000  0.4983890000000 1.0
C      1  0.5676220000000  0.4140030000000  0.4838080000000 1.0
C      1  0.5093790000000  0.4548020000000  0.5707960000000 1.0
C      1  0.5112630000000  0.4900510000000  0.4507580000000 1.0
C      1  0.5494570000000  0.4634530000000  0.4864010000000 1.0
C      1  0.4317660000000  0.5250720000000  0.5328410000000 1.0
C      1  0.4722380000000  0.5249740000000  0.4346620000000 1.0
C      1  0.5244470000000  0.5887140000000  0.4795670000000 1.0
C      1  0.5676850000000  0.4372520000000  0.4970380000000 1.0
C      1  0.5000320000000  0.5970750000000  0.4920450000000 1.0
C      1  0.5566120000000  0.4566460000000  0.4423430000000 1.0
C      1  0.5380620000000  0.5181790000000  0.4152210000000 1.0
C      1  0.5569620000000  0.5394680000000  0.4559480000000 1.0
C      1  0.4936830000000  0.4126360000000  0.4901630000000 1.0
C      1  0.5742910000000  0.4980140000000  0.4414210000000 1.0
C      1  0.5779800000000  0.4740580000000  0.5178140000000 1.0
C      1  0.5534090000000  0.4727470000000  0.5675780000000 1.0
C      1  0.5486220000000  0.5234300000000  0.5052550000000 1.0
C      1  0.4617830000000  0.5539040000000  0.5621590000000 1.0
C      1  0.5763130000000  0.5200290000000  0.5144990000000 1.0
C      1  0.5242550000000  0.5167670000000  0.5207200000000 1.0
C      1  0.4484270000000  0.5546780000000  0.4673070000000 1.0
C      1  0.5008600000000  0.4176260000000  0.5379610000000 1.0
C      1  0.5766810000000  0.4972420000000  0.5335000000000 1.0
C      1  0.5155530000000  0.5548880000000  0.4356660000000 1.0
C      1  0.4725660000000  0.4226060000000  0.4712540000000 1.0
C      1  0.5407570000000  0.4206140000000  0.4755810000000 1.0
C      1  0.4800530000000  0.5245060000000  0.5329220000000 1.0
C      1  0.4701890000000  0.5856020000000  0.5292050000000 1.0
C      1  0.4782120000000  0.4353170000000  0.4439540000000 1.0
C      1  0.5169180000000  0.4622960000000  0.4140030000000 1.0
C      1  0.4699360000000  0.5604850000000  0.4856640000000 1.0
C      1  0.4840540000000  0.4079850000000  0.5166950000000 1.0
C      1  0.5044080000000  0.4434450000000  0.4340410000000 1.0
C      1  0.4271710000000  0.5425150000000  0.4830710000000 1.0
C      1  0.5366260000000  0.4523990000000  0.5619880000000 1.0
C      1  0.4885500000000  0.5342310000000  0.4912570000000 1.0
C      1  0.5757130000000  0.4802080000000  0.4864670000000 1.0
C      1  0.4163140000000  0.4999200000000  0.4613990000000 1.0
C      1  0.5419470000000  0.5449790000000  0.5642390000000 1.0
C      1  0.4542790000000  0.4648230000000  0.5677280000000 1.0
C      1  0.5038570000000  0.5770340000000  0.5614410000000 1.0
C      1  0.5614950000000  0.5622410000000  0.4964790000000 1.0
C      1  0.5398110000000  0.5819620000000  0.5292460000000 1.0
C      1  0.5540510000000  0.5598340000000  0.5420440000000 1.0
C      1  0.4495180000000  0.4253520000000  0.4900930000000 1.0
C      1  0.4760220000000  0.5768020000000  0.5565530000000 1.0
C      1  0.4365200000000  0.5065100000000  0.5565390000000 1.0
C      1  0.4635260000000  0.4394030000000  0.5592070000000 1.0
C      1  0.4759930000000  0.4802970000000  0.4229850000000 1.0
C      1  0.4324750000000  0.4787670000000  0.5544040000000 1.0
C      1  0.5021300000000  0.5342800000000  0.5177950000000 1.0
C      1  0.4234090000000  0.5606130000000  0.5066760000000 1.0
C      1  0.4482600000000  0.5376300000000  0.4441200000000 1.0
C      1  0.4241560000000  0.5268230000000  0.4563110000000 1.0
C      1  0.4864420000000  0.5813330000000  0.4724060000000 1.0
C      1  0.5439530000000  0.4691190000000  0.4200260000000 1.0
C      1  0.4720280000000  0.5337650000000  0.5798510000000 1.0
C      1  0.5105580000000  0.5750790000000  0.4564640000000 1.0
C      1  0.4849480000000  0.4578600000000  0.5084110000000 1.0
C      1  0.5004930000000  0.5323110000000  0.5827800000000 1.0
C      1  0.5213570000000  0.5017720000000  0.4733210000000 1.0
C      1  0.5438160000000  0.5418490000000  0.4823170000000 1.0
C      1  0.4124830000000  0.5460880000000  0.5270560000000 1.0
C      1  0.5164620000000  0.5542860000000  0.5734390000000 1.0
C      1  0.4546470000000  0.5662700000000  0.5133410000000 1.0
C      1  0.4350420000000  0.4620300000000  0.4329740000000 1.0
C      1  0.5102100000000  0.5132910000000  0.4097570000000 1.0
C      1  0.5422730000000  0.5160060000000  0.5697720000000 1.0
C      1  0.5155740000000  0.5075440000000  0.5800350000000 1.0
C      1  0.4561780000000  0.5429140000000  0.5349930000000 1.0
C      1  0.5104050000000  0.4588670000000  0.4570610000000 1.0
C      1  0.4743610000000  0.4881210000000  0.4746990000000 1.0
C      1  0.4177520000000  0.4705680000000  0.5022300000000 1.0
C      1  0.5441390000000  0.5831200000000  0.5004800000000 1.0
C      1  0.4943500000000  0.5969770000000  0.5193480000000 1.0
C      1  0.5447410000000  0.4385880000000  0.5379450000000 1.0
C      1  0.4672170000000  0.5088570000000  0.4938220000000 1.0
C      1  0.4364600000000  0.5162890000000  0.5003560000000 1.0
C      1  0.5756360000000  0.5193400000000  0.4600620000000 1.0
C      1  0.5698680000000  0.5486010000000  0.5207330000000 1.0
C      1  0.5254170000000  0.4221160000000  0.5247160000000 1.0
C      1  0.4475120000000  0.4266430000000  0.5392210000000 1.0
C      1  0.4187550000000  0.4952290000000  0.4892740000000 1.0
C      1  0.4904760000000  0.4785090000000  0.5253130000000 1.0
END
