TITL C-20277-281-2 20.4526889115845 125000 -119.368381772615 0 0 19 (C1) n - 1
REM
REM in /rds/project/t2_vol4/rds-t2-cs072/BORA/CARBON/from-Arr/AIRSS/Generating-Clusters/GAP-ML-2020/Only-C1/SD-CG/HFTN-CG
REM
REM
REM
REM
REM
REM ./C.cell (11c1c37f851c82e70ff6c80c92926a4b)
REM AIRSS Version 0.9.1 bugfix July 2018 build 013d7b7c2542+ Fri, 06 Jul 2018 19:26:36 +0100
REM compiler GCC version 9.3.0
REM options -cpp -mtune=generic -march=x86-64 -g -O0
REM seed 1592914889 2028587384 1366215068 1993534135 -1167133609 637005266 -1052857829 1316226557 202528221 -1908963827 -576467918 -1888664689 -210328247 612180365 -1403832960 -1776076925 -717868258 -743816914 -593287730 -1323984402 923278717 -251600859 2005364435 -208231384 595441816 -413835590 2035573126 -1290754958 637745683 298078039 407838313 -2110934340 2102474857
REM
CELL 1.54180   50.00000   50.00000   50.00000   90.00000   90.00000   90.00000
LATT -1
SFAC C  
C      1  0.4554900000000  0.4666290000000  0.5492570000000 1.0
C      1  0.5400290000000  0.5058230000000  0.4851520000000 1.0
C      1  0.5292750000000  0.4892740000000  0.4625520000000 1.0
C      1  0.4896160000000  0.4836300000000  0.4561020000000 1.0
C      1  0.5028740000000  0.5279880000000  0.4613340000000 1.0
C      1  0.4988280000000  0.5491660000000  0.4777500000000 1.0
C      1  0.4711950000000  0.5136260000000  0.4900140000000 1.0
C      1  0.5185620000000  0.5096210000000  0.5309470000000 1.0
C      1  0.4927730000000  0.5207890000000  0.5237510000000 1.0
C      1  0.4899900000000  0.5347590000000  0.4984310000000 1.0
C      1  0.5293930000000  0.5173810000000  0.4606680000000 1.0
C      1  0.5163800000000  0.4914070000000  0.5522690000000 1.0
C      1  0.4798090000000  0.5084840000000  0.4629170000000 1.0
C      1  0.4568350000000  0.4842170000000  0.5308940000000 1.0
C      1  0.5385080000000  0.5086320000000  0.5112700000000 1.0
C      1  0.4698520000000  0.5032670000000  0.5171620000000 1.0
C      1  0.5084910000000  0.4681760000000  0.5444900000000 1.0
C      1  0.5118310000000  0.4696440000000  0.4537040000000 1.0
C      1  0.5002680000000  0.4474870000000  0.5313360000000 1.0
END
