TITL C-200328-9395-3 -61.2424034391277 125000 -613.592000420155 0 0 89 (C1) n - 1
REM
REM in /rds/project/t2_vol4/rds-t2-cs072/BORA/CARBON/from-Arr/AIRSS/Generating-Clusters/GAP-ML-2020/Only-C1/SD-CG/HFTN-CG
REM
REM
REM
REM
REM
REM ./C.cell (11c1c37f851c82e70ff6c80c92926a4b)
REM AIRSS Version 0.9.1 bugfix July 2018 build 013d7b7c2542+ Fri, 06 Jul 2018 19:26:36 +0100
REM compiler GCC version 9.3.0
REM options -cpp -mtune=generic -march=x86-64 -g -O0
REM seed 1993151943 -337365832 -1819405451 78485661 220712737 -199237826 -1218415033 -296145939 -117459813 1993142252 -502072825 -1514986927 -1253711317 -477686868 -1170948368 1761477156 -1867849104 -2137037690 -652747376 1954594307 522851295 198540228 270223785 1259984251 578105264 1389107222 -67627275 1345589332 1684677798 1014595738 559692257 -1632041819 -1590637813
REM
CELL 1.54180   50.00000   50.00000   50.00000   90.00000   90.00000   90.00000
LATT -1
SFAC C  
C      1  0.5362180000000  0.5000400000000  0.4928820000000 1.0
C      1  0.5038430000000  0.4636320000000  0.4810420000000 1.0
C      1  0.4649910000000  0.5600300000000  0.5200340000000 1.0
C      1  0.5279310000000  0.5284060000000  0.4574460000000 1.0
C      1  0.5629960000000  0.4951030000000  0.5462160000000 1.0
C      1  0.5063750000000  0.5726630000000  0.4498700000000 1.0
C      1  0.5261890000000  0.5150930000000  0.5755020000000 1.0
C      1  0.4677690000000  0.4624310000000  0.4472740000000 1.0
C      1  0.4779110000000  0.5660200000000  0.4464170000000 1.0
C      1  0.5442960000000  0.4322020000000  0.4754090000000 1.0
C      1  0.5662700000000  0.4729110000000  0.4683810000000 1.0
C      1  0.4228240000000  0.5038940000000  0.4760640000000 1.0
C      1  0.5618520000000  0.4671460000000  0.5364220000000 1.0
C      1  0.5648340000000  0.4499800000000  0.4849190000000 1.0
C      1  0.4742340000000  0.5377160000000  0.5496540000000 1.0
C      1  0.5322460000000  0.4703630000000  0.5717870000000 1.0
C      1  0.5757590000000  0.5357660000000  0.4844520000000 1.0
C      1  0.4167850000000  0.4762850000000  0.5130180000000 1.0
C      1  0.5184970000000  0.4341130000000  0.5425120000000 1.0
C      1  0.5526680000000  0.5503970000000  0.4979480000000 1.0
C      1  0.4722560000000  0.4302840000000  0.5352700000000 1.0
C      1  0.5061460000000  0.5048870000000  0.4593300000000 1.0
C      1  0.5400450000000  0.4523210000000  0.5511350000000 1.0
C      1  0.4846190000000  0.5626580000000  0.5405020000000 1.0
C      1  0.4844660000000  0.4202930000000  0.5117480000000 1.0
C      1  0.4926370000000  0.4389450000000  0.5535460000000 1.0
C      1  0.5422910000000  0.4730730000000  0.4501970000000 1.0
C      1  0.5172130000000  0.5072410000000  0.4168010000000 1.0
C      1  0.4474620000000  0.4438820000000  0.5278360000000 1.0
C      1  0.5456610000000  0.4951990000000  0.5691540000000 1.0
C      1  0.5701240000000  0.4650380000000  0.5093000000000 1.0
C      1  0.5000700000000  0.5855730000000  0.4956380000000 1.0
C      1  0.5673560000000  0.4902320000000  0.4933600000000 1.0
C      1  0.5179550000000  0.5830690000000  0.4729470000000 1.0
C      1  0.5185230000000  0.4933220000000  0.5155990000000 1.0
C      1  0.5007300000000  0.5041690000000  0.5858540000000 1.0
C      1  0.4977530000000  0.4941550000000  0.4315110000000 1.0
C      1  0.4387330000000  0.5557260000000  0.4844200000000 1.0
C      1  0.4398960000000  0.4873070000000  0.5521130000000 1.0
C      1  0.4431370000000  0.5088520000000  0.4550220000000 1.0
C      1  0.4340170000000  0.5148280000000  0.5506540000000 1.0
C      1  0.5392720000000  0.5771350000000  0.4927920000000 1.0
C      1  0.5197080000000  0.5493590000000  0.4383200000000 1.0
C      1  0.5002480000000  0.4733750000000  0.5063350000000 1.0
C      1  0.4760390000000  0.5163790000000  0.5839510000000 1.0
C      1  0.4652710000000  0.5281890000000  0.4567640000000 1.0
C      1  0.4695920000000  0.4834810000000  0.5483380000000 1.0
C      1  0.5215180000000  0.5856380000000  0.5146950000000 1.0
C      1  0.5690620000000  0.5187980000000  0.5291500000000 1.0
C      1  0.4397050000000  0.5488040000000  0.5114570000000 1.0
C      1  0.5312420000000  0.5302230000000  0.4870120000000 1.0
C      1  0.4247970000000  0.4752720000000  0.4689740000000 1.0
C      1  0.4713700000000  0.5066370000000  0.5031170000000 1.0
C      1  0.5423440000000  0.4969640000000  0.4297960000000 1.0
C      1  0.4458000000000  0.4797850000000  0.4501600000000 1.0
C      1  0.5804880000000  0.5142540000000  0.5027530000000 1.0
C      1  0.4439130000000  0.4385530000000  0.4987930000000 1.0
C      1  0.5055440000000  0.4759380000000  0.5806660000000 1.0
C      1  0.4553220000000  0.5561610000000  0.4637380000000 1.0
C      1  0.5555860000000  0.5440390000000  0.5272280000000 1.0
C      1  0.4733500000000  0.4794110000000  0.5010740000000 1.0
C      1  0.4859010000000  0.4638470000000  0.5655410000000 1.0
C      1  0.4180970000000  0.5042280000000  0.5051620000000 1.0
C      1  0.4693050000000  0.4294800000000  0.4884390000000 1.0
C      1  0.4268240000000  0.5246930000000  0.5238810000000 1.0
C      1  0.5137750000000  0.4196580000000  0.5160290000000 1.0
C      1  0.5134310000000  0.5711470000000  0.5374020000000 1.0
C      1  0.4882640000000  0.4680720000000  0.4277770000000 1.0
C      1  0.5067300000000  0.4361410000000  0.4441750000000 1.0
C      1  0.5528970000000  0.5180150000000  0.4456460000000 1.0
C      1  0.5339150000000  0.4432990000000  0.4506450000000 1.0
C      1  0.4247350000000  0.4587050000000  0.4911250000000 1.0
C      1  0.4798980000000  0.5112250000000  0.5333000000000 1.0
C      1  0.5303920000000  0.4173650000000  0.4943700000000 1.0
C      1  0.4995720000000  0.4436860000000  0.4192410000000 1.0
C      1  0.5228410000000  0.5310010000000  0.5536000000000 1.0
C      1  0.5350640000000  0.5539100000000  0.5448220000000 1.0
C      1  0.4666160000000  0.4663100000000  0.5248550000000 1.0
C      1  0.4846680000000  0.4450900000000  0.4662460000000 1.0
C      1  0.5220250000000  0.4837020000000  0.4708650000000 1.0
C      1  0.4556840000000  0.5282550000000  0.5685650000000 1.0
C      1  0.5055680000000  0.5342320000000  0.4192680000000 1.0
C      1  0.4803950000000  0.5405700000000  0.4324890000000 1.0
C      1  0.5040910000000  0.5339630000000  0.4988470000000 1.0
C      1  0.4868920000000  0.5599420000000  0.5017350000000 1.0
C      1  0.5742410000000  0.5281720000000  0.4583540000000 1.0
C      1  0.4867190000000  0.5182830000000  0.4796970000000 1.0
C      1  0.4282720000000  0.4661780000000  0.5366860000000 1.0
C      1  0.5074410000000  0.5171990000000  0.5269390000000 1.0
END
