TITL C-20646-1397-10 0.0707427600469664 125000 -549.069931478342 0 0 80 (C1) n - 1
REM
REM in /rds/project/t2_vol4/rds-t2-cs072/BORA/CARBON/from-Arr/AIRSS/Generating-Clusters/GAP-ML-2020/Only-C1/SD-CG/HFTN-CG
REM
REM
REM
REM
REM
REM ./C.cell (11c1c37f851c82e70ff6c80c92926a4b)
REM AIRSS Version 0.9.1 bugfix July 2018 build 013d7b7c2542+ Fri, 06 Jul 2018 19:26:36 +0100
REM compiler GCC version 9.3.0
REM options -cpp -mtune=generic -march=x86-64 -g -O0
REM seed -294148356 -1113798351 929845627 730552453 -2129622758 -1912411764 -1249840847 900760827 -1049635609 1412795006 -655774623 1620892813 -379057534 -249365899 1046910341 2035095388 1481259971 1358427416 1082134352 -1122949817 2032772866 -713850244 -524355766 -741758717 40182279 -1810808261 -1763367122 -1803135820 -581193671 -9627758 915321537 808030832 2054511525
REM
CELL 1.54180   50.00000   50.00000   50.00000   90.00000   90.00000   90.00000
LATT -1
SFAC C  
C      1  0.5364170000000  0.5759380000000  0.5259070000000 1.0
C      1  0.5155390000000  0.5307320000000  0.5198610000000 1.0
C      1  0.4483710000000  0.4582490000000  0.5358600000000 1.0
C      1  0.4709770000000  0.5053520000000  0.4200470000000 1.0
C      1  0.4235840000000  0.5247090000000  0.4711810000000 1.0
C      1  0.4986380000000  0.4887500000000  0.5826270000000 1.0
C      1  0.4543910000000  0.4983140000000  0.5595040000000 1.0
C      1  0.4986440000000  0.5497710000000  0.4765550000000 1.0
C      1  0.4271670000000  0.4736420000000  0.4689860000000 1.0
C      1  0.5078850000000  0.5549180000000  0.5039260000000 1.0
C      1  0.5653260000000  0.4707380000000  0.5263410000000 1.0
C      1  0.5596760000000  0.5125090000000  0.5460320000000 1.0
C      1  0.4919250000000  0.4858230000000  0.4201760000000 1.0
C      1  0.5531540000000  0.5559160000000  0.5347450000000 1.0
C      1  0.5093760000000  0.5149940000000  0.5840310000000 1.0
C      1  0.4390670000000  0.5239710000000  0.4484940000000 1.0
C      1  0.5697220000000  0.4910250000000  0.5053770000000 1.0
C      1  0.5039650000000  0.4521480000000  0.4567700000000 1.0
C      1  0.5335460000000  0.5693880000000  0.4942200000000 1.0
C      1  0.4438550000000  0.4833610000000  0.4894550000000 1.0
C      1  0.4875250000000  0.4612700000000  0.4350190000000 1.0
C      1  0.5109150000000  0.5286920000000  0.4287230000000 1.0
C      1  0.5489970000000  0.5334650000000  0.4634360000000 1.0
C      1  0.4877560000000  0.4209170000000  0.5136320000000 1.0
C      1  0.5658730000000  0.5425350000000  0.5120640000000 1.0
C      1  0.4386610000000  0.4851970000000  0.5384650000000 1.0
C      1  0.4569870000000  0.5436390000000  0.5009210000000 1.0
C      1  0.5325790000000  0.5459620000000  0.4409600000000 1.0
C      1  0.5305210000000  0.5736990000000  0.4430630000000 1.0
C      1  0.5525240000000  0.4847740000000  0.5471990000000 1.0
C      1  0.5371570000000  0.4921880000000  0.4411120000000 1.0
C      1  0.4700590000000  0.5496870000000  0.4745010000000 1.0
C      1  0.5197890000000  0.5364180000000  0.5699100000000 1.0
C      1  0.4313950000000  0.5271810000000  0.4974040000000 1.0
C      1  0.4366480000000  0.4530620000000  0.4870140000000 1.0
C      1  0.4905750000000  0.4326720000000  0.5563160000000 1.0
C      1  0.4676500000000  0.5612430000000  0.5236170000000 1.0
C      1  0.4745320000000  0.5488010000000  0.5488190000000 1.0
C      1  0.5547140000000  0.5499740000000  0.4871190000000 1.0
C      1  0.5165150000000  0.5006830000000  0.4242870000000 1.0
C      1  0.5366090000000  0.5075220000000  0.4667210000000 1.0
C      1  0.4626210000000  0.4237200000000  0.5011090000000 1.0
C      1  0.4879330000000  0.4930730000000  0.5121370000000 1.0
C      1  0.5497760000000  0.4674240000000  0.4477110000000 1.0
C      1  0.4382020000000  0.5009730000000  0.5122240000000 1.0
C      1  0.5110380000000  0.5762870000000  0.5398410000000 1.0
C      1  0.4430830000000  0.4420680000000  0.5130240000000 1.0
C      1  0.4731540000000  0.4799140000000  0.5703240000000 1.0
C      1  0.4632250000000  0.5231070000000  0.5475610000000 1.0
C      1  0.4653120000000  0.5148960000000  0.5192560000000 1.0
C      1  0.5027270000000  0.4488030000000  0.5050110000000 1.0
C      1  0.4863560000000  0.4539050000000  0.4804480000000 1.0
C      1  0.5307340000000  0.4533000000000  0.4647090000000 1.0
C      1  0.4968640000000  0.4695840000000  0.5278990000000 1.0
C      1  0.4407290000000  0.4743720000000  0.4436750000000 1.0
C      1  0.5017330000000  0.5566600000000  0.5577400000000 1.0
C      1  0.4878540000000  0.4114770000000  0.5392620000000 1.0
C      1  0.5726930000000  0.4727520000000  0.4615080000000 1.0
C      1  0.5151580000000  0.4676740000000  0.5736140000000 1.0
C      1  0.5235230000000  0.4736610000000  0.5460290000000 1.0
C      1  0.5325700000000  0.4436320000000  0.5417120000000 1.0
C      1  0.4915140000000  0.5749050000000  0.5183590000000 1.0
C      1  0.4748560000000  0.4574600000000  0.5496680000000 1.0
C      1  0.5161580000000  0.4401490000000  0.5652090000000 1.0
C      1  0.5723770000000  0.5165700000000  0.5208470000000 1.0
C      1  0.5846690000000  0.4816980000000  0.4815970000000 1.0
C      1  0.4459720000000  0.5001660000000  0.4327860000000 1.0
C      1  0.4606960000000  0.4390950000000  0.4747570000000 1.0
C      1  0.4623860000000  0.5407840000000  0.4485560000000 1.0
C      1  0.4845190000000  0.5017060000000  0.4664560000000 1.0
C      1  0.5319130000000  0.4571230000000  0.4946420000000 1.0
C      1  0.5486480000000  0.4487580000000  0.5185700000000 1.0
C      1  0.4749490000000  0.4838180000000  0.4853280000000 1.0
C      1  0.5180690000000  0.5725010000000  0.4670250000000 1.0
C      1  0.4612790000000  0.4553230000000  0.4442400000000 1.0
C      1  0.5391280000000  0.4906670000000  0.4928360000000 1.0
C      1  0.5461760000000  0.5364460000000  0.5551710000000 1.0
C      1  0.5134750000000  0.5075610000000  0.5046740000000 1.0
C      1  0.5071610000000  0.5174580000000  0.4750560000000 1.0
C      1  0.4815610000000  0.5306970000000  0.4290300000000 1.0
END
