TITL C-200307-9521-10 0.174815562135957 125000 -40.835584667461 0 0 7 (C2) n - 1
REM
REM in /rds/project/t2_vol4/rds-t2-cs072/BORA/CARBON/from-Arr/AIRSS/Generating-Clusters/GAP-ML-2020/Only-C1/SD-CG/HFTN-CG
REM
REM
REM
REM
REM
REM ./C.cell (11c1c37f851c82e70ff6c80c92926a4b)
REM AIRSS Version 0.9.1 bugfix July 2018 build 013d7b7c2542+ Fri, 06 Jul 2018 19:26:36 +0100
REM compiler GCC version 9.3.0
REM options -cpp -mtune=generic -march=x86-64 -g -O0
REM seed 1134077149 716395923 941504969 -2003151653 -20139429 -144484156 1328277887 -12596744 -606290506 1834707588 2139716116 243756130 -1553311399 1077933650 -1947536046 1240756493 1659915488 1051029787 824341978 -217606213 -736691353 -2122572574 -1297175016 449017874 845198128 991301366 830729907 123284017 -1964133642 1084063960 -1346921988 -2030748940 1233320401
REM
CELL 1.54180   50.00000   50.00000   50.00000   90.00000   90.00000   90.00000
LATT -1
SFAC C  
C      1  0.4759610000000  0.5172660000000  0.4955410000000 1.0
C      1  0.5093570000000  0.4750340000000  0.5064260000000 1.0
C      1  0.4725170000000  0.4928190000000  0.4868310000000 1.0
C      1  0.4997540000000  0.5273470000000  0.4979400000000 1.0
C      1  0.5254040000000  0.5293130000000  0.5010930000000 1.0
C      1  0.4906550000000  0.4740110000000  0.4884620000000 1.0
C      1  0.5263530000000  0.4842110000000  0.5237070000000 1.0
END
