TITL C-200322-9465-1 -36.0666898740328 125000 -712.342933405948 0 0 103 (C1) n - 1
REM
REM in /rds/project/t2_vol4/rds-t2-cs072/BORA/CARBON/from-Arr/AIRSS/Generating-Clusters/GAP-ML-2020/Only-C1/SD-CG/HFTN-CG
REM
REM
REM
REM
REM
REM ./C.cell (11c1c37f851c82e70ff6c80c92926a4b)
REM AIRSS Version 0.9.1 bugfix July 2018 build 013d7b7c2542+ Fri, 06 Jul 2018 19:26:36 +0100
REM compiler GCC version 9.3.0
REM options -cpp -mtune=generic -march=x86-64 -g -O0
REM seed -1650313604 -848640140 67829558 -2043030131 21475978 798073315 1535770323 -881478410 1560258357 -754357498 47145147 886738584 547835725 -1114177501 1083664590 -1244421449 -1412951673 -1402297180 1074172928 -1855889676 395818283 -1325070155 -1229758491 1507438002 770591755 -144081084 5756355 -684034414 -502234294 -1949814598 -431382692 -534207776 -607102910
REM
CELL 1.54180   50.00000   50.00000   50.00000   90.00000   90.00000   90.00000
LATT -1
SFAC C  
C      1  0.4470540000000  0.5336000000000  0.4402710000000 1.0
C      1  0.4457730000000  0.4555330000000  0.5549500000000 1.0
C      1  0.5636400000000  0.5458190000000  0.4675900000000 1.0
C      1  0.4704610000000  0.5150160000000  0.4505020000000 1.0
C      1  0.4529870000000  0.4410080000000  0.4720480000000 1.0
C      1  0.5081120000000  0.5252570000000  0.4168500000000 1.0
C      1  0.4666350000000  0.4169840000000  0.5187500000000 1.0
C      1  0.5053010000000  0.5678190000000  0.4458700000000 1.0
C      1  0.5135340000000  0.4265510000000  0.5410670000000 1.0
C      1  0.4894400000000  0.4557820000000  0.4930330000000 1.0
C      1  0.5286630000000  0.5602480000000  0.5093400000000 1.0
C      1  0.4597340000000  0.5744110000000  0.4935880000000 1.0
C      1  0.5401970000000  0.4625180000000  0.4949610000000 1.0
C      1  0.5415080000000  0.4389110000000  0.4754160000000 1.0
C      1  0.5985730000000  0.4966150000000  0.5068080000000 1.0
C      1  0.4864470000000  0.4144800000000  0.5002190000000 1.0
C      1  0.4814020000000  0.5297040000000  0.4108060000000 1.0
C      1  0.4601020000000  0.4668090000000  0.5773980000000 1.0
C      1  0.5624880000000  0.4556340000000  0.4587050000000 1.0
C      1  0.5179800000000  0.5406910000000  0.4416630000000 1.0
C      1  0.5336080000000  0.4927040000000  0.4888400000000 1.0
C      1  0.4876100000000  0.4587410000000  0.5737510000000 1.0
C      1  0.5891690000000  0.5112010000000  0.5307600000000 1.0
C      1  0.5308740000000  0.4847380000000  0.5684560000000 1.0
C      1  0.5399990000000  0.4365510000000  0.5449060000000 1.0
C      1  0.4590120000000  0.4959110000000  0.5827240000000 1.0
C      1  0.5870070000000  0.4736430000000  0.4961310000000 1.0
C      1  0.4712890000000  0.5661620000000  0.5390560000000 1.0
C      1  0.4717290000000  0.5787990000000  0.4675940000000 1.0
C      1  0.5856460000000  0.5259150000000  0.4691350000000 1.0
C      1  0.4796630000000  0.5796910000000  0.5133390000000 1.0
C      1  0.5147640000000  0.4951480000000  0.4642670000000 1.0
C      1  0.4628390000000  0.5048780000000  0.4993810000000 1.0
C      1  0.5648330000000  0.4732100000000  0.5398280000000 1.0
C      1  0.5785030000000  0.5014380000000  0.4551980000000 1.0
C      1  0.4206870000000  0.4741070000000  0.4963060000000 1.0
C      1  0.5551790000000  0.4323640000000  0.5211370000000 1.0
C      1  0.4481090000000  0.5118280000000  0.5579150000000 1.0
C      1  0.5022180000000  0.4844820000000  0.5736870000000 1.0
C      1  0.4762240000000  0.5218050000000  0.5506350000000 1.0
C      1  0.4882090000000  0.5628780000000  0.5652530000000 1.0
C      1  0.4667560000000  0.4589310000000  0.5123160000000 1.0
C      1  0.5060540000000  0.5792420000000  0.5000760000000 1.0
C      1  0.5546790000000  0.5587270000000  0.4924170000000 1.0
C      1  0.5549830000000  0.5082130000000  0.4408070000000 1.0
C      1  0.4811750000000  0.4318680000000  0.4758160000000 1.0
C      1  0.5520160000000  0.5110700000000  0.4975320000000 1.0
C      1  0.4643180000000  0.5498130000000  0.4236010000000 1.0
C      1  0.4671230000000  0.5340040000000  0.5028310000000 1.0
C      1  0.5120840000000  0.4959930000000  0.4184350000000 1.0
C      1  0.4663110000000  0.4395690000000  0.5372660000000 1.0
C      1  0.5697440000000  0.5547090000000  0.5169760000000 1.0
C      1  0.5144750000000  0.4893050000000  0.5127210000000 1.0
C      1  0.4952080000000  0.5278940000000  0.4902860000000 1.0
C      1  0.4162710000000  0.5183960000000  0.4734170000000 1.0
C      1  0.4419580000000  0.4537190000000  0.4957920000000 1.0
C      1  0.4855420000000  0.5054180000000  0.5880080000000 1.0
C      1  0.4238430000000  0.4694460000000  0.5446380000000 1.0
C      1  0.5992310000000  0.5224840000000  0.4928660000000 1.0
C      1  0.4428580000000  0.5555320000000  0.5341680000000 1.0
C      1  0.5904140000000  0.5363940000000  0.5168050000000 1.0
C      1  0.5332640000000  0.4883740000000  0.4367470000000 1.0
C      1  0.4906700000000  0.4976700000000  0.5441980000000 1.0
C      1  0.5386850000000  0.4207780000000  0.5006870000000 1.0
C      1  0.4155250000000  0.5180460000000  0.5226520000000 1.0
C      1  0.4189930000000  0.5327530000000  0.4986180000000 1.0
C      1  0.5418710000000  0.4601790000000  0.4394550000000 1.0
C      1  0.4811520000000  0.5406020000000  0.5282880000000 1.0
C      1  0.4897080000000  0.4809000000000  0.4748520000000 1.0
C      1  0.4904710000000  0.4378850000000  0.5539130000000 1.0
C      1  0.4398900000000  0.4803050000000  0.4556740000000 1.0
C      1  0.5808910000000  0.4750790000000  0.4675640000000 1.0
C      1  0.4874140000000  0.4801190000000  0.4201760000000 1.0
C      1  0.5407530000000  0.5101350000000  0.5537200000000 1.0
C      1  0.5236910000000  0.4407240000000  0.4513120000000 1.0
C      1  0.4425830000000  0.4900300000000  0.5392760000000 1.0
C      1  0.4517540000000  0.4558250000000  0.4481200000000 1.0
C      1  0.4953790000000  0.4377500000000  0.4495310000000 1.0
C      1  0.4629370000000  0.4945960000000  0.4690210000000 1.0
C      1  0.5372730000000  0.5408020000000  0.5569160000000 1.0
C      1  0.5665080000000  0.4597790000000  0.5132580000000 1.0
C      1  0.5004670000000  0.5806390000000  0.4721130000000 1.0
C      1  0.5128250000000  0.4154010000000  0.5132860000000 1.0
C      1  0.4781660000000  0.4562950000000  0.4345880000000 1.0
C      1  0.5137500000000  0.4606350000000  0.5100620000000 1.0
C      1  0.4675190000000  0.4867730000000  0.5229720000000 1.0
C      1  0.4307990000000  0.5313880000000  0.5439800000000 1.0
C      1  0.4413340000000  0.5533380000000  0.5048420000000 1.0
C      1  0.5448860000000  0.4625870000000  0.5567540000000 1.0
C      1  0.4769220000000  0.5686780000000  0.4401190000000 1.0
C      1  0.5168220000000  0.5094460000000  0.5327930000000 1.0
C      1  0.4223370000000  0.5301700000000  0.4494920000000 1.0
C      1  0.5464140000000  0.5348760000000  0.4474010000000 1.0
C      1  0.5099140000000  0.5355300000000  0.5158930000000 1.0
C      1  0.4916410000000  0.4996800000000  0.4977720000000 1.0
C      1  0.4171270000000  0.4878150000000  0.5216230000000 1.0
C      1  0.5122800000000  0.5494190000000  0.5689350000000 1.0
C      1  0.4894490000000  0.5329760000000  0.5743560000000 1.0
C      1  0.5002920000000  0.5221780000000  0.4611660000000 1.0
C      1  0.4725990000000  0.5041970000000  0.4219850000000 1.0
C      1  0.5464320000000  0.5557250000000  0.5336010000000 1.0
C      1  0.4187420000000  0.4889280000000  0.4727350000000 1.0
C      1  0.5676220000000  0.5006860000000  0.5446490000000 1.0
END
