TITL C-20237-1340-7 -5.32357081552253 125000 -496.859059547632 0 0 72 (C1) n - 1
REM
REM in /rds/project/t2_vol4/rds-t2-cs072/BORA/CARBON/from-Arr/AIRSS/Generating-Clusters/GAP-ML-2020/Only-C1/SD-CG/HFTN-CG
REM
REM
REM
REM
REM
REM ./C.cell (11c1c37f851c82e70ff6c80c92926a4b)
REM AIRSS Version 0.9.1 bugfix July 2018 build 013d7b7c2542+ Fri, 06 Jul 2018 19:26:36 +0100
REM compiler GCC version 9.3.0
REM options -cpp -mtune=generic -march=x86-64 -g -O0
REM seed -175720886 690856142 1886031602 1919661971 -1372613082 -1090391839 2097168068 -2097230379 1731733872 249304152 1501524372 -919077536 -745540538 -671589150 1488200150 1763706383 485237183 -1427267866 -960508068 -289572407 -1316413266 -70189125 -1078400472 725119838 -1192186266 808773832 -547359040 777706554 -36460651 -1186341943 2123149233 -2108512750 -1715977343
REM
CELL 1.54180   50.00000   50.00000   50.00000   90.00000   90.00000   90.00000
LATT -1
SFAC C  
C      1  0.5335900000000  0.4516630000000  0.4495300000000 1.0
C      1  0.5340630000000  0.5028390000000  0.5757910000000 1.0
C      1  0.5055600000000  0.4877250000000  0.5431260000000 1.0
C      1  0.4738810000000  0.5164330000000  0.4378020000000 1.0
C      1  0.4975870000000  0.5633840000000  0.5367320000000 1.0
C      1  0.4611300000000  0.4661170000000  0.5530890000000 1.0
C      1  0.5095360000000  0.4547350000000  0.4360760000000 1.0
C      1  0.4469480000000  0.5549620000000  0.4842710000000 1.0
C      1  0.4441260000000  0.4979250000000  0.4911080000000 1.0
C      1  0.4372340000000  0.5102050000000  0.4645620000000 1.0
C      1  0.4317840000000  0.4720440000000  0.4899370000000 1.0
C      1  0.5486630000000  0.5022530000000  0.4500950000000 1.0
C      1  0.4808060000000  0.4847880000000  0.5610540000000 1.0
C      1  0.4921790000000  0.5810360000000  0.5004420000000 1.0
C      1  0.5325750000000  0.4320500000000  0.4702360000000 1.0
C      1  0.5650240000000  0.4667430000000  0.5229920000000 1.0
C      1  0.5096260000000  0.5167060000000  0.5354650000000 1.0
C      1  0.4965630000000  0.4346200000000  0.5430790000000 1.0
C      1  0.4270470000000  0.5195290000000  0.5045910000000 1.0
C      1  0.4887010000000  0.5768300000000  0.4734010000000 1.0
C      1  0.4298030000000  0.5331930000000  0.4788890000000 1.0
C      1  0.5501630000000  0.4315920000000  0.4933190000000 1.0
C      1  0.5570510000000  0.5413360000000  0.5151500000000 1.0
C      1  0.4767960000000  0.5444570000000  0.4427900000000 1.0
C      1  0.4466120000000  0.4561940000000  0.4707460000000 1.0
C      1  0.5627750000000  0.5171300000000  0.5304810000000 1.0
C      1  0.4520340000000  0.4993070000000  0.4439900000000 1.0
C      1  0.5452000000000  0.4590390000000  0.5433060000000 1.0
C      1  0.4454580000000  0.5106220000000  0.5460700000000 1.0
C      1  0.5418370000000  0.5629270000000  0.5244930000000 1.0
C      1  0.5410550000000  0.5115630000000  0.5481060000000 1.0
C      1  0.4587850000000  0.4360830000000  0.4885260000000 1.0
C      1  0.4984070000000  0.5002740000000  0.4434100000000 1.0
C      1  0.4892070000000  0.5277120000000  0.5752620000000 1.0
C      1  0.4602360000000  0.4715130000000  0.4483490000000 1.0
C      1  0.5232980000000  0.4872690000000  0.4912480000000 1.0
C      1  0.4506170000000  0.4402300000000  0.5169610000000 1.0
C      1  0.4866410000000  0.4405930000000  0.4893130000000 1.0
C      1  0.4745600000000  0.5717150000000  0.5209010000000 1.0
C      1  0.4912950000000  0.5194210000000  0.5103840000000 1.0
C      1  0.4379260000000  0.5323790000000  0.5269430000000 1.0
C      1  0.5218630000000  0.5372690000000  0.4227490000000 1.0
C      1  0.4852820000000  0.4688420000000  0.5041910000000 1.0
C      1  0.5724920000000  0.4942350000000  0.5162200000000 1.0
C      1  0.5623180000000  0.5167380000000  0.4720710000000 1.0
C      1  0.5124510000000  0.5661810000000  0.4616100000000 1.0
C      1  0.5110260000000  0.5128730000000  0.5832430000000 1.0
C      1  0.4507590000000  0.5566880000000  0.5137350000000 1.0
C      1  0.5710560000000  0.4712360000000  0.4761770000000 1.0
C      1  0.4776840000000  0.4958750000000  0.4961290000000 1.0
C      1  0.5003620000000  0.5402340000000  0.5520900000000 1.0
C      1  0.5027480000000  0.5033820000000  0.4756950000000 1.0
C      1  0.5099450000000  0.4252480000000  0.4881450000000 1.0
C      1  0.4675650000000  0.5098920000000  0.5647640000000 1.0
C      1  0.5106660000000  0.4759580000000  0.5139760000000 1.0
C      1  0.5286670000000  0.4244370000000  0.5112000000000 1.0
C      1  0.5236340000000  0.4363340000000  0.5366620000000 1.0
C      1  0.4666080000000  0.5619910000000  0.4642280000000 1.0
C      1  0.5535130000000  0.4737970000000  0.4539300000000 1.0
C      1  0.5318030000000  0.4812650000000  0.5560530000000 1.0
C      1  0.5667740000000  0.4530250000000  0.4977160000000 1.0
C      1  0.5021810000000  0.5304860000000  0.4866990000000 1.0
C      1  0.5756390000000  0.4966930000000  0.4876890000000 1.0
C      1  0.4884990000000  0.4715220000000  0.4387310000000 1.0
C      1  0.4340790000000  0.4629580000000  0.5177600000000 1.0
C      1  0.4703180000000  0.4414970000000  0.5404680000000 1.0
C      1  0.5255800000000  0.5124780000000  0.4344410000000 1.0
C      1  0.5247580000000  0.5509690000000  0.4838440000000 1.0
C      1  0.5178860000000  0.5686350000000  0.5125570000000 1.0
C      1  0.5044010000000  0.5519650000000  0.4383850000000 1.0
C      1  0.5521010000000  0.5391390000000  0.4869350000000 1.0
C      1  0.4409670000000  0.4810230000000  0.5398920000000 1.0
END
