TITL C-20654-1223-6 -0.0361892041768206 125000 -731.639131502651 0 0 104 (C1) n - 1
REM
REM in /rds/project/t2_vol4/rds-t2-cs072/BORA/CARBON/from-Arr/AIRSS/Generating-Clusters/GAP-ML-2020/Only-C1/SD-CG/HFTN-CG
REM
REM
REM
REM
REM
REM ./C.cell (11c1c37f851c82e70ff6c80c92926a4b)
REM AIRSS Version 0.9.1 bugfix July 2018 build 013d7b7c2542+ Fri, 06 Jul 2018 19:26:36 +0100
REM compiler GCC version 9.3.0
REM options -cpp -mtune=generic -march=x86-64 -g -O0
REM seed -414591456 -415522060 789317642 -997734059 1972696593 1802629824 -24862712 1937804028 1370746799 1707656609 -277764401 1743937316 -925501007 -575848203 1186987573 -1914281207 1723221716 -1429307788 -1483119997 -674159478 -1259143310 1506403658 172147017 -1737532806 -626518361 634952190 -150891969 317460057 -142663999 -1133823267 209919305 1246738873 2075035208
REM
CELL 1.54180   50.00000   50.00000   50.00000   90.00000   90.00000   90.00000
LATT -1
SFAC C  
C      1  0.4687660000000  0.5701200000000  0.4583190000000 1.0
C      1  0.4982640000000  0.5114910000000  0.4198410000000 1.0
C      1  0.4785580000000  0.5323650000000  0.4876900000000 1.0
C      1  0.4867240000000  0.4931390000000  0.5065250000000 1.0
C      1  0.5064770000000  0.4002650000000  0.5433760000000 1.0
C      1  0.5603970000000  0.4953380000000  0.4454210000000 1.0
C      1  0.4287160000000  0.5411370000000  0.4714610000000 1.0
C      1  0.5729960000000  0.4412700000000  0.4936920000000 1.0
C      1  0.5127960000000  0.4667300000000  0.5613010000000 1.0
C      1  0.5249930000000  0.4677980000000  0.4225650000000 1.0
C      1  0.5625720000000  0.5540850000000  0.4920120000000 1.0
C      1  0.4950330000000  0.5217000000000  0.5814510000000 1.0
C      1  0.5852220000000  0.5127650000000  0.4796960000000 1.0
C      1  0.5364060000000  0.5542520000000  0.5625400000000 1.0
C      1  0.4767710000000  0.5493310000000  0.4389150000000 1.0
C      1  0.4580470000000  0.5664740000000  0.5423750000000 1.0
C      1  0.5610440000000  0.4490210000000  0.4495490000000 1.0
C      1  0.5443880000000  0.5207690000000  0.4535060000000 1.0
C      1  0.4599880000000  0.4371090000000  0.4399250000000 1.0
C      1  0.5498770000000  0.4253290000000  0.4870740000000 1.0
C      1  0.5538190000000  0.4723490000000  0.5246280000000 1.0
C      1  0.5204930000000  0.5126790000000  0.5851930000000 1.0
C      1  0.4883590000000  0.5485780000000  0.5749010000000 1.0
C      1  0.4433000000000  0.4874470000000  0.5297950000000 1.0
C      1  0.4908870000000  0.4036930000000  0.5209200000000 1.0
C      1  0.5642070000000  0.4986760000000  0.5389470000000 1.0
C      1  0.4827980000000  0.4535630000000  0.4372880000000 1.0
C      1  0.5171120000000  0.4254570000000  0.4508980000000 1.0
C      1  0.5707680000000  0.4491650000000  0.5196340000000 1.0
C      1  0.5160640000000  0.4149200000000  0.5626760000000 1.0
C      1  0.5510120000000  0.5783890000000  0.4851750000000 1.0
C      1  0.5399910000000  0.5684750000000  0.4379020000000 1.0
C      1  0.4755790000000  0.5200030000000  0.5125620000000 1.0
C      1  0.4367630000000  0.5213650000000  0.4535800000000 1.0
C      1  0.4704460000000  0.4305360000000  0.4657030000000 1.0
C      1  0.4787580000000  0.5834910000000  0.5314150000000 1.0
C      1  0.5296420000000  0.5847380000000  0.5285290000000 1.0
C      1  0.4191030000000  0.5269920000000  0.4948130000000 1.0
C      1  0.5046700000000  0.4073190000000  0.4951110000000 1.0
C      1  0.4547720000000  0.4665090000000  0.5687950000000 1.0
C      1  0.5644120000000  0.5484190000000  0.5202950000000 1.0
C      1  0.5312150000000  0.5429350000000  0.4343140000000 1.0
C      1  0.4792950000000  0.4806010000000  0.4521920000000 1.0
C      1  0.4295030000000  0.4314700000000  0.5169480000000 1.0
C      1  0.4726680000000  0.4750550000000  0.5263950000000 1.0
C      1  0.5310040000000  0.5914440000000  0.5012920000000 1.0
C      1  0.4441390000000  0.5649520000000  0.4727950000000 1.0
C      1  0.5520920000000  0.5032270000000  0.5631010000000 1.0
C      1  0.5660100000000  0.5328840000000  0.4723870000000 1.0
C      1  0.4191320000000  0.4716080000000  0.4438950000000 1.0
C      1  0.5354440000000  0.5819850000000  0.4606750000000 1.0
C      1  0.5442370000000  0.4793810000000  0.4953990000000 1.0
C      1  0.5107950000000  0.4511700000000  0.5097620000000 1.0
C      1  0.4627310000000  0.5479270000000  0.5632050000000 1.0
C      1  0.4445090000000  0.4429730000000  0.5613450000000 1.0
C      1  0.5945150000000  0.5160440000000  0.5051100000000 1.0
C      1  0.5334600000000  0.5047470000000  0.4989380000000 1.0
C      1  0.5130690000000  0.5928490000000  0.4774190000000 1.0
C      1  0.5088410000000  0.4449740000000  0.4316540000000 1.0
C      1  0.4380300000000  0.5621830000000  0.5222630000000 1.0
C      1  0.4715050000000  0.5876880000000  0.5030140000000 1.0
C      1  0.4459660000000  0.5759870000000  0.4989740000000 1.0
C      1  0.4193530000000  0.4988730000000  0.4898890000000 1.0
C      1  0.4252010000000  0.4784180000000  0.5085490000000 1.0
C      1  0.5786580000000  0.4590330000000  0.4696240000000 1.0
C      1  0.5416870000000  0.5288510000000  0.5735620000000 1.0
C      1  0.4959540000000  0.4166820000000  0.4698700000000 1.0
C      1  0.4318010000000  0.4513260000000  0.4995210000000 1.0
C      1  0.4779240000000  0.5040780000000  0.5679140000000 1.0
C      1  0.4746690000000  0.5028460000000  0.4327120000000 1.0
C      1  0.5766630000000  0.5218720000000  0.5253210000000 1.0
C      1  0.5221460000000  0.4697750000000  0.5316600000000 1.0
C      1  0.5297240000000  0.4881300000000  0.5740270000000 1.0
C      1  0.5442250000000  0.4277050000000  0.4594000000000 1.0
C      1  0.5029990000000  0.5251230000000  0.5273460000000 1.0
C      1  0.4301380000000  0.4936500000000  0.4631890000000 1.0
C      1  0.5183900000000  0.4392020000000  0.5707520000000 1.0
C      1  0.4826160000000  0.4770310000000  0.5575050000000 1.0
C      1  0.4714680000000  0.4244100000000  0.5243980000000 1.0
C      1  0.5805990000000  0.4884420000000  0.4642410000000 1.0
C      1  0.4391040000000  0.4548360000000  0.4440530000000 1.0
C      1  0.4591950000000  0.4504690000000  0.4855670000000 1.0
C      1  0.4283630000000  0.5358130000000  0.5196510000000 1.0
C      1  0.4541510000000  0.4735640000000  0.4659370000000 1.0
C      1  0.4999500000000  0.4868660000000  0.4763870000000 1.0
C      1  0.5198030000000  0.4660740000000  0.4856250000000 1.0
C      1  0.5151050000000  0.4916890000000  0.4136810000000 1.0
C      1  0.5482650000000  0.5644960000000  0.5382180000000 1.0
C      1  0.5062910000000  0.5359950000000  0.4835560000000 1.0
C      1  0.4850130000000  0.5873720000000  0.4770890000000 1.0
C      1  0.5509180000000  0.4705140000000  0.4339550000000 1.0
C      1  0.5161740000000  0.5420090000000  0.5095040000000 1.0
C      1  0.5193800000000  0.5120090000000  0.4737990000000 1.0
C      1  0.5047010000000  0.5833900000000  0.5436570000000 1.0
C      1  0.5139980000000  0.4984830000000  0.5204050000000 1.0
C      1  0.4488170000000  0.5167960000000  0.5293160000000 1.0
C      1  0.4598300000000  0.5260900000000  0.4384310000000 1.0
C      1  0.5028910000000  0.5389990000000  0.4277070000000 1.0
C      1  0.4543970000000  0.5173090000000  0.5590930000000 1.0
C      1  0.4464940000000  0.4273520000000  0.5383820000000 1.0
C      1  0.4400600000000  0.4897300000000  0.5596600000000 1.0
C      1  0.5260760000000  0.4243880000000  0.5034150000000 1.0
C      1  0.4783470000000  0.4496130000000  0.5109810000000 1.0
C      1  0.5093150000000  0.5653600000000  0.5653760000000 1.0
END
