TITL C-20281-202-6 4.1946559365459 125000 -172.59027188446 0 0 27 (C1) n - 1
REM
REM in /rds/project/t2_vol4/rds-t2-cs072/BORA/CARBON/from-Arr/AIRSS/Generating-Clusters/GAP-ML-2020/Only-C1/SD-CG/HFTN-CG
REM
REM
REM
REM
REM
REM ./C.cell (11c1c37f851c82e70ff6c80c92926a4b)
REM AIRSS Version 0.9.1 bugfix July 2018 build 013d7b7c2542+ Fri, 06 Jul 2018 19:26:36 +0100
REM compiler GCC version 9.3.0
REM options -cpp -mtune=generic -march=x86-64 -g -O0
REM seed 219410583 -635827467 844911183 578360146 1588279304 -148592100 1318601733 -101323427 -1651832124 -489064748 -1461174365 -1959140447 -1488301120 219502623 1728543891 -1909856937 1624987004 -149246860 -991594764 75392048 1802515682 1740271459 -1924408334 2010853658 -1402901792 -796794787 94447294 72202894 1569225734 -912840671 2031452455 1653085734 1393083886
REM
CELL 1.54180   50.00000   50.00000   50.00000   90.00000   90.00000   90.00000
LATT -1
SFAC C  
C      1  0.4637920000000  0.5024130000000  0.5473530000000 1.0
C      1  0.4743630000000  0.4873510000000  0.4553420000000 1.0
C      1  0.5201540000000  0.5212570000000  0.5295600000000 1.0
C      1  0.4630070000000  0.5132880000000  0.5223630000000 1.0
C      1  0.5456180000000  0.4625380000000  0.5091190000000 1.0
C      1  0.4645020000000  0.4691050000000  0.4993020000000 1.0
C      1  0.5152430000000  0.5660680000000  0.5159430000000 1.0
C      1  0.5049520000000  0.5669880000000  0.4904710000000 1.0
C      1  0.4799500000000  0.5507630000000  0.4908010000000 1.0
C      1  0.4843770000000  0.4456610000000  0.4657860000000 1.0
C      1  0.5325380000000  0.5249230000000  0.5039710000000 1.0
C      1  0.4608250000000  0.4965010000000  0.4987170000000 1.0
C      1  0.5096200000000  0.4811690000000  0.4976210000000 1.0
C      1  0.5308040000000  0.5535140000000  0.4955170000000 1.0
C      1  0.5071060000000  0.4767040000000  0.5272920000000 1.0
C      1  0.5217170000000  0.4961090000000  0.5413210000000 1.0
C      1  0.4786390000000  0.4646860000000  0.4442600000000 1.0
C      1  0.4730330000000  0.5348990000000  0.4701970000000 1.0
C      1  0.5351800000000  0.4725650000000  0.5351210000000 1.0
C      1  0.4678000000000  0.5081830000000  0.4726630000000 1.0
C      1  0.4653030000000  0.4467330000000  0.4873370000000 1.0
C      1  0.4775620000000  0.5389300000000  0.5168520000000 1.0
C      1  0.5100520000000  0.4381550000000  0.4745020000000 1.0
C      1  0.5210570000000  0.4546730000000  0.4923540000000 1.0
C      1  0.5339480000000  0.5000640000000  0.4916430000000 1.0
C      1  0.5020110000000  0.5436850000000  0.5312930000000 1.0
C      1  0.5568460000000  0.4830770000000  0.4932990000000 1.0
END
