TITL C-20215-1270-8 89.1806389518462 125000 -734.135072018361 0 0 105 (C1) n - 1
REM
REM in /rds/project/t2_vol4/rds-t2-cs072/BORA/CARBON/from-Arr/AIRSS/Generating-Clusters/GAP-ML-2020/Only-C1/SD-CG/HFTN-CG
REM
REM
REM
REM
REM
REM ./C.cell (11c1c37f851c82e70ff6c80c92926a4b)
REM AIRSS Version 0.9.1 bugfix July 2018 build 013d7b7c2542+ Fri, 06 Jul 2018 19:26:36 +0100
REM compiler GCC version 9.3.0
REM options -cpp -mtune=generic -march=x86-64 -g -O0
REM seed -472870614 -1854676697 -880932329 376029700 -1159007361 624026449 848489859 -1832446488 -228118010 988998443 1721706453 -902084749 117413526 311043757 1006220678 1267610001 -820055867 1943041309 1617473432 1755498777 -772164641 -1621974410 798093988 841361233 1987444753 347113988 -111871703 -1693289429 306897676 1882239366 -1771251440 -1469291208 -208758695
REM
CELL 1.54180   50.00000   50.00000   50.00000   90.00000   90.00000   90.00000
LATT -1
SFAC C  
C      1  0.4180110000000  0.5080150000000  0.5017130000000 1.0
C      1  0.4928010000000  0.4146260000000  0.4843800000000 1.0
C      1  0.4704750000000  0.4267230000000  0.4692560000000 1.0
C      1  0.5053580000000  0.4364600000000  0.5576000000000 1.0
C      1  0.4142950000000  0.4802650000000  0.4962950000000 1.0
C      1  0.5169960000000  0.4198740000000  0.4688030000000 1.0
C      1  0.4552040000000  0.5379220000000  0.4182170000000 1.0
C      1  0.5680420000000  0.5378110000000  0.5511810000000 1.0
C      1  0.4674750000000  0.5377960000000  0.5697800000000 1.0
C      1  0.4922410000000  0.4270940000000  0.5117830000000 1.0
C      1  0.5664250000000  0.5547540000000  0.4859720000000 1.0
C      1  0.5216950000000  0.4845680000000  0.4647350000000 1.0
C      1  0.5757290000000  0.5299950000000  0.5037500000000 1.0
C      1  0.5457160000000  0.5291020000000  0.5120230000000 1.0
C      1  0.4273350000000  0.5172000000000  0.4539170000000 1.0
C      1  0.4622680000000  0.4801280000000  0.4794280000000 1.0
C      1  0.4431760000000  0.4324640000000  0.4774290000000 1.0
C      1  0.4981430000000  0.4899130000000  0.4440780000000 1.0
C      1  0.4654290000000  0.5789660000000  0.5037630000000 1.0
C      1  0.5348040000000  0.4754040000000  0.5101630000000 1.0
C      1  0.5506040000000  0.5260160000000  0.5698860000000 1.0
C      1  0.4152230000000  0.4723260000000  0.4686540000000 1.0
C      1  0.4978830000000  0.5467750000000  0.5022150000000 1.0
C      1  0.5142420000000  0.4684850000000  0.5882480000000 1.0
C      1  0.4277900000000  0.5525670000000  0.4920760000000 1.0
C      1  0.5409130000000  0.4691360000000  0.4252360000000 1.0
C      1  0.4760700000000  0.4952130000000  0.5850620000000 1.0
C      1  0.4304970000000  0.4495190000000  0.4592300000000 1.0
C      1  0.4534920000000  0.5674120000000  0.5271930000000 1.0
C      1  0.5195100000000  0.5766260000000  0.4787350000000 1.0
C      1  0.5804860000000  0.4988540000000  0.4649780000000 1.0
C      1  0.4886960000000  0.5549320000000  0.4456530000000 1.0
C      1  0.5713310000000  0.4718660000000  0.4666270000000 1.0
C      1  0.4257910000000  0.4886360000000  0.4472530000000 1.0
C      1  0.5084910000000  0.4941290000000  0.4043950000000 1.0
C      1  0.4856380000000  0.4683790000000  0.5842740000000 1.0
C      1  0.4491790000000  0.5694040000000  0.4820470000000 1.0
C      1  0.5167470000000  0.5082690000000  0.4839520000000 1.0
C      1  0.4562730000000  0.5105540000000  0.5693110000000 1.0
C      1  0.5861640000000  0.5059990000000  0.4915820000000 1.0
C      1  0.4923150000000  0.5379270000000  0.5837570000000 1.0
C      1  0.4633300000000  0.4548030000000  0.5417870000000 1.0
C      1  0.4445210000000  0.5376350000000  0.4432960000000 1.0
C      1  0.5153990000000  0.5618600000000  0.4533600000000 1.0
C      1  0.5468500000000  0.5203830000000  0.4300850000000 1.0
C      1  0.5622770000000  0.4809750000000  0.5574320000000 1.0
C      1  0.5272870000000  0.5379710000000  0.5558390000000 1.0
C      1  0.5406060000000  0.4256000000000  0.4822590000000 1.0
C      1  0.4724010000000  0.5571490000000  0.5466370000000 1.0
C      1  0.5625900000000  0.5455790000000  0.4598570000000 1.0
C      1  0.4871280000000  0.5329640000000  0.5271930000000 1.0
C      1  0.4950240000000  0.4688170000000  0.4193310000000 1.0
C      1  0.5098650000000  0.5560160000000  0.5699360000000 1.0
C      1  0.5690270000000  0.5194500000000  0.4488100000000 1.0
C      1  0.5173360000000  0.4511890000000  0.4246980000000 1.0
C      1  0.4794720000000  0.4329430000000  0.4421420000000 1.0
C      1  0.5183920000000  0.4670290000000  0.4879860000000 1.0
C      1  0.4405670000000  0.4385800000000  0.5056710000000 1.0
C      1  0.4969030000000  0.5730130000000  0.5510330000000 1.0
C      1  0.5799810000000  0.4924990000000  0.5361830000000 1.0
C      1  0.5745790000000  0.4603340000000  0.4929250000000 1.0
C      1  0.4823450000000  0.5361780000000  0.4235720000000 1.0
C      1  0.5239670000000  0.5350770000000  0.4918150000000 1.0
C      1  0.5820150000000  0.5211860000000  0.5335660000000 1.0
C      1  0.4332200000000  0.5193630000000  0.5247490000000 1.0
C      1  0.5495890000000  0.4990340000000  0.5767950000000 1.0
C      1  0.4215040000000  0.5265110000000  0.4805250000000 1.0
C      1  0.5082430000000  0.4307240000000  0.4423780000000 1.0
C      1  0.4722320000000  0.4946620000000  0.5032970000000 1.0
C      1  0.5393460000000  0.4474460000000  0.5264480000000 1.0
C      1  0.5437810000000  0.5735010000000  0.4935770000000 1.0
C      1  0.4747560000000  0.5352640000000  0.4867100000000 1.0
C      1  0.4760300000000  0.4960690000000  0.4597910000000 1.0
C      1  0.4850530000000  0.4757120000000  0.5228690000000 1.0
C      1  0.4318390000000  0.5492690000000  0.5197730000000 1.0
C      1  0.4685820000000  0.4561320000000  0.4275010000000 1.0
C      1  0.4994860000000  0.5112810000000  0.5913070000000 1.0
C      1  0.5136670000000  0.4302170000000  0.5316960000000 1.0
C      1  0.5105270000000  0.5819760000000  0.5273740000000 1.0
C      1  0.4389190000000  0.5006680000000  0.5482570000000 1.0
C      1  0.5840540000000  0.4829240000000  0.5092050000000 1.0
C      1  0.4632930000000  0.5210450000000  0.5126930000000 1.0
C      1  0.4385930000000  0.4721080000000  0.5398270000000 1.0
C      1  0.4948170000000  0.4566380000000  0.5008080000000 1.0
C      1  0.5376090000000  0.5745320000000  0.5218010000000 1.0
C      1  0.4635930000000  0.5528680000000  0.4623960000000 1.0
C      1  0.4967170000000  0.5768850000000  0.5017080000000 1.0
C      1  0.4761830000000  0.4560390000000  0.4795390000000 1.0
C      1  0.4262200000000  0.4623480000000  0.5156060000000 1.0
C      1  0.4626710000000  0.4330580000000  0.5222680000000 1.0
C      1  0.5557650000000  0.4383020000000  0.5011860000000 1.0
C      1  0.4802910000000  0.4487270000000  0.5647220000000 1.0
C      1  0.5007180000000  0.4888580000000  0.5425570000000 1.0
C      1  0.4876500000000  0.5103670000000  0.4811040000000 1.0
C      1  0.5353880000000  0.4955230000000  0.4145280000000 1.0
C      1  0.5238540000000  0.4945670000000  0.5901490000000 1.0
C      1  0.5095640000000  0.5141290000000  0.5366030000000 1.0
C      1  0.5474030000000  0.4704260000000  0.4522670000000 1.0
C      1  0.5455960000000  0.5499650000000  0.5349990000000 1.0
C      1  0.5282520000000  0.5037730000000  0.5150200000000 1.0
C      1  0.4429880000000  0.4646220000000  0.4372220000000 1.0
C      1  0.4973510000000  0.5120470000000  0.4226270000000 1.0
C      1  0.5390210000000  0.5469820000000  0.4429940000000 1.0
C      1  0.5480280000000  0.4562870000000  0.5537040000000 1.0
C      1  0.5267890000000  0.4498130000000  0.5713780000000 1.0
END
