TITL C-20227-1924-2 0.0456905507514666 125000 -860.866524435463 0 0 124 (C1) n - 1
REM
REM in /rds/project/t2_vol4/rds-t2-cs072/BORA/CARBON/from-Arr/AIRSS/Generating-Clusters/GAP-ML-2020/Only-C1/SD-CG/HFTN-CG
REM
REM
REM
REM
REM
REM ./C.cell (11c1c37f851c82e70ff6c80c92926a4b)
REM AIRSS Version 0.9.1 bugfix July 2018 build 013d7b7c2542+ Fri, 06 Jul 2018 19:26:36 +0100
REM compiler GCC version 9.3.0
REM options -cpp -mtune=generic -march=x86-64 -g -O0
REM seed -412527141 -2097860458 -1105641123 -1113469712 -162767102 596854126 -1467441885 662709785 -2073844228 -1426750558 323719244 380176685 -2117450523 1124889385 -691577443 -1404328398 888316975 -156500501 -1105478435 959496745 -509954993 -1411631229 1347152555 945540780 1527193030 1081166247 -2017758664 -669208296 -1173486855 -507919463 -1457122966 -1612472491 -49527031
REM
CELL 1.54180   50.00000   50.00000   50.00000   90.00000   90.00000   90.00000
LATT -1
SFAC C  
C      1  0.5459410000000  0.4776220000000  0.4356270000000 1.0
C      1  0.4386950000000  0.4756480000000  0.4400180000000 1.0
C      1  0.4600890000000  0.5212800000000  0.5116220000000 1.0
C      1  0.4516340000000  0.5077950000000  0.4601380000000 1.0
C      1  0.4883190000000  0.5297160000000  0.4759250000000 1.0
C      1  0.4689100000000  0.4362590000000  0.4255960000000 1.0
C      1  0.4336640000000  0.5554740000000  0.4805580000000 1.0
C      1  0.5085620000000  0.4084800000000  0.5396070000000 1.0
C      1  0.5842010000000  0.4478720000000  0.4852810000000 1.0
C      1  0.4196030000000  0.4766580000000  0.4629710000000 1.0
C      1  0.5365630000000  0.5250190000000  0.5281370000000 1.0
C      1  0.4644920000000  0.5499700000000  0.5765130000000 1.0
C      1  0.5317330000000  0.5628380000000  0.4599560000000 1.0
C      1  0.5029280000000  0.5753990000000  0.5589560000000 1.0
C      1  0.5254270000000  0.5960620000000  0.5011410000000 1.0
C      1  0.5679940000000  0.4447640000000  0.4622800000000 1.0
C      1  0.5715390000000  0.4695870000000  0.4464090000000 1.0
C      1  0.4729710000000  0.5918320000000  0.4865750000000 1.0
C      1  0.5861570000000  0.4899760000000  0.4603200000000 1.0
C      1  0.4600800000000  0.4252140000000  0.5368940000000 1.0
C      1  0.5037390000000  0.4837080000000  0.5154240000000 1.0
C      1  0.5513060000000  0.4313630000000  0.5250040000000 1.0
C      1  0.5355180000000  0.4102470000000  0.5377980000000 1.0
C      1  0.5786880000000  0.4405380000000  0.5130180000000 1.0
C      1  0.4959890000000  0.4383280000000  0.4771470000000 1.0
C      1  0.5429040000000  0.5486500000000  0.4360880000000 1.0
C      1  0.5230740000000  0.5154390000000  0.4086470000000 1.0
C      1  0.4830880000000  0.5377750000000  0.5246640000000 1.0
C      1  0.5347860000000  0.5222690000000  0.5822450000000 1.0
C      1  0.5421160000000  0.5437120000000  0.4816560000000 1.0
C      1  0.5004090000000  0.6013570000000  0.5176330000000 1.0
C      1  0.5398930000000  0.4396670000000  0.4698350000000 1.0
C      1  0.4545560000000  0.5087120000000  0.5794700000000 1.0
C      1  0.4752820000000  0.5554300000000  0.4608160000000 1.0
C      1  0.5706130000000  0.4682000000000  0.5501690000000 1.0
C      1  0.4413070000000  0.4484600000000  0.5351350000000 1.0
C      1  0.5165220000000  0.4226820000000  0.4612720000000 1.0
C      1  0.4382420000000  0.4358190000000  0.4616760000000 1.0
C      1  0.4408440000000  0.5338870000000  0.5738880000000 1.0
C      1  0.4548420000000  0.4810460000000  0.5729010000000 1.0
C      1  0.5001550000000  0.5119840000000  0.5974200000000 1.0
C      1  0.4628340000000  0.4951200000000  0.4373760000000 1.0
C      1  0.4928660000000  0.4557640000000  0.5218420000000 1.0
C      1  0.5069090000000  0.4362870000000  0.5039250000000 1.0
C      1  0.4803830000000  0.5246710000000  0.5789660000000 1.0
C      1  0.4888610000000  0.4949840000000  0.5412660000000 1.0
C      1  0.5227050000000  0.5312190000000  0.5546320000000 1.0
C      1  0.4147650000000  0.5098920000000  0.4999280000000 1.0
C      1  0.5945660000000  0.4754510000000  0.4840830000000 1.0
C      1  0.4980870000000  0.5558790000000  0.4216360000000 1.0
C      1  0.4581690000000  0.5758550000000  0.5348940000000 1.0
C      1  0.5061160000000  0.5128830000000  0.4598080000000 1.0
C      1  0.4964820000000  0.5916090000000  0.4668050000000 1.0
C      1  0.4732110000000  0.5932330000000  0.5150330000000 1.0
C      1  0.4945290000000  0.5232810000000  0.5504330000000 1.0
C      1  0.4997410000000  0.4760750000000  0.4174210000000 1.0
C      1  0.5299650000000  0.5504010000000  0.5090430000000 1.0
C      1  0.5348330000000  0.4427630000000  0.5014940000000 1.0
C      1  0.5139130000000  0.5913310000000  0.5400210000000 1.0
C      1  0.4558460000000  0.5511960000000  0.4389790000000 1.0
C      1  0.5523240000000  0.5663690000000  0.5432740000000 1.0
C      1  0.5017750000000  0.4846480000000  0.5884290000000 1.0
C      1  0.4180080000000  0.4895350000000  0.5435950000000 1.0
C      1  0.5291970000000  0.4676670000000  0.4618440000000 1.0
C      1  0.5716620000000  0.5373960000000  0.4806970000000 1.0
C      1  0.5653570000000  0.4947580000000  0.5586680000000 1.0
C      1  0.4359490000000  0.4691690000000  0.5546450000000 1.0
C      1  0.4564520000000  0.5716390000000  0.4777890000000 1.0
C      1  0.5225790000000  0.5430080000000  0.4160780000000 1.0
C      1  0.4252760000000  0.5197020000000  0.4542910000000 1.0
C      1  0.4619480000000  0.5006630000000  0.5307390000000 1.0
C      1  0.5866990000000  0.5108070000000  0.5176800000000 1.0
C      1  0.4725120000000  0.5411480000000  0.4181600000000 1.0
C      1  0.5499030000000  0.4482240000000  0.5505970000000 1.0
C      1  0.4944300000000  0.4486440000000  0.4168630000000 1.0
C      1  0.5321180000000  0.4729270000000  0.5069090000000 1.0
C      1  0.4744110000000  0.4135170000000  0.4411380000000 1.0
C      1  0.5365320000000  0.5792860000000  0.5226120000000 1.0
C      1  0.4737060000000  0.5132880000000  0.4144580000000 1.0
C      1  0.5129870000000  0.4304910000000  0.4277810000000 1.0
C      1  0.4685220000000  0.4295260000000  0.4872620000000 1.0
C      1  0.4736320000000  0.5708870000000  0.5596270000000 1.0
C      1  0.4252970000000  0.5394280000000  0.5506740000000 1.0
C      1  0.4187920000000  0.4864440000000  0.5156770000000 1.0
C      1  0.5238910000000  0.5895490000000  0.4746400000000 1.0
C      1  0.4840110000000  0.4749000000000  0.5675200000000 1.0
C      1  0.5660410000000  0.5160790000000  0.5380640000000 1.0
C      1  0.4453200000000  0.4485680000000  0.4372510000000 1.0
C      1  0.4124490000000  0.5028340000000  0.4722940000000 1.0
C      1  0.5034560000000  0.4085200000000  0.4408560000000 1.0
C      1  0.4121240000000  0.5153340000000  0.5493830000000 1.0
C      1  0.4860700000000  0.4237850000000  0.5520200000000 1.0
C      1  0.5704710000000  0.5464330000000  0.5335640000000 1.0
C      1  0.4995470000000  0.5684340000000  0.4483990000000 1.0
C      1  0.4249710000000  0.4546980000000  0.4795040000000 1.0
C      1  0.4974270000000  0.4504200000000  0.5551810000000 1.0
C      1  0.4695120000000  0.4140980000000  0.5125490000000 1.0
C      1  0.5872820000000  0.4635590000000  0.5278920000000 1.0
C      1  0.5020140000000  0.5382430000000  0.5040850000000 1.0
C      1  0.5823830000000  0.5374570000000  0.5071310000000 1.0
C      1  0.5778260000000  0.5185990000000  0.4585480000000 1.0
C      1  0.4648450000000  0.4590370000000  0.5019120000000 1.0
C      1  0.5465640000000  0.4963600000000  0.5788540000000 1.0
C      1  0.5398440000000  0.4854760000000  0.4825660000000 1.0
C      1  0.5286560000000  0.5120030000000  0.4800480000000 1.0
C      1  0.5260790000000  0.4539220000000  0.5643290000000 1.0
C      1  0.5276130000000  0.5589780000000  0.5603500000000 1.0
C      1  0.5958260000000  0.4852500000000  0.5107790000000 1.0
C      1  0.4920810000000  0.4859740000000  0.4458090000000 1.0
C      1  0.4342660000000  0.4615120000000  0.5081780000000 1.0
C      1  0.4350540000000  0.5564720000000  0.5295770000000 1.0
C      1  0.4819420000000  0.4816820000000  0.4906660000000 1.0
C      1  0.4971030000000  0.4099900000000  0.5144590000000 1.0
C      1  0.4981530000000  0.4678640000000  0.4686500000000 1.0
C      1  0.4571410000000  0.4155790000000  0.4644850000000 1.0
C      1  0.5178210000000  0.5115120000000  0.5083920000000 1.0
C      1  0.5590870000000  0.5246870000000  0.4377210000000 1.0
C      1  0.4984560000000  0.5014170000000  0.4045520000000 1.0
C      1  0.4319670000000  0.5378530000000  0.5048480000000 1.0
C      1  0.5448240000000  0.5034770000000  0.4237270000000 1.0
C      1  0.5276860000000  0.4755740000000  0.5821540000000 1.0
C      1  0.5225560000000  0.5246920000000  0.6071280000000 1.0
C      1  0.4686550000000  0.5090620000000  0.4851290000000 1.0
C      1  0.4307590000000  0.5463110000000  0.4533050000000 1.0
END
