TITL C-200321-9478-9 22.2688574127149 125000 -743.645881491629 0 0 106 (C1) n - 1
REM
REM in /rds/project/t2_vol4/rds-t2-cs072/BORA/CARBON/from-Arr/AIRSS/Generating-Clusters/GAP-ML-2020/Only-C1/SD-CG/HFTN-CG
REM
REM
REM
REM
REM
REM ./C.cell (11c1c37f851c82e70ff6c80c92926a4b)
REM AIRSS Version 0.9.1 bugfix July 2018 build 013d7b7c2542+ Fri, 06 Jul 2018 19:26:36 +0100
REM compiler GCC version 9.3.0
REM options -cpp -mtune=generic -march=x86-64 -g -O0
REM seed 1406258193 1894376108 -1463434847 483210977 1771259156 1259987460 1049550036 -104414071 -2111850818 -561010117 211722894 -980541505 1369980447 -1155394465 23213970 -1607068988 2093348954 2113978689 838616186 479705128 -747655091 2246597 427134521 -609398389 963845341 -1465223385 -226788254 1845102509 -161670725 564222090 -1973846761 -1622460911 -1324623969
REM
CELL 1.54180   50.00000   50.00000   50.00000   90.00000   90.00000   90.00000
LATT -1
SFAC C  
C      1  0.5293830000000  0.5183660000000  0.4171970000000 1.0
C      1  0.5207460000000  0.5064710000000  0.5354260000000 1.0
C      1  0.5567300000000  0.4783620000000  0.4258920000000 1.0
C      1  0.4458120000000  0.5690650000000  0.4776500000000 1.0
C      1  0.5263250000000  0.4849800000000  0.5802400000000 1.0
C      1  0.5415250000000  0.4352320000000  0.4483030000000 1.0
C      1  0.5795710000000  0.5157420000000  0.5267860000000 1.0
C      1  0.5248480000000  0.4888310000000  0.4918440000000 1.0
C      1  0.4482300000000  0.5126820000000  0.4326030000000 1.0
C      1  0.4742070000000  0.5307340000000  0.4716140000000 1.0
C      1  0.5146530000000  0.5865860000000  0.5267020000000 1.0
C      1  0.4130840000000  0.5077410000000  0.4770230000000 1.0
C      1  0.4130790000000  0.5320910000000  0.4955350000000 1.0
C      1  0.4849320000000  0.4755130000000  0.5284610000000 1.0
C      1  0.4423830000000  0.4729780000000  0.4485120000000 1.0
C      1  0.5574620000000  0.5152560000000  0.5669270000000 1.0
C      1  0.4498020000000  0.4354010000000  0.5431290000000 1.0
C      1  0.5174050000000  0.5865050000000  0.4732850000000 1.0
C      1  0.4842550000000  0.5507190000000  0.4247730000000 1.0
C      1  0.4076080000000  0.4920900000000  0.5192970000000 1.0
C      1  0.4622420000000  0.4876990000000  0.4336120000000 1.0
C      1  0.4728160000000  0.4212960000000  0.5381830000000 1.0
C      1  0.5333420000000  0.5529980000000  0.4395840000000 1.0
C      1  0.5646160000000  0.5323630000000  0.5461660000000 1.0
C      1  0.4558080000000  0.5080810000000  0.4797640000000 1.0
C      1  0.5254790000000  0.5913150000000  0.4997540000000 1.0
C      1  0.4629220000000  0.5423500000000  0.5624140000000 1.0
C      1  0.4738950000000  0.4653110000000  0.5026970000000 1.0
C      1  0.5575510000000  0.5598700000000  0.4811570000000 1.0
C      1  0.5707090000000  0.4723180000000  0.4702770000000 1.0
C      1  0.5511370000000  0.5321960000000  0.4323410000000 1.0
C      1  0.4312960000000  0.5064180000000  0.5564260000000 1.0
C      1  0.5671890000000  0.5194810000000  0.4521190000000 1.0
C      1  0.4859320000000  0.5380900000000  0.4983450000000 1.0
C      1  0.5329890000000  0.4915200000000  0.4146020000000 1.0
C      1  0.5505230000000  0.4710000000000  0.5732660000000 1.0
C      1  0.5394260000000  0.5491890000000  0.5422990000000 1.0
C      1  0.4571580000000  0.5385320000000  0.4296140000000 1.0
C      1  0.5803630000000  0.5141730000000  0.4979060000000 1.0
C      1  0.5378860000000  0.5691150000000  0.4614940000000 1.0
C      1  0.4546850000000  0.5149260000000  0.5716120000000 1.0
C      1  0.4733120000000  0.5224250000000  0.5192890000000 1.0
C      1  0.5300490000000  0.4826490000000  0.5204750000000 1.0
C      1  0.4296130000000  0.5563670000000  0.4975970000000 1.0
C      1  0.5141100000000  0.5359030000000  0.4977560000000 1.0
C      1  0.5497540000000  0.4490900000000  0.4735540000000 1.0
C      1  0.4981590000000  0.5168390000000  0.4564260000000 1.0
C      1  0.4686700000000  0.4322080000000  0.4642970000000 1.0
C      1  0.5274800000000  0.5130910000000  0.5674810000000 1.0
C      1  0.4797510000000  0.5710780000000  0.4455980000000 1.0
C      1  0.4282220000000  0.4593990000000  0.4872790000000 1.0
C      1  0.5105010000000  0.4094870000000  0.5225130000000 1.0
C      1  0.4897190000000  0.5763450000000  0.5364650000000 1.0
C      1  0.5520630000000  0.4318610000000  0.4974530000000 1.0
C      1  0.4901890000000  0.5538530000000  0.5574380000000 1.0
C      1  0.4891880000000  0.5855920000000  0.4681620000000 1.0
C      1  0.5414990000000  0.5752080000000  0.5316410000000 1.0
C      1  0.5816790000000  0.4843820000000  0.4929660000000 1.0
C      1  0.5110720000000  0.4610730000000  0.5275600000000 1.0
C      1  0.5145620000000  0.4452500000000  0.5573800000000 1.0
C      1  0.5289660000000  0.4131920000000  0.5003600000000 1.0
C      1  0.4669080000000  0.5803570000000  0.5180030000000 1.0
C      1  0.4914730000000  0.4385770000000  0.4477280000000 1.0
C      1  0.4573500000000  0.5544260000000  0.4553200000000 1.0
C      1  0.5708240000000  0.5330040000000  0.4776420000000 1.0
C      1  0.5162950000000  0.5420220000000  0.5630640000000 1.0
C      1  0.5056210000000  0.4653430000000  0.5785820000000 1.0
C      1  0.4827530000000  0.4093440000000  0.5131480000000 1.0
C      1  0.5195260000000  0.4643890000000  0.4776780000000 1.0
C      1  0.4399590000000  0.5505740000000  0.5460380000000 1.0
C      1  0.5032970000000  0.4658670000000  0.4472580000000 1.0
C      1  0.4351280000000  0.4570410000000  0.5359140000000 1.0
C      1  0.5153650000000  0.4227380000000  0.4529500000000 1.0
C      1  0.4971790000000  0.4997950000000  0.4980300000000 1.0
C      1  0.5686100000000  0.4426650000000  0.5185660000000 1.0
C      1  0.4112970000000  0.4832030000000  0.4925380000000 1.0
C      1  0.4861760000000  0.4884040000000  0.4523180000000 1.0
C      1  0.4451460000000  0.4540650000000  0.5088440000000 1.0
C      1  0.4757890000000  0.4871970000000  0.4821180000000 1.0
C      1  0.5678360000000  0.4905260000000  0.4489840000000 1.0
C      1  0.4918890000000  0.5024290000000  0.5276880000000 1.0
C      1  0.4506880000000  0.5103110000000  0.5080470000000 1.0
C      1  0.4446010000000  0.4498330000000  0.4642030000000 1.0
C      1  0.5278450000000  0.5301970000000  0.5216950000000 1.0
C      1  0.5504260000000  0.5766050000000  0.5039560000000 1.0
C      1  0.4676260000000  0.4961710000000  0.5870560000000 1.0
C      1  0.4343040000000  0.5018580000000  0.4576750000000 1.0
C      1  0.4679020000000  0.5841560000000  0.4889160000000 1.0
C      1  0.5015170000000  0.4207150000000  0.5478960000000 1.0
C      1  0.4834940000000  0.4164350000000  0.4854840000000 1.0
C      1  0.4069040000000  0.5212690000000  0.5207000000000 1.0
C      1  0.5443490000000  0.4458880000000  0.5612000000000 1.0
C      1  0.5436760000000  0.4525290000000  0.4269480000000 1.0
C      1  0.5814900000000  0.4890460000000  0.5377180000000 1.0
C      1  0.4211190000000  0.5292910000000  0.5437960000000 1.0
C      1  0.5085370000000  0.5351260000000  0.4318540000000 1.0
C      1  0.5178270000000  0.5144040000000  0.4792760000000 1.0
C      1  0.5617140000000  0.4352440000000  0.5439940000000 1.0
C      1  0.5112100000000  0.4107920000000  0.4775510000000 1.0
C      1  0.5815190000000  0.4692460000000  0.5168600000000 1.0
C      1  0.4424670000000  0.5655410000000  0.5224800000000 1.0
C      1  0.4227930000000  0.4822380000000  0.5414520000000 1.0
C      1  0.4820320000000  0.4751790000000  0.5883480000000 1.0
C      1  0.5002580000000  0.4504890000000  0.4981950000000 1.0
C      1  0.5193250000000  0.4670340000000  0.4223530000000 1.0
C      1  0.5693950000000  0.4895560000000  0.5634190000000 1.0
END
