TITL C-20301-208-6 -0.17668158195007 125000 -888.450203995239 0 0 129 (C1) n - 1
REM
REM in /rds/project/t2_vol4/rds-t2-cs072/BORA/CARBON/from-Arr/AIRSS/Generating-Clusters/GAP-ML-2020/Only-C1/SD-CG/HFTN-CG
REM
REM
REM
REM
REM
REM ./C.cell (11c1c37f851c82e70ff6c80c92926a4b)
REM AIRSS Version 0.9.1 bugfix July 2018 build 013d7b7c2542+ Fri, 06 Jul 2018 19:26:36 +0100
REM compiler GCC version 9.3.0
REM options -cpp -mtune=generic -march=x86-64 -g -O0
REM seed 2081801192 -809032314 -385403692 1786406310 1925742303 -964678159 -1950402857 -1486510725 171185367 1978594969 -1578396190 1322490122 -376941965 -638538660 -2139723899 2078647635 -265994694 -321882346 -1166913891 -260096137 -1996298864 -714287684 423640223 -1966320062 565771513 2034460539 -2007501904 1072844073 520974518 1553944936 -1444988235 -1884555307 -778516641
REM
CELL 1.54180   50.00000   50.00000   50.00000   90.00000   90.00000   90.00000
LATT -1
SFAC C  
C      1  0.5674530000000  0.4319300000000  0.5111190000000 1.0
C      1  0.4857520000000  0.4874760000000  0.4085790000000 1.0
C      1  0.5227770000000  0.4230660000000  0.5023370000000 1.0
C      1  0.4225690000000  0.4587040000000  0.5159770000000 1.0
C      1  0.4360670000000  0.4689280000000  0.5609310000000 1.0
C      1  0.5092710000000  0.5245150000000  0.4704080000000 1.0
C      1  0.4627030000000  0.4301210000000  0.5374290000000 1.0
C      1  0.5871580000000  0.4713100000000  0.5279100000000 1.0
C      1  0.5421680000000  0.4824230000000  0.5468090000000 1.0
C      1  0.5499430000000  0.4214340000000  0.4906910000000 1.0
C      1  0.4277460000000  0.5525680000000  0.5107460000000 1.0
C      1  0.4160270000000  0.5372580000000  0.4680400000000 1.0
C      1  0.4581890000000  0.5164610000000  0.5409310000000 1.0
C      1  0.5248930000000  0.5159940000000  0.3985570000000 1.0
C      1  0.4871650000000  0.4302080000000  0.5540940000000 1.0
C      1  0.4751360000000  0.5775450000000  0.4497470000000 1.0
C      1  0.5001140000000  0.5877060000000  0.4879560000000 1.0
C      1  0.5082990000000  0.4752390000000  0.5815270000000 1.0
C      1  0.5398180000000  0.5531660000000  0.4335870000000 1.0
C      1  0.5145590000000  0.4902420000000  0.4014360000000 1.0
C      1  0.5894140000000  0.4641250000000  0.4781000000000 1.0
C      1  0.4373570000000  0.5551410000000  0.4629580000000 1.0
C      1  0.4735020000000  0.4267680000000  0.4409890000000 1.0
C      1  0.5743190000000  0.5473790000000  0.5219370000000 1.0
C      1  0.4121590000000  0.5132120000000  0.4535730000000 1.0
C      1  0.4275340000000  0.5095860000000  0.4297350000000 1.0
C      1  0.4639220000000  0.5376840000000  0.5794870000000 1.0
C      1  0.4829140000000  0.4888610000000  0.5869960000000 1.0
C      1  0.5484250000000  0.5382920000000  0.5308380000000 1.0
C      1  0.5084720000000  0.4519240000000  0.5611880000000 1.0
C      1  0.5548040000000  0.5811450000000  0.4863680000000 1.0
C      1  0.4499190000000  0.4318140000000  0.4883120000000 1.0
C      1  0.5174680000000  0.4742810000000  0.4699400000000 1.0
C      1  0.5298530000000  0.5019700000000  0.4711400000000 1.0
C      1  0.4647680000000  0.4597130000000  0.4925600000000 1.0
C      1  0.4585830000000  0.4936490000000  0.4047880000000 1.0
C      1  0.4931320000000  0.5224670000000  0.4937430000000 1.0
C      1  0.4942910000000  0.4678940000000  0.4914090000000 1.0
C      1  0.4268680000000  0.4598680000000  0.4395350000000 1.0
C      1  0.5311270000000  0.4315590000000  0.5548750000000 1.0
C      1  0.4947300000000  0.4901990000000  0.5327910000000 1.0
C      1  0.5684620000000  0.5231530000000  0.5833740000000 1.0
C      1  0.5869240000000  0.5243160000000  0.5643330000000 1.0
C      1  0.4613100000000  0.4772760000000  0.4475430000000 1.0
C      1  0.4917450000000  0.5165370000000  0.4468640000000 1.0
C      1  0.4581560000000  0.5034900000000  0.4953070000000 1.0
C      1  0.4511500000000  0.5196430000000  0.4158560000000 1.0
C      1  0.4726620000000  0.5361500000000  0.4290480000000 1.0
C      1  0.5921210000000  0.4935290000000  0.4711290000000 1.0
C      1  0.4169720000000  0.4883960000000  0.5522290000000 1.0
C      1  0.4175420000000  0.5130760000000  0.5649060000000 1.0
C      1  0.5647140000000  0.4630390000000  0.5442820000000 1.0
C      1  0.5553190000000  0.4367400000000  0.5385650000000 1.0
C      1  0.4527680000000  0.4466340000000  0.4418190000000 1.0
C      1  0.4154180000000  0.4871320000000  0.5219690000000 1.0
C      1  0.5308490000000  0.4932310000000  0.5735250000000 1.0
C      1  0.4731670000000  0.5611400000000  0.5678820000000 1.0
C      1  0.4878370000000  0.4865460000000  0.4381910000000 1.0
C      1  0.5043500000000  0.5252130000000  0.6100270000000 1.0
C      1  0.4868480000000  0.4033970000000  0.5039440000000 1.0
C      1  0.4391550000000  0.5311170000000  0.5598260000000 1.0
C      1  0.5457430000000  0.4492590000000  0.4174620000000 1.0
C      1  0.4117090000000  0.5333910000000  0.4960490000000 1.0
C      1  0.4565620000000  0.5579310000000  0.4423380000000 1.0
C      1  0.4516380000000  0.5601710000000  0.4877750000000 1.0
C      1  0.4819870000000  0.5875240000000  0.5356830000000 1.0
C      1  0.5404770000000  0.5066800000000  0.5267050000000 1.0
C      1  0.5230890000000  0.5398140000000  0.4125320000000 1.0
C      1  0.5271310000000  0.5504180000000  0.5125440000000 1.0
C      1  0.5477690000000  0.5431160000000  0.5869840000000 1.0
C      1  0.5263670000000  0.4680390000000  0.4168960000000 1.0
C      1  0.5091110000000  0.4651500000000  0.4422570000000 1.0
C      1  0.5447870000000  0.4234390000000  0.4621170000000 1.0
C      1  0.5778090000000  0.5444950000000  0.4714850000000 1.0
C      1  0.4863790000000  0.4942920000000  0.5038210000000 1.0
C      1  0.4549620000000  0.4243490000000  0.4609100000000 1.0
C      1  0.4229000000000  0.4468780000000  0.4903380000000 1.0
C      1  0.5463990000000  0.4964390000000  0.4987410000000 1.0
C      1  0.5246580000000  0.5755350000000  0.4441330000000 1.0
C      1  0.4606590000000  0.4789690000000  0.5711610000000 1.0
C      1  0.4046430000000  0.5044670000000  0.4995700000000 1.0
C      1  0.5050580000000  0.4097780000000  0.4819770000000 1.0
C      1  0.4961730000000  0.5517910000000  0.4176100000000 1.0
C      1  0.5290440000000  0.5477900000000  0.4799080000000 1.0
C      1  0.4352280000000  0.5553230000000  0.5380260000000 1.0
C      1  0.5354340000000  0.5457720000000  0.5599410000000 1.0
C      1  0.4987920000000  0.5748270000000  0.4337660000000 1.0
C      1  0.4412190000000  0.4500280000000  0.5396740000000 1.0
C      1  0.5303840000000  0.5267730000000  0.6054220000000 1.0
C      1  0.4631880000000  0.4176780000000  0.5112310000000 1.0
C      1  0.4719500000000  0.5385460000000  0.5263650000000 1.0
C      1  0.4655110000000  0.5333680000000  0.4964960000000 1.0
C      1  0.5905970000000  0.5247280000000  0.5371980000000 1.0
C      1  0.4737600000000  0.4959750000000  0.5521520000000 1.0
C      1  0.5736420000000  0.4611090000000  0.4537650000000 1.0
C      1  0.5538000000000  0.5387560000000  0.4558400000000 1.0
C      1  0.5475020000000  0.5053890000000  0.5943020000000 1.0
C      1  0.5158300000000  0.4553650000000  0.5088010000000 1.0
C      1  0.4463140000000  0.4960580000000  0.5210500000000 1.0
C      1  0.5250350000000  0.5774280000000  0.5255490000000 1.0
C      1  0.4062410000000  0.4923350000000  0.4732240000000 1.0
C      1  0.5918570000000  0.5219090000000  0.4798260000000 1.0
C      1  0.5147150000000  0.4678070000000  0.5367160000000 1.0
C      1  0.5090150000000  0.4125180000000  0.5490320000000 1.0
C      1  0.4952540000000  0.5785540000000  0.5605780000000 1.0
C      1  0.4384930000000  0.4831910000000  0.4258660000000 1.0
C      1  0.5735370000000  0.4902820000000  0.4490060000000 1.0
C      1  0.5184980000000  0.5206400000000  0.5621330000000 1.0
C      1  0.5863350000000  0.4535320000000  0.5051440000000 1.0
C      1  0.5017570000000  0.5909260000000  0.5154900000000 1.0
C      1  0.4816660000000  0.5179370000000  0.5956260000000 1.0
C      1  0.5729380000000  0.5618580000000  0.4952620000000 1.0
C      1  0.4625360000000  0.5651570000000  0.5400440000000 1.0
C      1  0.5567700000000  0.4412920000000  0.4423630000000 1.0
C      1  0.5003880000000  0.4347980000000  0.4424320000000 1.0
C      1  0.5918810000000  0.4992820000000  0.5227720000000 1.0
C      1  0.5020640000000  0.5346710000000  0.5194080000000 1.0
C      1  0.4214210000000  0.4674960000000  0.4690400000000 1.0
C      1  0.5513320000000  0.5089100000000  0.4520850000000 1.0
C      1  0.5269600000000  0.5780150000000  0.4736320000000 1.0
C      1  0.4520020000000  0.4807720000000  0.4750650000000 1.0
C      1  0.5780750000000  0.5040750000000  0.4972870000000 1.0
C      1  0.5164750000000  0.4177140000000  0.4574090000000 1.0
C      1  0.5217800000000  0.5712650000000  0.5536690000000 1.0
C      1  0.4525600000000  0.4666770000000  0.5192570000000 1.0
C      1  0.5375080000000  0.4683730000000  0.4931710000000 1.0
C      1  0.5090440000000  0.4055580000000  0.5225140000000 1.0
C      1  0.5121350000000  0.5133340000000  0.5352820000000 1.0
C      1  0.4746830000000  0.5807040000000  0.4774000000000 1.0
END
