TITL C-20249-1518-12 0.00319024593518746 125000 -43.7962931013307 0 0 7 (C2v) n - 1
REM
REM in /rds/project/t2_vol4/rds-t2-cs072/BORA/CARBON/from-Arr/AIRSS/Generating-Clusters/GAP-ML-2020/Only-C1/SD-CG/HFTN-CG
REM
REM
REM
REM
REM
REM ./C.cell (11c1c37f851c82e70ff6c80c92926a4b)
REM AIRSS Version 0.9.1 bugfix July 2018 build 013d7b7c2542+ Fri, 06 Jul 2018 19:26:36 +0100
REM compiler GCC version 9.3.0
REM options -cpp -mtune=generic -march=x86-64 -g -O0
REM seed -189540812 -2019533071 -169543752 766466968 1065080905 -820015839 254102350 992697793 836703561 631968620 -1190120619 1826989308 -515331636 1972570883 2140594747 1759000391 627052861 106402224 -1078365030 1468618979 -1837603238 -325693893 2032236264 474683544 -1219077892 23403889 1551725048 -933364743 -2121901741 194948309 -840936564 -1901292057 -1158128935
REM
CELL 1.54180   50.00000   50.00000   50.00000   90.00000   90.00000   90.00000
LATT -1
SFAC C  
C      1  0.4875800000000  0.4778370000000  0.5397570000000 1.0
C      1  0.4809250000000  0.4659630000000  0.5610580000000 1.0
C      1  0.5184280000000  0.5142880000000  0.4497850000000 1.0
C      1  0.5008870000000  0.5015840000000  0.4971590000000 1.0
C      1  0.5078750000000  0.5140510000000  0.4747940000000 1.0
C      1  0.4943680000000  0.4899500000000  0.5180280000000 1.0
C      1  0.5099370000000  0.5363270000000  0.4594190000000 1.0
END
