TITL C-20255-1578-5 -0.106789509977098 125000 -128.165449014651 0 0 20 (C1) n - 1
REM
REM in /rds/project/t2_vol4/rds-t2-cs072/BORA/CARBON/from-Arr/AIRSS/Generating-Clusters/GAP-ML-2020/Only-C1/SD-CG/HFTN-CG
REM
REM
REM
REM
REM
REM ./C.cell (11c1c37f851c82e70ff6c80c92926a4b)
REM AIRSS Version 0.9.1 bugfix July 2018 build 013d7b7c2542+ Fri, 06 Jul 2018 19:26:36 +0100
REM compiler GCC version 9.3.0
REM options -cpp -mtune=generic -march=x86-64 -g -O0
REM seed -1628548717 2089934801 -2112165709 -1553783376 -1173023473 -1508796200 1111522991 -2013351468 705100621 1714684022 -690612871 2139197871 -891157474 1294889426 171763341 -1480163544 1470863154 625250429 -394492659 -710136205 -651489989 -128001821 -1529345025 -1838257265 92101767 -16946042 -212133913 278986932 364824449 2057306230 1164154674 136834398 -1631047109
REM
CELL 1.54180   50.00000   50.00000   50.00000   90.00000   90.00000   90.00000
LATT -1
SFAC C  
C      1  0.4927990000000  0.5067630000000  0.5477240000000 1.0
C      1  0.4815760000000  0.5027700000000  0.4740690000000 1.0
C      1  0.4983030000000  0.5367130000000  0.5033510000000 1.0
C      1  0.5207130000000  0.4579360000000  0.4885240000000 1.0
C      1  0.5251410000000  0.5415560000000  0.4995160000000 1.0
C      1  0.4849710000000  0.5124620000000  0.5002030000000 1.0
C      1  0.4932320000000  0.5164220000000  0.4535720000000 1.0
C      1  0.5350280000000  0.5318160000000  0.4577410000000 1.0
C      1  0.5448450000000  0.5365660000000  0.4811950000000 1.0
C      1  0.4765320000000  0.4744710000000  0.4711690000000 1.0
C      1  0.4551090000000  0.4520410000000  0.5187590000000 1.0
C      1  0.4802670000000  0.4973230000000  0.5243260000000 1.0
C      1  0.5095740000000  0.5309330000000  0.5488190000000 1.0
C      1  0.4959820000000  0.4606150000000  0.4799020000000 1.0
C      1  0.5138840000000  0.5265610000000  0.4426390000000 1.0
C      1  0.5447890000000  0.4542400000000  0.4965590000000 1.0
C      1  0.4683830000000  0.4732700000000  0.5235390000000 1.0
C      1  0.5166580000000  0.5071450000000  0.5625160000000 1.0
C      1  0.4484500000000  0.4350600000000  0.4995830000000 1.0
C      1  0.5137650000000  0.5453370000000  0.5262930000000 1.0
END
