TITL C-20253-2635-9 51.4417780260135 125000 -556.529882639531 0 0 81 (C1) n - 1
REM
REM in /rds/project/t2_vol4/rds-t2-cs072/BORA/CARBON/from-Arr/AIRSS/Generating-Clusters/GAP-ML-2020/Only-C1/SD-CG/HFTN-CG
REM
REM
REM
REM
REM
REM ./C.cell (11c1c37f851c82e70ff6c80c92926a4b)
REM AIRSS Version 0.9.1 bugfix July 2018 build 013d7b7c2542+ Fri, 06 Jul 2018 19:26:36 +0100
REM compiler GCC version 9.3.0
REM options -cpp -mtune=generic -march=x86-64 -g -O0
REM seed -672150806 -800940667 190465026 261974471 -1680675938 531507214 -1966504460 1080411499 -609238818 1691178992 655391370 1304860201 1957203824 -130368363 1771733158 -395924342 -2042112585 902259881 -2067595495 1216246675 -1402312618 538124862 1938280671 742457805 226507183 -733884999 2009640411 -339797083 495915520 -1259809040 1715279151 -426764250 -1916079447
REM
CELL 1.54180   50.00000   50.00000   50.00000   90.00000   90.00000   90.00000
LATT -1
SFAC C  
C      1  0.5664730000000  0.5148850000000  0.5029030000000 1.0
C      1  0.4891760000000  0.5124440000000  0.5539480000000 1.0
C      1  0.4731330000000  0.5071730000000  0.5278010000000 1.0
C      1  0.5666550000000  0.5103960000000  0.4561210000000 1.0
C      1  0.4930860000000  0.5712880000000  0.4925180000000 1.0
C      1  0.4630780000000  0.5307950000000  0.5118440000000 1.0
C      1  0.4240310000000  0.5151360000000  0.5431480000000 1.0
C      1  0.4977700000000  0.5745550000000  0.5217330000000 1.0
C      1  0.5212700000000  0.4891380000000  0.4328120000000 1.0
C      1  0.5599060000000  0.4847700000000  0.4656910000000 1.0
C      1  0.5596570000000  0.4860000000000  0.4972140000000 1.0
C      1  0.4191370000000  0.5242850000000  0.5174360000000 1.0
C      1  0.4401590000000  0.5467900000000  0.4802090000000 1.0
C      1  0.4749470000000  0.4873810000000  0.4852440000000 1.0
C      1  0.5302900000000  0.4269860000000  0.4807110000000 1.0
C      1  0.5263300000000  0.4421940000000  0.4564120000000 1.0
C      1  0.4594280000000  0.5591040000000  0.4621170000000 1.0
C      1  0.4521590000000  0.5558910000000  0.5255930000000 1.0
C      1  0.5164310000000  0.4727280000000  0.4742400000000 1.0
C      1  0.4862440000000  0.5400950000000  0.4957410000000 1.0
C      1  0.5738030000000  0.5273500000000  0.4791230000000 1.0
C      1  0.4520760000000  0.4842190000000  0.5246200000000 1.0
C      1  0.5690170000000  0.4692730000000  0.5222410000000 1.0
C      1  0.4953780000000  0.4562310000000  0.5262990000000 1.0
C      1  0.4653270000000  0.4548560000000  0.5592220000000 1.0
C      1  0.5240960000000  0.5175620000000  0.4765170000000 1.0
C      1  0.4893260000000  0.4613630000000  0.4794340000000 1.0
C      1  0.4595030000000  0.4386360000000  0.5072740000000 1.0
C      1  0.5534790000000  0.5321510000000  0.5216440000000 1.0
C      1  0.5608900000000  0.5502780000000  0.4687450000000 1.0
C      1  0.4920470000000  0.4482210000000  0.5688130000000 1.0
C      1  0.5083950000000  0.4137140000000  0.5286330000000 1.0
C      1  0.5206930000000  0.5472410000000  0.5505530000000 1.0
C      1  0.5472140000000  0.4670760000000  0.5635310000000 1.0
C      1  0.4369680000000  0.4916360000000  0.5488540000000 1.0
C      1  0.5104120000000  0.4983500000000  0.4600500000000 1.0
C      1  0.5419420000000  0.5645960000000  0.4838940000000 1.0
C      1  0.4463520000000  0.4902550000000  0.4933890000000 1.0
C      1  0.4927880000000  0.5429310000000  0.5547340000000 1.0
C      1  0.5381140000000  0.4691820000000  0.4521670000000 1.0
C      1  0.4663930000000  0.5781750000000  0.4833780000000 1.0
C      1  0.4647040000000  0.4572680000000  0.5301080000000 1.0
C      1  0.5066730000000  0.5217890000000  0.4971910000000 1.0
C      1  0.4806150000000  0.5002660000000  0.4568100000000 1.0
C      1  0.5007640000000  0.4729860000000  0.5796230000000 1.0
C      1  0.4400210000000  0.4438130000000  0.4896700000000 1.0
C      1  0.4388930000000  0.5203540000000  0.4955510000000 1.0
C      1  0.5098520000000  0.4214780000000  0.5009590000000 1.0
C      1  0.4805630000000  0.5499590000000  0.4457700000000 1.0
C      1  0.5315930000000  0.4724710000000  0.4998660000000 1.0
C      1  0.4543160000000  0.4611710000000  0.4491700000000 1.0
C      1  0.5160460000000  0.5702870000000  0.4729820000000 1.0
C      1  0.5675940000000  0.4798470000000  0.5471180000000 1.0
C      1  0.5026090000000  0.4375070000000  0.4424820000000 1.0
C      1  0.5092220000000  0.5577330000000  0.4482660000000 1.0
C      1  0.4932050000000  0.5138260000000  0.4152270000000 1.0
C      1  0.5437260000000  0.5579750000000  0.5120520000000 1.0
C      1  0.4793250000000  0.4930480000000  0.5754420000000 1.0
C      1  0.5253370000000  0.4832450000000  0.5700800000000 1.0
C      1  0.4457660000000  0.5680520000000  0.4998530000000 1.0
C      1  0.5543520000000  0.4434780000000  0.5250490000000 1.0
C      1  0.5117200000000  0.4807720000000  0.5209770000000 1.0
C      1  0.4784770000000  0.5625670000000  0.5392280000000 1.0
C      1  0.4402050000000  0.4668830000000  0.4744130000000 1.0
C      1  0.5396870000000  0.4435030000000  0.5010820000000 1.0
C      1  0.5546660000000  0.5352990000000  0.4449040000000 1.0
C      1  0.5207100000000  0.5172040000000  0.4192650000000 1.0
C      1  0.5362980000000  0.5243450000000  0.5434890000000 1.0
C      1  0.4730100000000  0.4789600000000  0.4380370000000 1.0
C      1  0.4941580000000  0.4845270000000  0.4194740000000 1.0
C      1  0.5387920000000  0.4436910000000  0.5493050000000 1.0
C      1  0.5294620000000  0.5404370000000  0.4334480000000 1.0
C      1  0.5235140000000  0.5664120000000  0.5298120000000 1.0
C      1  0.4777400000000  0.5234840000000  0.4367900000000 1.0
C      1  0.5184400000000  0.5003130000000  0.5470830000000 1.0
C      1  0.4888070000000  0.4414880000000  0.5000610000000 1.0
C      1  0.5095910000000  0.4366890000000  0.5465650000000 1.0
C      1  0.4276880000000  0.5427350000000  0.5364630000000 1.0
C      1  0.4552450000000  0.4798160000000  0.5687380000000 1.0
C      1  0.4803100000000  0.4504490000000  0.4536580000000 1.0
C      1  0.4927330000000  0.4985430000000  0.5073850000000 1.0
END
