TITL C-20654-1223-3 -0.441431428505331 125000 -491.790713218123 0 0 71 (C1) n - 1
REM
REM in /rds/project/t2_vol4/rds-t2-cs072/BORA/CARBON/from-Arr/AIRSS/Generating-Clusters/GAP-ML-2020/Only-C1/SD-CG/HFTN-CG
REM
REM
REM
REM
REM
REM ./C.cell (11c1c37f851c82e70ff6c80c92926a4b)
REM AIRSS Version 0.9.1 bugfix July 2018 build 013d7b7c2542+ Fri, 06 Jul 2018 19:26:36 +0100
REM compiler GCC version 9.3.0
REM options -cpp -mtune=generic -march=x86-64 -g -O0
REM seed -1542055966 -1094314005 -701270635 1161174124 -497633769 -2115180317 -1058351761 1297649073 688382582 -809032670 930634023 -1816563717 -1266023499 1143927820 -667221244 -998489381 -1466890976 1503825284 -1814099785 -1989652501 -1005941214 -671494216 403535944 74742022 -1332431971 1243531125 1380782255 282319191 -813719633 -1659964044 2076508596 -31182329 -74537681
REM
CELL 1.54180   50.00000   50.00000   50.00000   90.00000   90.00000   90.00000
LATT -1
SFAC C  
C      1  0.4719260000000  0.4990980000000  0.5409730000000 1.0
C      1  0.4597040000000  0.5526670000000  0.4717450000000 1.0
C      1  0.5092600000000  0.5080150000000  0.5769060000000 1.0
C      1  0.4507740000000  0.5364750000000  0.5419960000000 1.0
C      1  0.5506800000000  0.5361910000000  0.5252640000000 1.0
C      1  0.5708010000000  0.4823770000000  0.5156710000000 1.0
C      1  0.4729780000000  0.4696130000000  0.5692660000000 1.0
C      1  0.5031920000000  0.4365050000000  0.5508930000000 1.0
C      1  0.5056540000000  0.4316880000000  0.5001510000000 1.0
C      1  0.4826960000000  0.4938000000000  0.4954050000000 1.0
C      1  0.5561460000000  0.4599060000000  0.5041920000000 1.0
C      1  0.5331430000000  0.4523220000000  0.5198710000000 1.0
C      1  0.4950010000000  0.5353470000000  0.5179020000000 1.0
C      1  0.4376770000000  0.5093580000000  0.4778630000000 1.0
C      1  0.4767740000000  0.4457260000000  0.5520780000000 1.0
C      1  0.4741050000000  0.5748970000000  0.4766210000000 1.0
C      1  0.5430700000000  0.5388680000000  0.5538490000000 1.0
C      1  0.5326680000000  0.4981590000000  0.5368200000000 1.0
C      1  0.4591350000000  0.4846350000000  0.4734890000000 1.0
C      1  0.5173300000000  0.4297010000000  0.5259040000000 1.0
C      1  0.4465890000000  0.5140040000000  0.4494230000000 1.0
C      1  0.5604990000000  0.4906420000000  0.5386760000000 1.0
C      1  0.4211050000000  0.4942830000000  0.4962160000000 1.0
C      1  0.5238760000000  0.4683730000000  0.4375560000000 1.0
C      1  0.5267780000000  0.5103460000000  0.4906000000000 1.0
C      1  0.5256260000000  0.4964030000000  0.4275970000000 1.0
C      1  0.5182880000000  0.5663250000000  0.4665210000000 1.0
C      1  0.5126870000000  0.5731210000000  0.5393230000000 1.0
C      1  0.5387720000000  0.5414320000000  0.4402140000000 1.0
C      1  0.4962620000000  0.4611890000000  0.4364370000000 1.0
C      1  0.4978030000000  0.5329160000000  0.5657950000000 1.0
C      1  0.4458020000000  0.4592680000000  0.4766330000000 1.0
C      1  0.4783230000000  0.5231170000000  0.4975830000000 1.0
C      1  0.5115480000000  0.5496840000000  0.4431030000000 1.0
C      1  0.4784800000000  0.5278450000000  0.5436250000000 1.0
C      1  0.5468490000000  0.5563150000000  0.4652080000000 1.0
C      1  0.4677850000000  0.4522070000000  0.5248880000000 1.0
C      1  0.5247450000000  0.5214420000000  0.5165370000000 1.0
C      1  0.4861130000000  0.4804540000000  0.5225120000000 1.0
C      1  0.5128070000000  0.4620200000000  0.5602780000000 1.0
C      1  0.5015380000000  0.5651860000000  0.5159420000000 1.0
C      1  0.5574900000000  0.4638150000000  0.4759770000000 1.0
C      1  0.5766830000000  0.5030170000000  0.4970410000000 1.0
C      1  0.4774890000000  0.4358050000000  0.5017870000000 1.0
C      1  0.4996230000000  0.5743520000000  0.4878730000000 1.0
C      1  0.4357510000000  0.5318250000000  0.5206500000000 1.0
C      1  0.5701730000000  0.5320960000000  0.5038550000000 1.0
C      1  0.4989720000000  0.5069360000000  0.4249860000000 1.0
C      1  0.4643270000000  0.5358920000000  0.4481300000000 1.0
C      1  0.4590470000000  0.4892440000000  0.4438930000000 1.0
C      1  0.5711540000000  0.4899150000000  0.4712110000000 1.0
C      1  0.5166080000000  0.4741440000000  0.5331640000000 1.0
C      1  0.4898470000000  0.4431430000000  0.4577440000000 1.0
C      1  0.5667430000000  0.5483070000000  0.4815390000000 1.0
C      1  0.5065910000000  0.4969100000000  0.4816370000000 1.0
C      1  0.5470120000000  0.5146780000000  0.4346710000000 1.0
C      1  0.4346250000000  0.4843460000000  0.5396660000000 1.0
C      1  0.4233350000000  0.5054520000000  0.5225730000000 1.0
C      1  0.5679050000000  0.5052190000000  0.4496380000000 1.0
C      1  0.4539910000000  0.4873950000000  0.5597910000000 1.0
C      1  0.4674090000000  0.4407910000000  0.4761090000000 1.0
C      1  0.5140100000000  0.4386380000000  0.4724840000000 1.0
C      1  0.4398060000000  0.4614970000000  0.5232080000000 1.0
C      1  0.4986710000000  0.4807640000000  0.5770520000000 1.0
C      1  0.5186710000000  0.5521270000000  0.5564800000000 1.0
C      1  0.4284870000000  0.4652010000000  0.4980800000000 1.0
C      1  0.4813450000000  0.4846630000000  0.4282350000000 1.0
C      1  0.4496540000000  0.5324850000000  0.4929120000000 1.0
C      1  0.5337070000000  0.5126690000000  0.5627570000000 1.0
C      1  0.4900440000000  0.5331570000000  0.4352630000000 1.0
C      1  0.5358420000000  0.4535950000000  0.4600670000000 1.0
END
