TITL C-20235-1135-7 0.130135200874979 125000 -843.400984534449 0 0 121 (C1) n - 1
REM
REM in /rds/project/t2_vol4/rds-t2-cs072/BORA/CARBON/from-Arr/AIRSS/Generating-Clusters/GAP-ML-2020/Only-C1/SD-CG/HFTN-CG
REM
REM
REM
REM
REM
REM ./C.cell (11c1c37f851c82e70ff6c80c92926a4b)
REM AIRSS Version 0.9.1 bugfix July 2018 build 013d7b7c2542+ Fri, 06 Jul 2018 19:26:36 +0100
REM compiler GCC version 9.3.0
REM options -cpp -mtune=generic -march=x86-64 -g -O0
REM seed -1498632062 898032854 1865464907 -238586371 1726182349 -1597367197 -628969437 709545359 1329561441 -1968392221 -475246451 -1335637325 767437643 -678020872 1205711946 224265332 981270703 -2074643672 1095960880 -115547174 1537746221 -1390777880 270651341 1826573540 714681693 1557812257 -1976282461 1891341494 1033043332 51852476 -570022977 1242837462 945518383
REM
CELL 1.54180   50.00000   50.00000   50.00000   90.00000   90.00000   90.00000
LATT -1
SFAC C  
C      1  0.4733200000000  0.4903870000000  0.4699860000000 1.0
C      1  0.5333710000000  0.5642900000000  0.5077570000000 1.0
C      1  0.4488330000000  0.5612200000000  0.4489960000000 1.0
C      1  0.4888060000000  0.4647370000000  0.5006890000000 1.0
C      1  0.3985400000000  0.4971400000000  0.4990010000000 1.0
C      1  0.4488810000000  0.4328050000000  0.5193660000000 1.0
C      1  0.5415720000000  0.4176700000000  0.4941770000000 1.0
C      1  0.5965830000000  0.5155280000000  0.4893590000000 1.0
C      1  0.4752120000000  0.5739600000000  0.4463320000000 1.0
C      1  0.5791420000000  0.4484860000000  0.5125980000000 1.0
C      1  0.5311590000000  0.4933690000000  0.4152020000000 1.0
C      1  0.5601580000000  0.5524880000000  0.5456510000000 1.0
C      1  0.5015040000000  0.4855330000000  0.5956910000000 1.0
C      1  0.5075970000000  0.4592030000000  0.5900730000000 1.0
C      1  0.4693240000000  0.4609040000000  0.4805070000000 1.0
C      1  0.4912880000000  0.4369640000000  0.5809490000000 1.0
C      1  0.5628390000000  0.4762990000000  0.5663480000000 1.0
C      1  0.5213110000000  0.5362790000000  0.4981080000000 1.0
C      1  0.4365070000000  0.5397580000000  0.5579950000000 1.0
C      1  0.4880890000000  0.4086490000000  0.4958480000000 1.0
C      1  0.5223570000000  0.5055950000000  0.5896120000000 1.0
C      1  0.4130360000000  0.4800420000000  0.5470030000000 1.0
C      1  0.4424620000000  0.4832580000000  0.5102790000000 1.0
C      1  0.4886290000000  0.5861090000000  0.5274480000000 1.0
C      1  0.4524280000000  0.5020220000000  0.5810830000000 1.0
C      1  0.4495010000000  0.4399370000000  0.5465680000000 1.0
C      1  0.5097160000000  0.5294710000000  0.4710630000000 1.0
C      1  0.4477960000000  0.4078830000000  0.4810370000000 1.0
C      1  0.4761670000000  0.5159990000000  0.5097430000000 1.0
C      1  0.5328280000000  0.5871980000000  0.4685680000000 1.0
C      1  0.4084160000000  0.5037780000000  0.4743780000000 1.0
C      1  0.5933160000000  0.4610110000000  0.5324570000000 1.0
C      1  0.4920180000000  0.5907890000000  0.4994020000000 1.0
C      1  0.4571880000000  0.4878240000000  0.5379530000000 1.0
C      1  0.4799590000000  0.4394960000000  0.4581910000000 1.0
C      1  0.5462980000000  0.4304640000000  0.5391930000000 1.0
C      1  0.5094520000000  0.4841180000000  0.5463280000000 1.0
C      1  0.5108040000000  0.5132830000000  0.5550010000000 1.0
C      1  0.5056810000000  0.5448360000000  0.4147250000000 1.0
C      1  0.4284620000000  0.4585090000000  0.5554550000000 1.0
C      1  0.5211480000000  0.4591430000000  0.5634700000000 1.0
C      1  0.5659940000000  0.5617690000000  0.4489970000000 1.0
C      1  0.4436300000000  0.4544590000000  0.4979730000000 1.0
C      1  0.5396780000000  0.4686120000000  0.4262600000000 1.0
C      1  0.4804110000000  0.4762340000000  0.5527810000000 1.0
C      1  0.4155030000000  0.4965760000000  0.5221150000000 1.0
C      1  0.5416520000000  0.4290220000000  0.4679430000000 1.0
C      1  0.4228270000000  0.4586070000000  0.4540540000000 1.0
C      1  0.5038960000000  0.4348370000000  0.5548630000000 1.0
C      1  0.5136190000000  0.4201150000000  0.5058210000000 1.0
C      1  0.5232760000000  0.5796510000000  0.4418430000000 1.0
C      1  0.4413060000000  0.5170560000000  0.4252880000000 1.0
C      1  0.4276200000000  0.5506290000000  0.5186280000000 1.0
C      1  0.4369560000000  0.4855780000000  0.5615810000000 1.0
C      1  0.4308150000000  0.5509410000000  0.4906770000000 1.0
C      1  0.5799510000000  0.5369820000000  0.4499900000000 1.0
C      1  0.4858900000000  0.5648160000000  0.5630660000000 1.0
C      1  0.4305570000000  0.4910950000000  0.4303730000000 1.0
C      1  0.4767880000000  0.4885020000000  0.5806170000000 1.0
C      1  0.5316880000000  0.5599550000000  0.5380760000000 1.0
C      1  0.5126050000000  0.4501570000000  0.4924190000000 1.0
C      1  0.5046240000000  0.5259720000000  0.5793750000000 1.0
C      1  0.4664220000000  0.5763270000000  0.5444480000000 1.0
C      1  0.5127500000000  0.4402550000000  0.4588860000000 1.0
C      1  0.5080560000000  0.5747700000000  0.5467150000000 1.0
C      1  0.5444070000000  0.5640370000000  0.4310550000000 1.0
C      1  0.5337110000000  0.4707560000000  0.4965680000000 1.0
C      1  0.4904140000000  0.5199560000000  0.4093450000000 1.0
C      1  0.5348930000000  0.5156830000000  0.5149990000000 1.0
C      1  0.4758330000000  0.4468670000000  0.5575500000000 1.0
C      1  0.5455250000000  0.5171580000000  0.4198870000000 1.0
C      1  0.5337670000000  0.5425940000000  0.4154570000000 1.0
C      1  0.5846680000000  0.4819130000000  0.5483720000000 1.0
C      1  0.4938690000000  0.4668940000000  0.4219440000000 1.0
C      1  0.5738520000000  0.4930410000000  0.4865130000000 1.0
C      1  0.5031550000000  0.5004570000000  0.4729510000000 1.0
C      1  0.5164840000000  0.4542980000000  0.4336210000000 1.0
C      1  0.5211780000000  0.4890920000000  0.5181690000000 1.0
C      1  0.5580560000000  0.4946240000000  0.4604500000000 1.0
C      1  0.4959750000000  0.4930830000000  0.5040350000000 1.0
C      1  0.4603810000000  0.5158920000000  0.5334120000000 1.0
C      1  0.5594560000000  0.5757420000000  0.4729930000000 1.0
C      1  0.5868610000000  0.5264220000000  0.5157520000000 1.0
C      1  0.5675370000000  0.4637060000000  0.4907360000000 1.0
C      1  0.5315750000000  0.5281570000000  0.5416000000000 1.0
C      1  0.4542770000000  0.5301600000000  0.5779100000000 1.0
C      1  0.5496890000000  0.5014180000000  0.5762710000000 1.0
C      1  0.4700990000000  0.4541820000000  0.4320090000000 1.0
C      1  0.5193130000000  0.4216120000000  0.5351590000000 1.0
C      1  0.5590330000000  0.4684450000000  0.4461100000000 1.0
C      1  0.4236950000000  0.4422360000000  0.4774070000000 1.0
C      1  0.4608930000000  0.4096230000000  0.5075640000000 1.0
C      1  0.5778170000000  0.5082060000000  0.5382380000000 1.0
C      1  0.5998300000000  0.5318940000000  0.4687690000000 1.0
C      1  0.4319760000000  0.5245640000000  0.4748940000000 1.0
C      1  0.4427440000000  0.4643290000000  0.4327470000000 1.0
C      1  0.4466620000000  0.5695050000000  0.4764260000000 1.0
C      1  0.5297290000000  0.4883610000000  0.4729780000000 1.0
C      1  0.4374210000000  0.5352590000000  0.4471910000000 1.0
C      1  0.4635660000000  0.5199340000000  0.4100880000000 1.0
C      1  0.4295330000000  0.5240030000000  0.5322280000000 1.0
C      1  0.4412210000000  0.5630880000000  0.5414920000000 1.0
C      1  0.5192610000000  0.5867620000000  0.4931810000000 1.0
C      1  0.4125150000000  0.4858690000000  0.4523570000000 1.0
C      1  0.5616930000000  0.5672720000000  0.5003990000000 1.0
C      1  0.5599930000000  0.4261990000000  0.5147190000000 1.0
C      1  0.4815240000000  0.5421910000000  0.5793870000000 1.0
C      1  0.5614320000000  0.4488120000000  0.4653740000000 1.0
C      1  0.5482190000000  0.4518170000000  0.5595360000000 1.0
C      1  0.5032110000000  0.4934060000000  0.4114630000000 1.0
C      1  0.4859880000000  0.5463410000000  0.4771040000000 1.0
C      1  0.5636410000000  0.5155690000000  0.4411410000000 1.0
C      1  0.5758700000000  0.5528650000000  0.5213320000000 1.0
C      1  0.4760070000000  0.5766280000000  0.4770480000000 1.0
C      1  0.4984180000000  0.5690600000000  0.4306570000000 1.0
C      1  0.4913150000000  0.5394270000000  0.5047440000000 1.0
C      1  0.4551460000000  0.5046550000000  0.4890910000000 1.0
C      1  0.5631500000000  0.5072110000000  0.5107380000000 1.0
C      1  0.4223600000000  0.4142410000000  0.4763240000000 1.0
C      1  0.5588390000000  0.5220980000000  0.5562630000000 1.0
C      1  0.4741070000000  0.4130330000000  0.4698720000000 1.0
END
