TITL C-200318-9389-11 11.1037982996625 125000 -368.716368722587 0 0 54 (C1) n - 1
REM
REM in /rds/project/t2_vol4/rds-t2-cs072/BORA/CARBON/from-Arr/AIRSS/Generating-Clusters/GAP-ML-2020/Only-C1/SD-CG/HFTN-CG
REM
REM
REM
REM
REM
REM ./C.cell (11c1c37f851c82e70ff6c80c92926a4b)
REM AIRSS Version 0.9.1 bugfix July 2018 build 013d7b7c2542+ Fri, 06 Jul 2018 19:26:36 +0100
REM compiler GCC version 9.3.0
REM options -cpp -mtune=generic -march=x86-64 -g -O0
REM seed 243552478 1699566378 -398749342 155966729 -104466565 -393166839 826077295 1128515063 -211244928 1591129915 -640104927 731487529 -1136880864 637971536 332025190 -1127093972 1692966144 -154053411 823586986 1725265708 642823126 -1868207245 473110180 -850880884 -839978024 -1186969324 -1709250872 -1557611906 -1660881545 1008222474 2118604786 936417380 1631203667
REM
CELL 1.54180   50.00000   50.00000   50.00000   90.00000   90.00000   90.00000
LATT -1
SFAC C  
C      1  0.4856110000000  0.4987310000000  0.5627870000000 1.0
C      1  0.5542020000000  0.5459570000000  0.4731100000000 1.0
C      1  0.5048560000000  0.4777840000000  0.5630090000000 1.0
C      1  0.5088100000000  0.5665130000000  0.5427210000000 1.0
C      1  0.5398130000000  0.5103390000000  0.5061870000000 1.0
C      1  0.5606760000000  0.4755010000000  0.4695910000000 1.0
C      1  0.5397580000000  0.4417390000000  0.4938780000000 1.0
C      1  0.4628640000000  0.4648430000000  0.4622130000000 1.0
C      1  0.4953960000000  0.5237550000000  0.5140240000000 1.0
C      1  0.4388920000000  0.5459740000000  0.4985640000000 1.0
C      1  0.5132650000000  0.4326720000000  0.4941940000000 1.0
C      1  0.4389980000000  0.5184260000000  0.5080080000000 1.0
C      1  0.4767760000000  0.4451990000000  0.4769750000000 1.0
C      1  0.5356690000000  0.4639300000000  0.5369180000000 1.0
C      1  0.5620420000000  0.5201340000000  0.4761580000000 1.0
C      1  0.5204650000000  0.5580070000000  0.5199760000000 1.0
C      1  0.5440270000000  0.4532710000000  0.4672690000000 1.0
C      1  0.4432450000000  0.5388180000000  0.4716200000000 1.0
C      1  0.4867840000000  0.5307670000000  0.4556190000000 1.0
C      1  0.4827050000000  0.4509860000000  0.5315220000000 1.0
C      1  0.5519870000000  0.4583970000000  0.5139740000000 1.0
C      1  0.5105690000000  0.5620910000000  0.4923550000000 1.0
C      1  0.5256630000000  0.5160890000000  0.5502490000000 1.0
C      1  0.4586220000000  0.4672510000000  0.5357910000000 1.0
C      1  0.5144840000000  0.5300800000000  0.4529100000000 1.0
C      1  0.5189450000000  0.4546990000000  0.4535980000000 1.0
C      1  0.5090270000000  0.4803510000000  0.4447390000000 1.0
C      1  0.5076260000000  0.4556580000000  0.5454870000000 1.0
C      1  0.4620460000000  0.4939470000000  0.5469850000000 1.0
C      1  0.5006190000000  0.5233650000000  0.5627990000000 1.0
C      1  0.4534210000000  0.5168430000000  0.5321290000000 1.0
C      1  0.5237790000000  0.4908720000000  0.4927700000000 1.0
C      1  0.4905400000000  0.5480820000000  0.5529030000000 1.0
C      1  0.4253650000000  0.4650820000000  0.4953690000000 1.0
C      1  0.4819970000000  0.5639930000000  0.4875780000000 1.0
C      1  0.5268310000000  0.5496370000000  0.4713260000000 1.0
C      1  0.4909660000000  0.4502750000000  0.5038420000000 1.0
C      1  0.4814070000000  0.4836270000000  0.4510390000000 1.0
C      1  0.5528940000000  0.5002340000000  0.4573500000000 1.0
C      1  0.4466480000000  0.5077590000000  0.4773740000000 1.0
C      1  0.4739560000000  0.5390850000000  0.5295000000000 1.0
C      1  0.5018920000000  0.4359670000000  0.4669050000000 1.0
C      1  0.5303020000000  0.4877190000000  0.5540630000000 1.0
C      1  0.4698310000000  0.5512550000000  0.4644810000000 1.0
C      1  0.5023220000000  0.4797810000000  0.5044480000000 1.0
C      1  0.5252140000000  0.5277840000000  0.5228760000000 1.0
C      1  0.4632940000000  0.5577940000000  0.5092560000000 1.0
C      1  0.5262080000000  0.5040420000000  0.4473900000000 1.0
C      1  0.4761190000000  0.5067090000000  0.4682830000000 1.0
C      1  0.4892090000000  0.5023190000000  0.4967870000000 1.0
C      1  0.4371400000000  0.4631870000000  0.5179860000000 1.0
C      1  0.4403710000000  0.4788420000000  0.4748710000000 1.0
C      1  0.5683510000000  0.4777870000000  0.4974750000000 1.0
C      1  0.5674990000000  0.5060490000000  0.5007690000000 1.0
END
