TITL C-20280-1141-7 -354.11128947108 125000 -345.085854419794 0 0 50 (C1) n - 1
REM
REM in /rds/project/t2_vol4/rds-t2-cs072/BORA/CARBON/from-Arr/AIRSS/Generating-Clusters/GAP-ML-2020/Only-C1/SD-CG/HFTN-CG
REM
REM
REM
REM
REM
REM ./C.cell (11c1c37f851c82e70ff6c80c92926a4b)
REM AIRSS Version 0.9.1 bugfix July 2018 build 013d7b7c2542+ Fri, 06 Jul 2018 19:26:36 +0100
REM compiler GCC version 9.3.0
REM options -cpp -mtune=generic -march=x86-64 -g -O0
REM seed 1113272735 237180714 2076597556 -690457666 -86539549 -916643449 2082456 1617271359 162114275 839999634 -1165261928 -2023204625 1240308746 -261953081 395091805 2140460950 458777992 1438578215 1702748274 -1222929064 -1378944800 391063255 -1511136881 -1576704012 966564681 -1427761257 -1317161627 2144106922 -1856093668 931497840 -1666112156 546379297 1659407824
REM
CELL 1.54180   50.00000   50.00000   50.00000   90.00000   90.00000   90.00000
LATT -1
SFAC C  
C      1  0.5107590000000  0.5565510000000  0.4860150000000 1.0
C      1  0.5219630000000  0.5475970000000  0.5585240000000 1.0
C      1  0.5289110000000  0.4562730000000  0.5252960000000 1.0
C      1  0.5573370000000  0.5402500000000  0.4979100000000 1.0
C      1  0.4470030000000  0.4976240000000  0.5445540000000 1.0
C      1  0.5541920000000  0.4699620000000  0.4605990000000 1.0
C      1  0.4436040000000  0.4957630000000  0.4672270000000 1.0
C      1  0.4786640000000  0.4623600000000  0.5428840000000 1.0
C      1  0.5453750000000  0.4797850000000  0.5319500000000 1.0
C      1  0.5254180000000  0.5057910000000  0.4422720000000 1.0
C      1  0.4986600000000  0.5142560000000  0.4346960000000 1.0
C      1  0.5118020000000  0.4572390000000  0.4482280000000 1.0
C      1  0.4979000000000  0.4841690000000  0.4861320000000 1.0
C      1  0.5364050000000  0.5439010000000  0.4784460000000 1.0
C      1  0.4901470000000  0.4415020000000  0.5019250000000 1.0
C      1  0.5069980000000  0.5624960000000  0.5138420000000 1.0
C      1  0.5532700000000  0.5492400000000  0.5251400000000 1.0
C      1  0.5281140000000  0.5588120000000  0.5335800000000 1.0
C      1  0.5555670000000  0.4662950000000  0.4871280000000 1.0
C      1  0.4796020000000  0.4919970000000  0.4368310000000 1.0
C      1  0.5333490000000  0.4768750000000  0.4438530000000 1.0
C      1  0.4617890000000  0.4498920000000  0.4996830000000 1.0
C      1  0.4843350000000  0.5481100000000  0.4744850000000 1.0
C      1  0.5149830000000  0.4313270000000  0.4578360000000 1.0
C      1  0.4885310000000  0.5061560000000  0.4978970000000 1.0
C      1  0.4286230000000  0.4826120000000  0.5034450000000 1.0
C      1  0.4595940000000  0.5095090000000  0.4496370000000 1.0
C      1  0.5145850000000  0.5059310000000  0.4898240000000 1.0
C      1  0.5415680000000  0.5050760000000  0.5464310000000 1.0
C      1  0.5620800000000  0.4856730000000  0.5085160000000 1.0
C      1  0.4891470000000  0.5144780000000  0.5555910000000 1.0
C      1  0.4552080000000  0.4558670000000  0.5271700000000 1.0
C      1  0.4323180000000  0.5082310000000  0.4912720000000 1.0
C      1  0.5006540000000  0.4498740000000  0.5280500000000 1.0
C      1  0.4442790000000  0.5294120000000  0.5057990000000 1.0
C      1  0.5309280000000  0.5185650000000  0.4666900000000 1.0
C      1  0.5176040000000  0.5195230000000  0.5565750000000 1.0
C      1  0.4808600000000  0.5536850000000  0.5208440000000 1.0
C      1  0.5678490000000  0.5135820000000  0.5082150000000 1.0
C      1  0.5135430000000  0.4374100000000  0.4844530000000 1.0
C      1  0.4797050000000  0.5314710000000  0.4513990000000 1.0
C      1  0.5364340000000  0.4479370000000  0.4990840000000 1.0
C      1  0.4732630000000  0.5355460000000  0.5421870000000 1.0
C      1  0.4483430000000  0.5239710000000  0.5337150000000 1.0
C      1  0.4657430000000  0.5474730000000  0.4972340000000 1.0
C      1  0.5606820000000  0.5228840000000  0.5350230000000 1.0
C      1  0.4446950000000  0.4685210000000  0.4828170000000 1.0
C      1  0.4887910000000  0.4725520000000  0.4554110000000 1.0
C      1  0.4735320000000  0.4896330000000  0.5540400000000 1.0
C      1  0.4352960000000  0.4763570000000  0.5296470000000 1.0
END
