TITL C-20264-1477-8 293.901198884263 125000 -673.707254157355 0 0 97 (C1) n - 1
REM
REM in /rds/project/t2_vol4/rds-t2-cs072/BORA/CARBON/from-Arr/AIRSS/Generating-Clusters/GAP-ML-2020/Only-C1/SD-CG/HFTN-CG
REM
REM
REM
REM
REM
REM ./C.cell (11c1c37f851c82e70ff6c80c92926a4b)
REM AIRSS Version 0.9.1 bugfix July 2018 build 013d7b7c2542+ Fri, 06 Jul 2018 19:26:36 +0100
REM compiler GCC version 9.3.0
REM options -cpp -mtune=generic -march=x86-64 -g -O0
REM seed 122751049 193772267 -4942986 -1136404482 1689474755 -1391591474 783700130 -1939273624 -1430957136 -2050732780 1355895730 253741345 -1114351175 357979304 -1957369435 -1403732620 -2121110306 745503853 -1783468484 -1529592544 -82641612 -1784709879 1870931082 -1172247457 1487815073 2075553475 1710866779 -2044352191 -524613965 -539374919 -586593532 104112317 2042727486
REM
CELL 1.54180   50.00000   50.00000   50.00000   90.00000   90.00000   90.00000
LATT -1
SFAC C  
C      1  0.5352840000000  0.5063880000000  0.5047070000000 1.0
C      1  0.4877750000000  0.5345640000000  0.5165350000000 1.0
C      1  0.5180360000000  0.5423410000000  0.4336900000000 1.0
C      1  0.4587250000000  0.5509270000000  0.5491400000000 1.0
C      1  0.5552220000000  0.4371950000000  0.4700370000000 1.0
C      1  0.5410750000000  0.5166370000000  0.5738850000000 1.0
C      1  0.5610690000000  0.4472940000000  0.4943490000000 1.0
C      1  0.5063940000000  0.4806830000000  0.4686900000000 1.0
C      1  0.4172980000000  0.4689310000000  0.4993020000000 1.0
C      1  0.5205590000000  0.4861810000000  0.4942440000000 1.0
C      1  0.4867040000000  0.5580680000000  0.5368000000000 1.0
C      1  0.5092920000000  0.5509410000000  0.5554000000000 1.0
C      1  0.5288610000000  0.4685040000000  0.5751710000000 1.0
C      1  0.5391220000000  0.4444100000000  0.5117750000000 1.0
C      1  0.4544420000000  0.4798230000000  0.5741090000000 1.0
C      1  0.4684840000000  0.4439630000000  0.4808510000000 1.0
C      1  0.5267070000000  0.5791200000000  0.4775960000000 1.0
C      1  0.5311200000000  0.4449740000000  0.5587690000000 1.0
C      1  0.4996510000000  0.5628040000000  0.4396780000000 1.0
C      1  0.5125880000000  0.4421520000000  0.4453580000000 1.0
C      1  0.5821470000000  0.5277360000000  0.4858170000000 1.0
C      1  0.5135040000000  0.4909650000000  0.4363460000000 1.0
C      1  0.5217750000000  0.5815050000000  0.5063920000000 1.0
C      1  0.5747070000000  0.4828810000000  0.4687690000000 1.0
C      1  0.4620400000000  0.5285880000000  0.4971960000000 1.0
C      1  0.4489050000000  0.4589720000000  0.4323270000000 1.0
C      1  0.5289360000000  0.5275480000000  0.4907970000000 1.0
C      1  0.4881940000000  0.4556440000000  0.5493900000000 1.0
C      1  0.5372200000000  0.5048660000000  0.5341650000000 1.0
C      1  0.4462110000000  0.4572750000000  0.4621360000000 1.0
C      1  0.5039460000000  0.5357840000000  0.4918690000000 1.0
C      1  0.5024650000000  0.5793430000000  0.4621020000000 1.0
C      1  0.4594650000000  0.5262650000000  0.5647030000000 1.0
C      1  0.4537960000000  0.4865910000000  0.4711790000000 1.0
C      1  0.4776880000000  0.4144030000000  0.4846210000000 1.0
C      1  0.5782630000000  0.4884550000000  0.5183920000000 1.0
C      1  0.4429900000000  0.4562970000000  0.5335410000000 1.0
C      1  0.4615390000000  0.4574650000000  0.5082080000000 1.0
C      1  0.4893790000000  0.4598900000000  0.5183370000000 1.0
C      1  0.5347590000000  0.5551680000000  0.5460820000000 1.0
C      1  0.5456670000000  0.4546020000000  0.5368290000000 1.0
C      1  0.5019800000000  0.4777000000000  0.5661690000000 1.0
C      1  0.4768170000000  0.5924490000000  0.4985870000000 1.0
C      1  0.5430430000000  0.4945100000000  0.4372300000000 1.0
C      1  0.5571870000000  0.4820170000000  0.5408560000000 1.0
C      1  0.5560450000000  0.4725040000000  0.4488250000000 1.0
C      1  0.5414870000000  0.5708980000000  0.5232820000000 1.0
C      1  0.4960100000000  0.4158890000000  0.5069820000000 1.0
C      1  0.4822260000000  0.4935960000000  0.4794690000000 1.0
C      1  0.4746830000000  0.5265880000000  0.4273720000000 1.0
C      1  0.4940130000000  0.4870000000000  0.5084570000000 1.0
C      1  0.5016990000000  0.4109000000000  0.5332360000000 1.0
C      1  0.4409130000000  0.5365390000000  0.4753830000000 1.0
C      1  0.5090720000000  0.4421600000000  0.5020320000000 1.0
C      1  0.4992500000000  0.4514760000000  0.4737410000000 1.0
C      1  0.4188160000000  0.4566570000000  0.4762460000000 1.0
C      1  0.4347170000000  0.5457540000000  0.5382020000000 1.0
C      1  0.4587370000000  0.4578270000000  0.5563920000000 1.0
C      1  0.4532320000000  0.4834460000000  0.4200330000000 1.0
C      1  0.4190500000000  0.4985430000000  0.5411200000000 1.0
C      1  0.5105980000000  0.5026920000000  0.5485320000000 1.0
C      1  0.5693830000000  0.5539900000000  0.4862170000000 1.0
C      1  0.5025990000000  0.5181010000000  0.4287630000000 1.0
C      1  0.4941400000000  0.5815530000000  0.5168720000000 1.0
C      1  0.4629490000000  0.5035420000000  0.5375710000000 1.0
C      1  0.5494150000000  0.4880640000000  0.5711350000000 1.0
C      1  0.4575860000000  0.5607580000000  0.4607440000000 1.0
C      1  0.4236300000000  0.5248680000000  0.5226860000000 1.0
C      1  0.4894900000000  0.4040670000000  0.4618100000000 1.0
C      1  0.5727970000000  0.5363470000000  0.5300690000000 1.0
C      1  0.4411250000000  0.5018290000000  0.5609120000000 1.0
C      1  0.5507890000000  0.5305440000000  0.5486170000000 1.0
C      1  0.5063870000000  0.4310400000000  0.5514570000000 1.0
C      1  0.4522660000000  0.5096170000000  0.4312870000000 1.0
C      1  0.4727010000000  0.5529670000000  0.4379760000000 1.0
C      1  0.4198470000000  0.4724450000000  0.5286350000000 1.0
C      1  0.5834990000000  0.5162930000000  0.5125940000000 1.0
C      1  0.4746160000000  0.4652180000000  0.4205410000000 1.0
C      1  0.4451590000000  0.4831980000000  0.4984520000000 1.0
C      1  0.5763010000000  0.5109130000000  0.4645740000000 1.0
C      1  0.4797740000000  0.4898720000000  0.5817610000000 1.0
C      1  0.4833020000000  0.5218810000000  0.4780780000000 1.0
C      1  0.5768680000000  0.4716750000000  0.4952020000000 1.0
C      1  0.5566290000000  0.5183620000000  0.4452820000000 1.0
C      1  0.5490670000000  0.5630270000000  0.4674940000000 1.0
C      1  0.5437890000000  0.5438060000000  0.4458930000000 1.0
C      1  0.4210030000000  0.5364200000000  0.4958200000000 1.0
C      1  0.5102230000000  0.5250740000000  0.5701270000000 1.0
C      1  0.5654690000000  0.5591200000000  0.5138250000000 1.0
C      1  0.4428910000000  0.5109010000000  0.4577410000000 1.0
C      1  0.4483370000000  0.5083820000000  0.5132820000000 1.0
C      1  0.5018460000000  0.4647500000000  0.4271880000000 1.0
C      1  0.5418540000000  0.4476220000000  0.4497780000000 1.0
C      1  0.4825160000000  0.5176790000000  0.5800320000000 1.0
C      1  0.5050380000000  0.4129040000000  0.4433380000000 1.0
C      1  0.4752290000000  0.5805220000000  0.4739680000000 1.0
C      1  0.4899070000000  0.5073580000000  0.5288520000000 1.0
END
