TITL C-20653-1216-5 -0.0838970699130673 125000 -483.468253912653 0 0 71 (C1) n - 1
REM
REM in /rds/project/t2_vol4/rds-t2-cs072/BORA/CARBON/from-Arr/AIRSS/Generating-Clusters/GAP-ML-2020/Only-C1/SD-CG/HFTN-CG
REM
REM
REM
REM
REM
REM ./C.cell (11c1c37f851c82e70ff6c80c92926a4b)
REM AIRSS Version 0.9.1 bugfix July 2018 build 013d7b7c2542+ Fri, 06 Jul 2018 19:26:36 +0100
REM compiler GCC version 9.3.0
REM options -cpp -mtune=generic -march=x86-64 -g -O0
REM seed 1538211788 1196582864 -784629792 -1223318937 -1854475426 1132464394 -760125393 -276273205 1080758767 2123279545 -1803975149 -989399686 -1132870897 -778433032 1465727252 -130814659 1047539242 -868740184 2102818274 -1876906648 -1545368623 1701534047 2073333195 1424120058 -2094476440 -353062096 1939737446 -1873843917 1860776367 428018643 -1534276388 -1886718866 734705945
REM
CELL 1.54180   50.00000   50.00000   50.00000   90.00000   90.00000   90.00000
LATT -1
SFAC C  
C      1  0.4832140000000  0.4657710000000  0.4315170000000 1.0
C      1  0.5711370000000  0.4836150000000  0.4911070000000 1.0
C      1  0.4768770000000  0.4558770000000  0.4912580000000 1.0
C      1  0.4819080000000  0.4928540000000  0.4210550000000 1.0
C      1  0.4886770000000  0.4523750000000  0.5616050000000 1.0
C      1  0.4893830000000  0.5441200000000  0.5567060000000 1.0
C      1  0.5290360000000  0.5569050000000  0.4525130000000 1.0
C      1  0.4625810000000  0.5213650000000  0.5282540000000 1.0
C      1  0.5262530000000  0.4864300000000  0.4335500000000 1.0
C      1  0.5084490000000  0.5034720000000  0.4193660000000 1.0
C      1  0.4978060000000  0.5769750000000  0.4875240000000 1.0
C      1  0.4450500000000  0.4940360000000  0.4893050000000 1.0
C      1  0.5413100000000  0.5161120000000  0.4930770000000 1.0
C      1  0.4802840000000  0.4991090000000  0.5681720000000 1.0
C      1  0.4789480000000  0.4430480000000  0.5366360000000 1.0
C      1  0.5212370000000  0.4898840000000  0.4948590000000 1.0
C      1  0.4892730000000  0.5584270000000  0.5295340000000 1.0
C      1  0.4635490000000  0.5494620000000  0.5189640000000 1.0
C      1  0.5598060000000  0.5019510000000  0.4735010000000 1.0
C      1  0.4581710000000  0.5266210000000  0.4491660000000 1.0
C      1  0.4817560000000  0.5431570000000  0.4578830000000 1.0
C      1  0.4526090000000  0.5576240000000  0.4941600000000 1.0
C      1  0.5568330000000  0.5284570000000  0.5139760000000 1.0
C      1  0.5269180000000  0.4803310000000  0.5750570000000 1.0
C      1  0.4700240000000  0.5234050000000  0.5568350000000 1.0
C      1  0.5479760000000  0.5549280000000  0.5236340000000 1.0
C      1  0.5135360000000  0.5319460000000  0.5627470000000 1.0
C      1  0.5159180000000  0.4410070000000  0.4581260000000 1.0
C      1  0.4497350000000  0.4493080000000  0.5020490000000 1.0
C      1  0.4757970000000  0.5639330000000  0.4776220000000 1.0
C      1  0.5316530000000  0.5379850000000  0.5408180000000 1.0
C      1  0.5371360000000  0.4324930000000  0.5000740000000 1.0
C      1  0.5658930000000  0.4738850000000  0.5157840000000 1.0
C      1  0.4943490000000  0.4352880000000  0.4767800000000 1.0
C      1  0.4417220000000  0.5024450000000  0.5190280000000 1.0
C      1  0.5618130000000  0.4898010000000  0.5406160000000 1.0
C      1  0.5053140000000  0.5781290000000  0.5151900000000 1.0
C      1  0.5446880000000  0.4529660000000  0.5207460000000 1.0
C      1  0.4308700000000  0.5439750000000  0.4829210000000 1.0
C      1  0.4422320000000  0.4549490000000  0.4589710000000 1.0
C      1  0.4512520000000  0.4470770000000  0.5305540000000 1.0
C      1  0.5253240000000  0.5647800000000  0.4801860000000 1.0
C      1  0.5459560000000  0.5040770000000  0.4477260000000 1.0
C      1  0.5200370000000  0.5368560000000  0.4890160000000 1.0
C      1  0.5390520000000  0.4325760000000  0.4731840000000 1.0
C      1  0.5388730000000  0.5314070000000  0.4407120000000 1.0
C      1  0.5034190000000  0.5509310000000  0.4386910000000 1.0
C      1  0.4594590000000  0.4526890000000  0.4404150000000 1.0
C      1  0.4689800000000  0.4736170000000  0.5663840000000 1.0
C      1  0.4396760000000  0.5201980000000  0.4719270000000 1.0
C      1  0.5198760000000  0.4713380000000  0.5177840000000 1.0
C      1  0.5451410000000  0.5116840000000  0.5340280000000 1.0
C      1  0.4631890000000  0.5105420000000  0.4287900000000 1.0
C      1  0.5405980000000  0.4494040000000  0.5503100000000 1.0
C      1  0.5002060000000  0.5242350000000  0.4735120000000 1.0
C      1  0.5509240000000  0.4740270000000  0.5609210000000 1.0
C      1  0.4732400000000  0.4837300000000  0.4828500000000 1.0
C      1  0.5088420000000  0.4285930000000  0.5009360000000 1.0
C      1  0.5159450000000  0.4957310000000  0.5346880000000 1.0
C      1  0.5152860000000  0.5298270000000  0.4237440000000 1.0
C      1  0.4967390000000  0.4511300000000  0.5148200000000 1.0
C      1  0.4334480000000  0.4642730000000  0.4833980000000 1.0
C      1  0.5091390000000  0.5371870000000  0.5178770000000 1.0
C      1  0.4948180000000  0.5012490000000  0.4902610000000 1.0
C      1  0.5157950000000  0.4543120000000  0.5666840000000 1.0
C      1  0.5112720000000  0.4616000000000  0.4389060000000 1.0
C      1  0.4299620000000  0.4876120000000  0.5384610000000 1.0
C      1  0.4443510000000  0.4679840000000  0.5499310000000 1.0
C      1  0.4949790000000  0.5116640000000  0.5191540000000 1.0
C      1  0.5345850000000  0.5731050000000  0.5079190000000 1.0
C      1  0.5099150000000  0.5021440000000  0.5655490000000 1.0
END
