TITL C-20669-1270-2 31.03021446071 125000 -632.156266495407 0 0 88 (C1) n - 1
REM
REM in /rds/project/t2_vol4/rds-t2-cs072/BORA/CARBON/from-Arr/AIRSS/Generating-Clusters/GAP-ML-2020/Only-C1/SD-CG/HFTN-CG
REM
REM
REM
REM
REM
REM ./C.cell (11c1c37f851c82e70ff6c80c92926a4b)
REM AIRSS Version 0.9.1 bugfix July 2018 build 013d7b7c2542+ Fri, 06 Jul 2018 19:26:36 +0100
REM compiler GCC version 9.3.0
REM options -cpp -mtune=generic -march=x86-64 -g -O0
REM seed 1058896133 748368509 912096783 -60773441 1631608500 1094100139 93033629 -1979786899 306024647 -1945146755 -1379763856 -135115137 -1459470371 -452731109 1352242487 -956983351 549162678 1880173196 -617880913 -963239857 -1354262575 1384411013 -1989933755 110770522 926427745 -1208225340 1405903021 223970443 1485604064 -115067347 -1239334466 1090318102 1654081880
REM
CELL 1.54180   50.00000   50.00000   50.00000   90.00000   90.00000   90.00000
LATT -1
SFAC C  
C      1  0.5395720000000  0.5128380000000  0.5679560000000 1.0
C      1  0.4670010000000  0.4361420000000  0.5299550000000 1.0
C      1  0.4705060000000  0.5256450000000  0.4236080000000 1.0
C      1  0.4852120000000  0.5784830000000  0.5230450000000 1.0
C      1  0.4250440000000  0.5091910000000  0.4448480000000 1.0
C      1  0.5707880000000  0.5312730000000  0.4818870000000 1.0
C      1  0.5071070000000  0.4809450000000  0.5217980000000 1.0
C      1  0.4447260000000  0.4611310000000  0.4384220000000 1.0
C      1  0.5610070000000  0.5355720000000  0.5318970000000 1.0
C      1  0.4093900000000  0.4878550000000  0.5160880000000 1.0
C      1  0.5334130000000  0.4858710000000  0.5156360000000 1.0
C      1  0.5212230000000  0.4737690000000  0.4312190000000 1.0
C      1  0.5062210000000  0.4184680000000  0.5149100000000 1.0
C      1  0.4722930000000  0.4369510000000  0.4797990000000 1.0
C      1  0.4659570000000  0.5076690000000  0.5741280000000 1.0
C      1  0.5139390000000  0.5124790000000  0.4821420000000 1.0
C      1  0.4906920000000  0.4733890000000  0.4992380000000 1.0
C      1  0.4345900000000  0.4677930000000  0.4637070000000 1.0
C      1  0.4505170000000  0.5633490000000  0.4821330000000 1.0
C      1  0.4306090000000  0.5195100000000  0.5409450000000 1.0
C      1  0.4980360000000  0.5848630000000  0.4975090000000 1.0
C      1  0.4660280000000  0.5497660000000  0.5546200000000 1.0
C      1  0.5182290000000  0.5283990000000  0.4270180000000 1.0
C      1  0.5741230000000  0.5101670000000  0.5357290000000 1.0
C      1  0.5583610000000  0.4688440000000  0.5576480000000 1.0
C      1  0.4502720000000  0.4821180000000  0.4193270000000 1.0
C      1  0.4996110000000  0.4847370000000  0.4161040000000 1.0
C      1  0.4714160000000  0.4493830000000  0.4344060000000 1.0
C      1  0.4837470000000  0.5183470000000  0.5145560000000 1.0
C      1  0.5847620000000  0.4959740000000  0.5141400000000 1.0
C      1  0.5837650000000  0.5070990000000  0.4869790000000 1.0
C      1  0.5094960000000  0.4269270000000  0.5427570000000 1.0
C      1  0.4171750000000  0.5044050000000  0.4957290000000 1.0
C      1  0.5337420000000  0.4590060000000  0.5699930000000 1.0
C      1  0.4450310000000  0.5538260000000  0.5067530000000 1.0
C      1  0.5805660000000  0.4692420000000  0.5027060000000 1.0
C      1  0.4591270000000  0.5065010000000  0.5043740000000 1.0
C      1  0.4454630000000  0.5092740000000  0.4253930000000 1.0
C      1  0.4764210000000  0.4938030000000  0.4587960000000 1.0
C      1  0.4608190000000  0.4756270000000  0.5044140000000 1.0
C      1  0.5109870000000  0.4734280000000  0.5774860000000 1.0
C      1  0.5399160000000  0.5372420000000  0.5526960000000 1.0
C      1  0.5059330000000  0.5520580000000  0.4359640000000 1.0
C      1  0.5474860000000  0.4357440000000  0.4896480000000 1.0
C      1  0.5427780000000  0.5189530000000  0.4388830000000 1.0
C      1  0.4964550000000  0.5129130000000  0.4171940000000 1.0
C      1  0.4948900000000  0.5025270000000  0.5339780000000 1.0
C      1  0.4923770000000  0.5447390000000  0.5663770000000 1.0
C      1  0.5150570000000  0.5021990000000  0.5793690000000 1.0
C      1  0.5622850000000  0.5470550000000  0.5053560000000 1.0
C      1  0.4852210000000  0.4618900000000  0.5700340000000 1.0
C      1  0.4512140000000  0.4586250000000  0.5273650000000 1.0
C      1  0.5421380000000  0.4492470000000  0.4642280000000 1.0
C      1  0.5114680000000  0.5735910000000  0.5345780000000 1.0
C      1  0.4793540000000  0.4255890000000  0.5059310000000 1.0
C      1  0.5658170000000  0.4469840000000  0.5107020000000 1.0
C      1  0.5435600000000  0.4898120000000  0.4395410000000 1.0
C      1  0.5582530000000  0.4467940000000  0.5382950000000 1.0
C      1  0.4620910000000  0.5641570000000  0.5296790000000 1.0
C      1  0.4936140000000  0.5781510000000  0.4711550000000 1.0
C      1  0.4628770000000  0.4797320000000  0.5686540000000 1.0
C      1  0.5360620000000  0.5010050000000  0.4944880000000 1.0
C      1  0.5342260000000  0.4364540000000  0.5516890000000 1.0
C      1  0.4891920000000  0.4401410000000  0.4538640000000 1.0
C      1  0.5279430000000  0.4198130000000  0.4993500000000 1.0
C      1  0.4775460000000  0.5493240000000  0.4380110000000 1.0
C      1  0.4508340000000  0.4568480000000  0.4833970000000 1.0
C      1  0.4958980000000  0.4907200000000  0.4756520000000 1.0
C      1  0.5173260000000  0.4506340000000  0.4490320000000 1.0
C      1  0.4689130000000  0.5650810000000  0.4619110000000 1.0
C      1  0.4225670000000  0.4921670000000  0.5407400000000 1.0
C      1  0.4218730000000  0.4950170000000  0.4679630000000 1.0
C      1  0.5607330000000  0.4964110000000  0.5572150000000 1.0
C      1  0.5448350000000  0.5670700000000  0.4947460000000 1.0
C      1  0.5162140000000  0.5693850000000  0.4554590000000 1.0
C      1  0.5012520000000  0.5309860000000  0.4975350000000 1.0
C      1  0.5584280000000  0.4724590000000  0.4574550000000 1.0
C      1  0.5782350000000  0.4804700000000  0.4758930000000 1.0
C      1  0.5166190000000  0.5545670000000  0.5545430000000 1.0
C      1  0.4423030000000  0.4736300000000  0.5497270000000 1.0
C      1  0.5409460000000  0.5618020000000  0.4664960000000 1.0
C      1  0.4761860000000  0.4702290000000  0.4150120000000 1.0
C      1  0.4359910000000  0.5252090000000  0.5113980000000 1.0
C      1  0.4499480000000  0.5270330000000  0.5600580000000 1.0
C      1  0.4918420000000  0.5191700000000  0.5792810000000 1.0
C      1  0.4854030000000  0.4386950000000  0.5524030000000 1.0
C      1  0.5243050000000  0.5798310000000  0.5089470000000 1.0
C      1  0.5546170000000  0.5377890000000  0.4583090000000 1.0
END
