TITL C-20246-1590-7 12.1737371323582 125000 -310.73557941252 0 0 46 (C1) n - 1
REM
REM in /rds/project/t2_vol4/rds-t2-cs072/BORA/CARBON/from-Arr/AIRSS/Generating-Clusters/GAP-ML-2020/Only-C1/SD-CG/HFTN-CG
REM
REM
REM
REM
REM
REM ./C.cell (11c1c37f851c82e70ff6c80c92926a4b)
REM AIRSS Version 0.9.1 bugfix July 2018 build 013d7b7c2542+ Fri, 06 Jul 2018 19:26:36 +0100
REM compiler GCC version 9.3.0
REM options -cpp -mtune=generic -march=x86-64 -g -O0
REM seed 625944831 1395460998 1752371348 865870484 -1799440978 -1052901121 -1966422655 -1853547900 500205434 238005966 2094146188 -1181602315 1514173143 1944256841 -568718204 -1860747040 869749270 1321856559 1087845902 521322274 -799676168 132986645 -580901900 1995526751 -1191750024 391710516 470805851 581393258 1329865333 -890394184 1202087974 1675101072 -649403049
REM
CELL 1.54180   50.00000   50.00000   50.00000   90.00000   90.00000   90.00000
LATT -1
SFAC C  
C      1  0.5037750000000  0.5340020000000  0.5595210000000 1.0
C      1  0.4323080000000  0.5357140000000  0.4940810000000 1.0
C      1  0.4999320000000  0.4613900000000  0.5672000000000 1.0
C      1  0.4514300000000  0.4977070000000  0.5277250000000 1.0
C      1  0.5410420000000  0.4930790000000  0.5379120000000 1.0
C      1  0.4933760000000  0.4894250000000  0.5596880000000 1.0
C      1  0.4962890000000  0.5501850000000  0.4972620000000 1.0
C      1  0.5228740000000  0.4559800000000  0.5574850000000 1.0
C      1  0.5474610000000  0.4598250000000  0.4842580000000 1.0
C      1  0.5526130000000  0.4878670000000  0.4452350000000 1.0
C      1  0.4807020000000  0.4943330000000  0.4435330000000 1.0
C      1  0.5066740000000  0.5067160000000  0.4425950000000 1.0
C      1  0.5121100000000  0.4601840000000  0.4489720000000 1.0
C      1  0.5342730000000  0.5311940000000  0.4782920000000 1.0
C      1  0.4493260000000  0.5347690000000  0.4533760000000 1.0
C      1  0.5372970000000  0.4528810000000  0.5102730000000 1.0
C      1  0.5244610000000  0.5463650000000  0.5008790000000 1.0
C      1  0.4447540000000  0.4741850000000  0.5148510000000 1.0
C      1  0.5131320000000  0.4428260000000  0.4953320000000 1.0
C      1  0.4685780000000  0.4547180000000  0.4734360000000 1.0
C      1  0.4923210000000  0.5470910000000  0.4683350000000 1.0
C      1  0.5541220000000  0.4859610000000  0.4729730000000 1.0
C      1  0.4272670000000  0.5421610000000  0.4698870000000 1.0
C      1  0.4704770000000  0.5518710000000  0.4531150000000 1.0
C      1  0.5372540000000  0.5095010000000  0.5624630000000 1.0
C      1  0.5104250000000  0.4925260000000  0.5336300000000 1.0
C      1  0.4986030000000  0.5046110000000  0.5114570000000 1.0
C      1  0.4689750000000  0.5039840000000  0.5487670000000 1.0
C      1  0.5504110000000  0.5116940000000  0.5163810000000 1.0
C      1  0.5305110000000  0.5363720000000  0.5507230000000 1.0
C      1  0.5105360000000  0.5092460000000  0.5744910000000 1.0
C      1  0.4473680000000  0.4711570000000  0.4873380000000 1.0
C      1  0.5407160000000  0.4631490000000  0.5370010000000 1.0
C      1  0.4542700000000  0.5194630000000  0.5049160000000 1.0
C      1  0.5137080000000  0.5302600000000  0.4580110000000 1.0
C      1  0.4878170000000  0.4874510000000  0.4939540000000 1.0
C      1  0.4584360000000  0.5071840000000  0.4550030000000 1.0
C      1  0.4837540000000  0.4664020000000  0.4511510000000 1.0
C      1  0.4599330000000  0.4983580000000  0.4827080000000 1.0
C      1  0.4811200000000  0.5306130000000  0.5433430000000 1.0
C      1  0.4802090000000  0.5324910000000  0.5144730000000 1.0
C      1  0.4887630000000  0.4574630000000  0.4942380000000 1.0
C      1  0.5257540000000  0.4457880000000  0.4692710000000 1.0
C      1  0.5372400000000  0.5362940000000  0.5235620000000 1.0
C      1  0.5518400000000  0.5103430000000  0.4881490000000 1.0
C      1  0.5257630000000  0.4852200000000  0.4427510000000 1.0
END
