TITL C-20296-255-11 -0.0356851442922008 125000 -309.728785395885 0 0 46 (C1) n - 1
REM
REM in /rds/project/t2_vol4/rds-t2-cs072/BORA/CARBON/from-Arr/AIRSS/Generating-Clusters/GAP-ML-2020/Only-C1/SD-CG/HFTN-CG
REM
REM
REM
REM
REM
REM ./C.cell (11c1c37f851c82e70ff6c80c92926a4b)
REM AIRSS Version 0.9.1 bugfix July 2018 build 013d7b7c2542+ Fri, 06 Jul 2018 19:26:36 +0100
REM compiler GCC version 9.3.0
REM options -cpp -mtune=generic -march=x86-64 -g -O0
REM seed 1082541893 672065291 1280194382 -1479750722 -942719525 1426086423 1753796965 1853983069 449325337 858530485 -1537730388 -1251196029 -1397030592 1252264317 103981788 -717447168 1196183905 886059472 1567852452 1952887598 1548634030 967749017 -1906976388 280202136 555381989 -670313781 -799999658 1423744119 -1208321708 629779563 1179833287 -1536168594 -661083552
REM
CELL 1.54180   50.00000   50.00000   50.00000   90.00000   90.00000   90.00000
LATT -1
SFAC C  
C      1  0.4661430000000  0.5328530000000  0.4683510000000 1.0
C      1  0.5452990000000  0.5145770000000  0.5284340000000 1.0
C      1  0.5284840000000  0.5364700000000  0.5380570000000 1.0
C      1  0.5575940000000  0.4937420000000  0.4863660000000 1.0
C      1  0.5088240000000  0.5100280000000  0.4784490000000 1.0
C      1  0.4984070000000  0.4557760000000  0.5465670000000 1.0
C      1  0.5036390000000  0.5500420000000  0.4608910000000 1.0
C      1  0.5418640000000  0.5163910000000  0.4474040000000 1.0
C      1  0.4929720000000  0.4785570000000  0.5045040000000 1.0
C      1  0.5275950000000  0.5332030000000  0.4669080000000 1.0
C      1  0.5391780000000  0.4772720000000  0.5009280000000 1.0
C      1  0.4853000000000  0.5339370000000  0.4465670000000 1.0
C      1  0.5394600000000  0.5660750000000  0.5021440000000 1.0
C      1  0.4867960000000  0.4402390000000  0.5003860000000 1.0
C      1  0.4725870000000  0.5427120000000  0.5302070000000 1.0
C      1  0.5085570000000  0.5324360000000  0.5548470000000 1.0
C      1  0.4981910000000  0.5188800000000  0.5040130000000 1.0
C      1  0.4811780000000  0.4624550000000  0.4598690000000 1.0
C      1  0.5120450000000  0.4589490000000  0.4656460000000 1.0
C      1  0.4548520000000  0.5052930000000  0.4690960000000 1.0
C      1  0.4548580000000  0.4630220000000  0.5241880000000 1.0
C      1  0.5445180000000  0.5422970000000  0.4889320000000 1.0
C      1  0.5556170000000  0.5185320000000  0.5014550000000 1.0
C      1  0.5488950000000  0.4920080000000  0.4563050000000 1.0
C      1  0.4539660000000  0.4883310000000  0.5364440000000 1.0
C      1  0.4497020000000  0.5326500000000  0.5202230000000 1.0
C      1  0.5340990000000  0.4680820000000  0.4514930000000 1.0
C      1  0.4922990000000  0.5488070000000  0.5091840000000 1.0
C      1  0.4485780000000  0.4652750000000  0.4962830000000 1.0
C      1  0.4728170000000  0.4884690000000  0.4539740000000 1.0
C      1  0.5313630000000  0.4502170000000  0.5100150000000 1.0
C      1  0.4997500000000  0.4983740000000  0.5235670000000 1.0
C      1  0.4430720000000  0.4926870000000  0.4913890000000 1.0
C      1  0.4442130000000  0.5065880000000  0.5168230000000 1.0
C      1  0.5146180000000  0.4824460000000  0.4848290000000 1.0
C      1  0.4789910000000  0.4479940000000  0.5266560000000 1.0
C      1  0.5240530000000  0.4602680000000  0.5356430000000 1.0
C      1  0.4796210000000  0.4973790000000  0.5479630000000 1.0
C      1  0.4828430000000  0.5267060000000  0.5518390000000 1.0
C      1  0.4675340000000  0.4506430000000  0.4810730000000 1.0
C      1  0.4934030000000  0.5075400000000  0.4502060000000 1.0
C      1  0.5130690000000  0.4390550000000  0.4907940000000 1.0
C      1  0.4895210000000  0.4756900000000  0.5632460000000 1.0
C      1  0.5196750000000  0.5551510000000  0.5174540000000 1.0
C      1  0.5299440000000  0.4896380000000  0.5288250000000 1.0
C      1  0.4840160000000  0.5522660000000  0.4815620000000 1.0
END
