TITL C-20224-1150-11 -0.0972325879153335 125000 -427.235962257699 0 0 63 (C1) n - 1
REM
REM in /rds/project/t2_vol4/rds-t2-cs072/BORA/CARBON/from-Arr/AIRSS/Generating-Clusters/GAP-ML-2020/Only-C1/SD-CG/HFTN-CG
REM
REM
REM
REM
REM
REM ./C.cell (11c1c37f851c82e70ff6c80c92926a4b)
REM AIRSS Version 0.9.1 bugfix July 2018 build 013d7b7c2542+ Fri, 06 Jul 2018 19:26:36 +0100
REM compiler GCC version 9.3.0
REM options -cpp -mtune=generic -march=x86-64 -g -O0
REM seed -1391069436 -1923794188 -420865434 -766574066 1496313895 -248018081 -396995537 1424494973 1560004773 2029001398 -351239934 -1512975979 1206031057 53778323 1711286436 -1603224794 -886525029 114584946 2124144201 -1124749966 1153093055 -233735739 -1040899904 762536761 -1195931553 -2133234928 1702031313 -2108011193 740766852 -1963986449 391253096 410319853 1516408499
REM
CELL 1.54180   50.00000   50.00000   50.00000   90.00000   90.00000   90.00000
LATT -1
SFAC C  
C      1  0.4898200000000  0.4973680000000  0.4371460000000 1.0
C      1  0.4872540000000  0.5643540000000  0.4822750000000 1.0
C      1  0.5498270000000  0.5062000000000  0.5500050000000 1.0
C      1  0.4570510000000  0.5682380000000  0.5496520000000 1.0
C      1  0.4380630000000  0.4816350000000  0.4953620000000 1.0
C      1  0.4910970000000  0.4451840000000  0.5445650000000 1.0
C      1  0.4886710000000  0.4809620000000  0.4848790000000 1.0
C      1  0.4338520000000  0.5279880000000  0.4816840000000 1.0
C      1  0.4848370000000  0.5441030000000  0.4368600000000 1.0
C      1  0.5597690000000  0.4834680000000  0.4489660000000 1.0
C      1  0.5009390000000  0.5582160000000  0.5367410000000 1.0
C      1  0.4559960000000  0.4689520000000  0.4538540000000 1.0
C      1  0.5031460000000  0.5354340000000  0.5544800000000 1.0
C      1  0.5158090000000  0.5587510000000  0.4900770000000 1.0
C      1  0.4834320000000  0.5640390000000  0.4550970000000 1.0
C      1  0.5634250000000  0.4601810000000  0.5069050000000 1.0
C      1  0.5062010000000  0.4824740000000  0.4598060000000 1.0
C      1  0.4573730000000  0.5165040000000  0.4673380000000 1.0
C      1  0.5511870000000  0.4625730000000  0.4319130000000 1.0
C      1  0.5306430000000  0.5280800000000  0.5533980000000 1.0
C      1  0.4978530000000  0.4676110000000  0.5613050000000 1.0
C      1  0.4624570000000  0.4787670000000  0.5349810000000 1.0
C      1  0.5304990000000  0.5398550000000  0.4752450000000 1.0
C      1  0.5231700000000  0.4713020000000  0.5684200000000 1.0
C      1  0.4422860000000  0.5537870000000  0.5652310000000 1.0
C      1  0.4404330000000  0.4922790000000  0.4594600000000 1.0
C      1  0.5399400000000  0.5134650000000  0.4873550000000 1.0
C      1  0.4948910000000  0.5212540000000  0.5049610000000 1.0
C      1  0.5424690000000  0.5421800000000  0.5301280000000 1.0
C      1  0.5184580000000  0.4383680000000  0.4830660000000 1.0
C      1  0.5084340000000  0.4310730000000  0.5276610000000 1.0
C      1  0.4786200000000  0.4891780000000  0.5560810000000 1.0
C      1  0.4798630000000  0.5178090000000  0.5587580000000 1.0
C      1  0.5531520000000  0.4582440000000  0.5344600000000 1.0
C      1  0.4515010000000  0.4966710000000  0.5158300000000 1.0
C      1  0.5053910000000  0.5243290000000  0.4325640000000 1.0
C      1  0.4691670000000  0.4521080000000  0.5282550000000 1.0
C      1  0.5176850000000  0.5040270000000  0.5100090000000 1.0
C      1  0.5264610000000  0.5266430000000  0.4505820000000 1.0
C      1  0.4692950000000  0.5202050000000  0.4418320000000 1.0
C      1  0.4753570000000  0.5067610000000  0.4913800000000 1.0
C      1  0.4624530000000  0.4628200000000  0.4829720000000 1.0
C      1  0.4431060000000  0.5420510000000  0.5040670000000 1.0
C      1  0.4740850000000  0.4740310000000  0.4335690000000 1.0
C      1  0.4662440000000  0.5615670000000  0.5029510000000 1.0
C      1  0.5296650000000  0.4495410000000  0.4351540000000 1.0
C      1  0.4974370000000  0.4307220000000  0.5007710000000 1.0
C      1  0.5644760000000  0.5084120000000  0.5013870000000 1.0
C      1  0.5453690000000  0.4780220000000  0.5539600000000 1.0
C      1  0.5354530000000  0.4366100000000  0.5269670000000 1.0
C      1  0.5079290000000  0.4775780000000  0.5090870000000 1.0
C      1  0.4228640000000  0.4997450000000  0.4801120000000 1.0
C      1  0.5811690000000  0.4819430000000  0.4660440000000 1.0
C      1  0.5610770000000  0.5201890000000  0.5268410000000 1.0
C      1  0.5138180000000  0.4527580000000  0.4577420000000 1.0
C      1  0.4434590000000  0.5230260000000  0.5260590000000 1.0
C      1  0.5338430000000  0.4990350000000  0.4605780000000 1.0
C      1  0.4705270000000  0.4415570000000  0.5014340000000 1.0
C      1  0.4755790000000  0.5683440000000  0.5289640000000 1.0
C      1  0.4537330000000  0.5298570000000  0.5518830000000 1.0
C      1  0.5229880000000  0.5587910000000  0.5183200000000 1.0
C      1  0.5757810000000  0.4828610000000  0.4934450000000 1.0
C      1  0.5431730000000  0.4399200000000  0.4991300000000 1.0
END
