TITL C-200318-9389-13 -0.165073690389314 125000 -247.964186222437 0 0 38 (C1) n - 1
REM
REM in /rds/project/t2_vol4/rds-t2-cs072/BORA/CARBON/from-Arr/AIRSS/Generating-Clusters/GAP-ML-2020/Only-C1/SD-CG/HFTN-CG
REM
REM
REM
REM
REM
REM ./C.cell (11c1c37f851c82e70ff6c80c92926a4b)
REM AIRSS Version 0.9.1 bugfix July 2018 build 013d7b7c2542+ Fri, 06 Jul 2018 19:26:36 +0100
REM compiler GCC version 9.3.0
REM options -cpp -mtune=generic -march=x86-64 -g -O0
REM seed 119501274 164099903 -733588515 1972239747 899796213 -1305689181 1473032346 -1682232978 -1723244629 1943141874 1751534361 -1711976944 -402867186 -1263107900 1354331919 -351434368 -19281740 400376765 -230472723 326024273 649146494 -125046748 -1054784466 -1779699639 -677931408 1201848497 -1045559648 620581710 -1720871779 -513200293 -1346296190 1392829672 -2112181226
REM
CELL 1.54180   50.00000   50.00000   50.00000   90.00000   90.00000   90.00000
LATT -1
SFAC C  
C      1  0.4655560000000  0.4586880000000  0.5342550000000 1.0
C      1  0.5714800000000  0.4849610000000  0.4842670000000 1.0
C      1  0.4874650000000  0.4620010000000  0.4326600000000 1.0
C      1  0.4574470000000  0.5018070000000  0.5330670000000 1.0
C      1  0.5325110000000  0.5504460000000  0.4861800000000 1.0
C      1  0.4740560000000  0.4400720000000  0.5192780000000 1.0
C      1  0.4612310000000  0.4945800000000  0.4598850000000 1.0
C      1  0.4822620000000  0.5318940000000  0.5067210000000 1.0
C      1  0.4895460000000  0.5468010000000  0.5307840000000 1.0
C      1  0.4659740000000  0.4795890000000  0.5504400000000 1.0
C      1  0.5177740000000  0.5433710000000  0.5276490000000 1.0
C      1  0.5439800000000  0.5279400000000  0.4720080000000 1.0
C      1  0.5478360000000  0.4459590000000  0.5035340000000 1.0
C      1  0.4549710000000  0.5245130000000  0.5491670000000 1.0
C      1  0.4474650000000  0.5021570000000  0.5048120000000 1.0
C      1  0.5126040000000  0.4634160000000  0.4412210000000 1.0
C      1  0.5227350000000  0.4450650000000  0.5066670000000 1.0
C      1  0.4916920000000  0.4890570000000  0.5625490000000 1.0
C      1  0.4886080000000  0.5043080000000  0.5190380000000 1.0
C      1  0.4592060000000  0.5263580000000  0.4927520000000 1.0
C      1  0.4960960000000  0.5156510000000  0.5679550000000 1.0
C      1  0.5326650000000  0.5596560000000  0.5114680000000 1.0
C      1  0.5172210000000  0.4881170000000  0.4548430000000 1.0
C      1  0.5182590000000  0.5125820000000  0.5259760000000 1.0
C      1  0.5195930000000  0.5393550000000  0.4638350000000 1.0
C      1  0.5538720000000  0.5054780000000  0.4873960000000 1.0
C      1  0.4610450000000  0.4843760000000  0.4870390000000 1.0
C      1  0.5158490000000  0.5014750000000  0.5531550000000 1.0
C      1  0.4997750000000  0.5060880000000  0.4386690000000 1.0
C      1  0.4961240000000  0.4538930000000  0.5063220000000 1.0
C      1  0.4801260000000  0.5336280000000  0.5533640000000 1.0
C      1  0.5283880000000  0.5021090000000  0.5006480000000 1.0
C      1  0.5097510000000  0.4932490000000  0.4827940000000 1.0
C      1  0.5672460000000  0.4609840000000  0.4930550000000 1.0
C      1  0.4696260000000  0.5217620000000  0.4668110000000 1.0
C      1  0.4943520000000  0.5295770000000  0.4535840000000 1.0
C      1  0.4887320000000  0.4814460000000  0.4978560000000 1.0
C      1  0.4768840000000  0.4875890000000  0.4382950000000 1.0
END
