TITL C-20235-1630-5 -0.196571899263309 125000 -650.398991114989 0 0 94 (C1) n - 1
REM
REM in /rds/project/t2_vol4/rds-t2-cs072/BORA/CARBON/from-Arr/AIRSS/Generating-Clusters/GAP-ML-2020/Only-C1/SD-CG/HFTN-CG
REM
REM
REM
REM
REM
REM ./C.cell (11c1c37f851c82e70ff6c80c92926a4b)
REM AIRSS Version 0.9.1 bugfix July 2018 build 013d7b7c2542+ Fri, 06 Jul 2018 19:26:36 +0100
REM compiler GCC version 9.3.0
REM options -cpp -mtune=generic -march=x86-64 -g -O0
REM seed 1352199794 2134816370 2039926390 1172756850 -1563083927 1700562195 1789244604 1470023362 1496749375 -1505979098 -1050632062 865531985 581363777 1731404150 1673999445 -1516289173 341114881 -1416533419 -1192370838 1995666160 1356380733 -1036112629 1251871039 -396411455 250624704 744006748 -2061604944 1687239800 -1635390861 2112428844 -391384123 -1953228048 1104060884
REM
CELL 1.54180   50.00000   50.00000   50.00000   90.00000   90.00000   90.00000
LATT -1
SFAC C  
C      1  0.4957370000000  0.4517370000000  0.5748700000000 1.0
C      1  0.4661980000000  0.4806740000000  0.5029910000000 1.0
C      1  0.4397260000000  0.4745330000000  0.5478780000000 1.0
C      1  0.5739230000000  0.5091140000000  0.5180340000000 1.0
C      1  0.4657260000000  0.5299440000000  0.5065060000000 1.0
C      1  0.5660030000000  0.5401770000000  0.4549790000000 1.0
C      1  0.5305820000000  0.5641670000000  0.5365220000000 1.0
C      1  0.4838880000000  0.5761520000000  0.5254980000000 1.0
C      1  0.5222570000000  0.5471490000000  0.4298620000000 1.0
C      1  0.5818700000000  0.5161350000000  0.4919320000000 1.0
C      1  0.5467660000000  0.4619420000000  0.4497120000000 1.0
C      1  0.4842910000000  0.5143950000000  0.4360770000000 1.0
C      1  0.5399770000000  0.5039120000000  0.4679570000000 1.0
C      1  0.4540270000000  0.4348560000000  0.4891640000000 1.0
C      1  0.4443290000000  0.5507770000000  0.5102750000000 1.0
C      1  0.4724950000000  0.4221880000000  0.5087690000000 1.0
C      1  0.4343180000000  0.4795800000000  0.4895780000000 1.0
C      1  0.5011280000000  0.5048480000000  0.5288350000000 1.0
C      1  0.5631380000000  0.5116170000000  0.4528800000000 1.0
C      1  0.4603970000000  0.5779550000000  0.5106450000000 1.0
C      1  0.4352110000000  0.4519760000000  0.5021830000000 1.0
C      1  0.4899950000000  0.5309190000000  0.4630410000000 1.0
C      1  0.4225840000000  0.5323970000000  0.4637770000000 1.0
C      1  0.4665800000000  0.4379900000000  0.5329660000000 1.0
C      1  0.4165600000000  0.5123970000000  0.5262090000000 1.0
C      1  0.5234400000000  0.4147050000000  0.4887120000000 1.0
C      1  0.5037540000000  0.5474980000000  0.5040780000000 1.0
C      1  0.4979640000000  0.4979140000000  0.5902680000000 1.0
C      1  0.5398190000000  0.4342840000000  0.4550810000000 1.0
C      1  0.4721030000000  0.5183510000000  0.4819620000000 1.0
C      1  0.4905520000000  0.5253080000000  0.5849700000000 1.0
C      1  0.4112090000000  0.5244060000000  0.4872530000000 1.0
C      1  0.4863190000000  0.4932380000000  0.4867530000000 1.0
C      1  0.4868680000000  0.4330850000000  0.5542120000000 1.0
C      1  0.5100470000000  0.5217870000000  0.4216810000000 1.0
C      1  0.5024290000000  0.4513840000000  0.5012480000000 1.0
C      1  0.5505540000000  0.5248560000000  0.5181280000000 1.0
C      1  0.5454420000000  0.5557240000000  0.4448510000000 1.0
C      1  0.5135510000000  0.5731340000000  0.5139800000000 1.0
C      1  0.4561270000000  0.5258660000000  0.4340450000000 1.0
C      1  0.4385270000000  0.4849150000000  0.4592890000000 1.0
C      1  0.5138850000000  0.4264080000000  0.4637610000000 1.0
C      1  0.5344080000000  0.4733990000000  0.4247960000000 1.0
C      1  0.4889790000000  0.5314150000000  0.5231580000000 1.0
C      1  0.4182960000000  0.5379310000000  0.5125990000000 1.0
C      1  0.4812970000000  0.4625640000000  0.5195200000000 1.0
C      1  0.4294040000000  0.5019070000000  0.5486300000000 1.0
C      1  0.5067100000000  0.5688940000000  0.4432370000000 1.0
C      1  0.5242630000000  0.4708090000000  0.4977230000000 1.0
C      1  0.5306310000000  0.5169480000000  0.4922630000000 1.0
C      1  0.4529560000000  0.5127910000000  0.5622520000000 1.0
C      1  0.5712470000000  0.4558050000000  0.5173350000000 1.0
C      1  0.5391380000000  0.4794500000000  0.5727020000000 1.0
C      1  0.4654290000000  0.4456440000000  0.4655140000000 1.0
C      1  0.5533190000000  0.5524980000000  0.5241030000000 1.0
C      1  0.5135790000000  0.5362990000000  0.4802990000000 1.0
C      1  0.5495210000000  0.4277160000000  0.4813910000000 1.0
C      1  0.5239570000000  0.4540360000000  0.5732330000000 1.0
C      1  0.4565590000000  0.5537630000000  0.4430110000000 1.0
C      1  0.5708020000000  0.4684230000000  0.4692330000000 1.0
C      1  0.5681660000000  0.4485490000000  0.4896680000000 1.0
C      1  0.5593200000000  0.4748740000000  0.5526590000000 1.0
C      1  0.4865310000000  0.5514810000000  0.5461830000000 1.0
C      1  0.4839320000000  0.4836880000000  0.4385980000000 1.0
C      1  0.4585530000000  0.4685900000000  0.4489700000000 1.0
C      1  0.4822370000000  0.4757760000000  0.5821880000000 1.0
C      1  0.4649630000000  0.4849680000000  0.5604420000000 1.0
C      1  0.4940380000000  0.4479030000000  0.4702100000000 1.0
C      1  0.4374860000000  0.5579310000000  0.4634700000000 1.0
C      1  0.5343360000000  0.5775440000000  0.4894430000000 1.0
C      1  0.4702760000000  0.5346300000000  0.5673080000000 1.0
C      1  0.5039570000000  0.4218130000000  0.5106390000000 1.0
C      1  0.5068350000000  0.4745050000000  0.4215860000000 1.0
C      1  0.4994780000000  0.4763430000000  0.4626030000000 1.0
C      1  0.5131650000000  0.4966850000000  0.5043160000000 1.0
C      1  0.5328310000000  0.4360300000000  0.5523810000000 1.0
C      1  0.5291170000000  0.4779780000000  0.4678460000000 1.0
C      1  0.5149140000000  0.5516950000000  0.5560140000000 1.0
C      1  0.5581780000000  0.5627400000000  0.4978170000000 1.0
C      1  0.5290870000000  0.5749400000000  0.4617390000000 1.0
C      1  0.4828410000000  0.5588710000000  0.4517170000000 1.0
C      1  0.5181170000000  0.5313880000000  0.5757080000000 1.0
C      1  0.5738430000000  0.4833020000000  0.5289600000000 1.0
C      1  0.4357990000000  0.5117540000000  0.4480650000000 1.0
C      1  0.4148830000000  0.4986730000000  0.5001360000000 1.0
C      1  0.5730210000000  0.5428300000000  0.4821100000000 1.0
C      1  0.5096260000000  0.4239390000000  0.5400300000000 1.0
C      1  0.4441110000000  0.5714320000000  0.4888600000000 1.0
C      1  0.4866240000000  0.4833860000000  0.5383330000000 1.0
C      1  0.5565620000000  0.4478690000000  0.5413000000000 1.0
C      1  0.5226220000000  0.4965690000000  0.4147580000000 1.0
C      1  0.5259590000000  0.5030340000000  0.5815020000000 1.0
C      1  0.4397980000000  0.4515620000000  0.5312690000000 1.0
C      1  0.5780050000000  0.4960400000000  0.4707590000000 1.0
END
