TITL C-20297-233-6 -305.627055571107 125000 -330.551998800085 0 0 48 (C1) n - 1
REM
REM in /rds/project/t2_vol4/rds-t2-cs072/BORA/CARBON/from-Arr/AIRSS/Generating-Clusters/GAP-ML-2020/Only-C1/SD-CG/HFTN-CG
REM
REM
REM
REM
REM
REM ./C.cell (11c1c37f851c82e70ff6c80c92926a4b)
REM AIRSS Version 0.9.1 bugfix July 2018 build 013d7b7c2542+ Fri, 06 Jul 2018 19:26:36 +0100
REM compiler GCC version 9.3.0
REM options -cpp -mtune=generic -march=x86-64 -g -O0
REM seed 2117577668 -301927938 397272811 -1679734375 842168121 1007238957 2037965228 620284843 597098801 2008286939 85972075 -2139288570 -863209905 561009059 1904406476 -598040468 434314910 -1566335572 1629045295 -66037198 -2002566313 -495635429 -682444097 703084725 -1434666775 -2073082720 561184046 930047693 1255276727 2014249425 -1093979755 -1599213229 1140864115
REM
CELL 1.54180   50.00000   50.00000   50.00000   90.00000   90.00000   90.00000
LATT -1
SFAC C  
C      1  0.5486300000000  0.4775520000000  0.4621050000000 1.0
C      1  0.4666610000000  0.4507940000000  0.5337360000000 1.0
C      1  0.5378790000000  0.5095800000000  0.5419980000000 1.0
C      1  0.4831900000000  0.5033370000000  0.4416410000000 1.0
C      1  0.5430480000000  0.4578500000000  0.4822250000000 1.0
C      1  0.5075240000000  0.5178900000000  0.4991810000000 1.0
C      1  0.5505010000000  0.4692430000000  0.5069690000000 1.0
C      1  0.5274180000000  0.5523540000000  0.5280760000000 1.0
C      1  0.5176050000000  0.4514970000000  0.4700920000000 1.0
C      1  0.4934420000000  0.5308500000000  0.4457760000000 1.0
C      1  0.4612220000000  0.4899460000000  0.5100520000000 1.0
C      1  0.4945440000000  0.5205820000000  0.5506430000000 1.0
C      1  0.4451370000000  0.4699170000000  0.4954540000000 1.0
C      1  0.5208120000000  0.5219240000000  0.4466610000000 1.0
C      1  0.4953560000000  0.4920080000000  0.5485780000000 1.0
C      1  0.4487740000000  0.4926060000000  0.5605530000000 1.0
C      1  0.4659930000000  0.5397630000000  0.5197150000000 1.0
C      1  0.4876840000000  0.5617710000000  0.4805870000000 1.0
C      1  0.5232500000000  0.4851760000000  0.5443080000000 1.0
C      1  0.4596600000000  0.4990780000000  0.4580270000000 1.0
C      1  0.5401110000000  0.5483780000000  0.4831280000000 1.0
C      1  0.4499300000000  0.5182260000000  0.5616860000000 1.0
C      1  0.4762430000000  0.5427250000000  0.4645270000000 1.0
C      1  0.4771850000000  0.4327720000000  0.4985190000000 1.0
C      1  0.4900470000000  0.4508430000000  0.4792220000000 1.0
C      1  0.5100550000000  0.4939460000000  0.4917240000000 1.0
C      1  0.4814190000000  0.5609910000000  0.5092040000000 1.0
C      1  0.5328880000000  0.4625600000000  0.5293570000000 1.0
C      1  0.5428720000000  0.5266520000000  0.4641180000000 1.0
C      1  0.4580580000000  0.5222130000000  0.4748260000000 1.0
C      1  0.5161480000000  0.5644950000000  0.4851460000000 1.0
C      1  0.5163180000000  0.4406630000000  0.5283250000000 1.0
C      1  0.5551520000000  0.5020700000000  0.4735600000000 1.0
C      1  0.5202380000000  0.5315430000000  0.5460190000000 1.0
C      1  0.4569600000000  0.5183360000000  0.5027430000000 1.0
C      1  0.4680740000000  0.4799900000000  0.5401710000000 1.0
C      1  0.4538810000000  0.4457660000000  0.5080830000000 1.0
C      1  0.4508830000000  0.4734120000000  0.4672970000000 1.0
C      1  0.4701660000000  0.4560660000000  0.4578980000000 1.0
C      1  0.5556200000000  0.5163390000000  0.5200840000000 1.0
C      1  0.5483600000000  0.5427240000000  0.5105300000000 1.0
C      1  0.4888240000000  0.4777120000000  0.4985270000000 1.0
C      1  0.5237090000000  0.4715250000000  0.4491270000000 1.0
C      1  0.5595260000000  0.4959410000000  0.5015800000000 1.0
C      1  0.5090130000000  0.5670010000000  0.5139140000000 1.0
C      1  0.4690270000000  0.5327700000000  0.5471350000000 1.0
C      1  0.5107370000000  0.4941890000000  0.4405160000000 1.0
C      1  0.4902280000000  0.4364330000000  0.5266590000000 1.0
END
