TITL C-20213-1252-5 0.0290050506074182 125000 -881.410146569105 0 0 126 (C1) n - 1
REM
REM in /rds/project/t2_vol4/rds-t2-cs072/BORA/CARBON/from-Arr/AIRSS/Generating-Clusters/GAP-ML-2020/Only-C1/SD-CG/HFTN-CG
REM
REM
REM
REM
REM
REM ./C.cell (11c1c37f851c82e70ff6c80c92926a4b)
REM AIRSS Version 0.9.1 bugfix July 2018 build 013d7b7c2542+ Fri, 06 Jul 2018 19:26:36 +0100
REM compiler GCC version 9.3.0
REM options -cpp -mtune=generic -march=x86-64 -g -O0
REM seed -1124744139 1412350402 -856823867 602772430 -1399355402 -394566639 -132866025 -1659374442 -524720260 444745677 872084379 2011436248 -1332856637 1102080886 1905297547 -2122006648 41254021 -2072064878 -242711242 1760966667 -129559445 -797381251 -1887050537 1347454711 1969495496 1093134511 -796364174 184959305 284405927 -753190183 -2031544938 -539889708 -67695410
REM
CELL 1.54180   50.00000   50.00000   50.00000   90.00000   90.00000   90.00000
LATT -1
SFAC C  
C      1  0.5308540000000  0.4930060000000  0.4068790000000 1.0
C      1  0.5105780000000  0.5114270000000  0.5952840000000 1.0
C      1  0.5369110000000  0.5722120000000  0.5194690000000 1.0
C      1  0.5865080000000  0.4525830000000  0.5511660000000 1.0
C      1  0.5814260000000  0.5006770000000  0.4318810000000 1.0
C      1  0.4570090000000  0.5163320000000  0.4707090000000 1.0
C      1  0.4288720000000  0.5524690000000  0.5446260000000 1.0
C      1  0.5609320000000  0.4702930000000  0.4719020000000 1.0
C      1  0.5515290000000  0.5404540000000  0.4847710000000 1.0
C      1  0.4681090000000  0.4723960000000  0.4751090000000 1.0
C      1  0.5906700000000  0.4741920000000  0.4733030000000 1.0
C      1  0.4926050000000  0.5853190000000  0.4943100000000 1.0
C      1  0.5431810000000  0.4158520000000  0.5104370000000 1.0
C      1  0.4846520000000  0.4309560000000  0.5575730000000 1.0
C      1  0.5257780000000  0.5352100000000  0.5981480000000 1.0
C      1  0.4366530000000  0.4452010000000  0.5190170000000 1.0
C      1  0.5411400000000  0.4078040000000  0.4836360000000 1.0
C      1  0.4191410000000  0.4897550000000  0.5217620000000 1.0
C      1  0.4594590000000  0.5203480000000  0.5456560000000 1.0
C      1  0.4633170000000  0.5851130000000  0.5265080000000 1.0
C      1  0.4208440000000  0.5165020000000  0.5111010000000 1.0
C      1  0.5113050000000  0.5183160000000  0.4065660000000 1.0
C      1  0.4131290000000  0.4591180000000  0.4789720000000 1.0
C      1  0.4451330000000  0.5673580000000  0.4759440000000 1.0
C      1  0.5517270000000  0.5668330000000  0.5632360000000 1.0
C      1  0.5726270000000  0.4954170000000  0.5624550000000 1.0
C      1  0.5077090000000  0.5180610000000  0.5337690000000 1.0
C      1  0.4986160000000  0.4302870000000  0.5315140000000 1.0
C      1  0.4324750000000  0.5381750000000  0.5695840000000 1.0
C      1  0.5305160000000  0.5140760000000  0.5513390000000 1.0
C      1  0.5183730000000  0.4137650000000  0.4672480000000 1.0
C      1  0.5172710000000  0.4769180000000  0.4632210000000 1.0
C      1  0.5062420000000  0.4752720000000  0.5090840000000 1.0
C      1  0.4427170000000  0.4580710000000  0.5448150000000 1.0
C      1  0.4647210000000  0.5727930000000  0.4976080000000 1.0
C      1  0.5616220000000  0.5337460000000  0.4565780000000 1.0
C      1  0.5800720000000  0.5558580000000  0.5219080000000 1.0
C      1  0.4184950000000  0.4635610000000  0.5068200000000 1.0
C      1  0.5741130000000  0.5090080000000  0.5168340000000 1.0
C      1  0.4498210000000  0.5597170000000  0.4475080000000 1.0
C      1  0.5912330000000  0.4789690000000  0.5483450000000 1.0
C      1  0.5010680000000  0.5225970000000  0.4764530000000 1.0
C      1  0.5035840000000  0.4343830000000  0.4845550000000 1.0
C      1  0.5479970000000  0.4489710000000  0.4519610000000 1.0
C      1  0.4723920000000  0.4989980000000  0.5116990000000 1.0
C      1  0.5107780000000  0.5556500000000  0.5858010000000 1.0
C      1  0.4214630000000  0.5502420000000  0.4750020000000 1.0
C      1  0.4973530000000  0.5417520000000  0.4502100000000 1.0
C      1  0.4668460000000  0.4538400000000  0.5583720000000 1.0
C      1  0.4086470000000  0.5075770000000  0.4606830000000 1.0
C      1  0.4830270000000  0.5169300000000  0.5923300000000 1.0
C      1  0.4561420000000  0.4283520000000  0.5022100000000 1.0
C      1  0.5388340000000  0.4300600000000  0.5548090000000 1.0
C      1  0.5496590000000  0.4634560000000  0.4991770000000 1.0
C      1  0.4192680000000  0.5214630000000  0.4375400000000 1.0
C      1  0.4980210000000  0.4992480000000  0.4571720000000 1.0
C      1  0.5108440000000  0.4708550000000  0.5648220000000 1.0
C      1  0.5646310000000  0.5512670000000  0.5823030000000 1.0
C      1  0.4841510000000  0.5443840000000  0.5834590000000 1.0
C      1  0.5601130000000  0.5682450000000  0.5351330000000 1.0
C      1  0.5933980000000  0.4819440000000  0.4468130000000 1.0
C      1  0.4937710000000  0.5459240000000  0.5319250000000 1.0
C      1  0.4997870000000  0.4259190000000  0.5793380000000 1.0
C      1  0.5535280000000  0.5004720000000  0.4223170000000 1.0
C      1  0.4693280000000  0.4938300000000  0.4588190000000 1.0
C      1  0.4488570000000  0.5734810000000  0.5478710000000 1.0
C      1  0.5410370000000  0.4949100000000  0.4663370000000 1.0
C      1  0.4370510000000  0.4822160000000  0.4155540000000 1.0
C      1  0.4127590000000  0.5245820000000  0.4847100000000 1.0
C      1  0.4244430000000  0.5471610000000  0.4463230000000 1.0
C      1  0.4630160000000  0.5226000000000  0.4157100000000 1.0
C      1  0.5221280000000  0.5019720000000  0.5111230000000 1.0
C      1  0.4710250000000  0.4284730000000  0.4505320000000 1.0
C      1  0.5258880000000  0.4952480000000  0.5761020000000 1.0
C      1  0.5001270000000  0.4324150000000  0.4534110000000 1.0
C      1  0.5479870000000  0.4886030000000  0.5171010000000 1.0
C      1  0.4751080000000  0.5222480000000  0.4933180000000 1.0
C      1  0.5367790000000  0.5665330000000  0.4921650000000 1.0
C      1  0.5585010000000  0.4392910000000  0.5147640000000 1.0
C      1  0.4839900000000  0.5074630000000  0.4035400000000 1.0
C      1  0.4559920000000  0.4411730000000  0.4287890000000 1.0
C      1  0.5737260000000  0.5358350000000  0.5046580000000 1.0
C      1  0.5122150000000  0.5187190000000  0.4373410000000 1.0
C      1  0.4610130000000  0.4653470000000  0.4120450000000 1.0
C      1  0.6024910000000  0.4771380000000  0.4983680000000 1.0
C      1  0.4695540000000  0.5452860000000  0.5107490000000 1.0
C      1  0.4296850000000  0.4437100000000  0.4385720000000 1.0
C      1  0.5415400000000  0.5147780000000  0.4438670000000 1.0
C      1  0.4417170000000  0.5340650000000  0.5249830000000 1.0
C      1  0.5531240000000  0.5287930000000  0.5918930000000 1.0
C      1  0.5252460000000  0.4168480000000  0.5328640000000 1.0
C      1  0.5200940000000  0.4598600000000  0.4890980000000 1.0
C      1  0.5192800000000  0.5471430000000  0.4059650000000 1.0
C      1  0.5559430000000  0.5005660000000  0.5843820000000 1.0
C      1  0.5149250000000  0.5777220000000  0.4775310000000 1.0
C      1  0.5461900000000  0.4231970000000  0.4618010000000 1.0
C      1  0.5193200000000  0.4557310000000  0.4415920000000 1.0
C      1  0.5121880000000  0.5715940000000  0.5356470000000 1.0
C      1  0.5964520000000  0.4903490000000  0.5208670000000 1.0
C      1  0.5292240000000  0.5163680000000  0.4861000000000 1.0
C      1  0.5565480000000  0.5044220000000  0.5407180000000 1.0
C      1  0.4422600000000  0.5071930000000  0.5655640000000 1.0
C      1  0.5118700000000  0.5671960000000  0.4502660000000 1.0
C      1  0.4657440000000  0.4980320000000  0.5815910000000 1.0
C      1  0.4807170000000  0.4789610000000  0.5634460000000 1.0
C      1  0.5135270000000  0.4713830000000  0.4143650000000 1.0
C      1  0.4861080000000  0.4787270000000  0.4063210000000 1.0
C      1  0.5639030000000  0.4394730000000  0.5434570000000 1.0
C      1  0.4187950000000  0.4689630000000  0.4333350000000 1.0
C      1  0.5232710000000  0.5700480000000  0.5641390000000 1.0
C      1  0.4372750000000  0.5102740000000  0.4182030000000 1.0
C      1  0.4816100000000  0.5025780000000  0.5384210000000 1.0
C      1  0.4844290000000  0.4261410000000  0.5061450000000 1.0
C      1  0.4923470000000  0.5901440000000  0.5227960000000 1.0
C      1  0.4543740000000  0.5583550000000  0.5723220000000 1.0
C      1  0.4513370000000  0.4258960000000  0.4741080000000 1.0
C      1  0.5200360000000  0.5669140000000  0.4229950000000 1.0
C      1  0.4748570000000  0.5441710000000  0.5563200000000 1.0
C      1  0.5849770000000  0.5265970000000  0.4453020000000 1.0
C      1  0.4781100000000  0.4751700000000  0.5004210000000 1.0
C      1  0.4706410000000  0.5429330000000  0.4354960000000 1.0
C      1  0.5097340000000  0.4608570000000  0.5344460000000 1.0
C      1  0.4313220000000  0.4847830000000  0.5472600000000 1.0
C      1  0.5201800000000  0.4430280000000  0.5733490000000 1.0
C      1  0.4080350000000  0.4794040000000  0.4581700000000 1.0
C      1  0.4266630000000  0.4371580000000  0.4658720000000 1.0
END
