TITL C-20225-1358-1 -18.2789251768163 125000 -435.61709341429 0 0 63 (C1) n - 1
REM
REM in /rds/project/t2_vol4/rds-t2-cs072/BORA/CARBON/from-Arr/AIRSS/Generating-Clusters/GAP-ML-2020/Only-C1/SD-CG/HFTN-CG
REM
REM
REM
REM
REM
REM ./C.cell (11c1c37f851c82e70ff6c80c92926a4b)
REM AIRSS Version 0.9.1 bugfix July 2018 build 013d7b7c2542+ Fri, 06 Jul 2018 19:26:36 +0100
REM compiler GCC version 9.3.0
REM options -cpp -mtune=generic -march=x86-64 -g -O0
REM seed -1647354479 1188055916 1159668613 1796410378 1481739251 -1175670418 1946824240 1925881524 1975430622 559760526 -685640461 -750090362 -142000012 -1085130199 -1497248024 1290839326 551253650 -1946129871 790317080 563154329 150608225 449073223 -1787501051 1319559156 -765671320 -183261070 890215034 -1953238454 -1184293238 -326873448 -1351270025 -998931765 -1772228672
REM
CELL 1.54180   50.00000   50.00000   50.00000   90.00000   90.00000   90.00000
LATT -1
SFAC C  
C      1  0.4647950000000  0.4362630000000  0.4868940000000 1.0
C      1  0.5096680000000  0.4975740000000  0.5590170000000 1.0
C      1  0.5241150000000  0.5651510000000  0.4822000000000 1.0
C      1  0.4998410000000  0.5610350000000  0.4687740000000 1.0
C      1  0.5182520000000  0.5302840000000  0.4357520000000 1.0
C      1  0.4548100000000  0.4827510000000  0.4468980000000 1.0
C      1  0.5502720000000  0.4690630000000  0.4641680000000 1.0
C      1  0.4590620000000  0.5402670000000  0.4755200000000 1.0
C      1  0.5116520000000  0.4303940000000  0.4958510000000 1.0
C      1  0.4393740000000  0.5269080000000  0.4925630000000 1.0
C      1  0.5644140000000  0.5167270000000  0.4428070000000 1.0
C      1  0.4660100000000  0.4461660000000  0.5407350000000 1.0
C      1  0.5317220000000  0.4832870000000  0.4303960000000 1.0
C      1  0.4967100000000  0.4983870000000  0.5157340000000 1.0
C      1  0.4958550000000  0.5444250000000  0.4460950000000 1.0
C      1  0.5383970000000  0.4696240000000  0.5373950000000 1.0
C      1  0.4928020000000  0.5527390000000  0.5144910000000 1.0
C      1  0.4915460000000  0.4365660000000  0.4763280000000 1.0
C      1  0.4383880000000  0.4789180000000  0.4693150000000 1.0
C      1  0.5415740000000  0.5440930000000  0.4765560000000 1.0
C      1  0.4987790000000  0.4512440000000  0.4517950000000 1.0
C      1  0.5363860000000  0.5670030000000  0.5303580000000 1.0
C      1  0.5542260000000  0.5225740000000  0.5432610000000 1.0
C      1  0.4877360000000  0.4933650000000  0.4251860000000 1.0
C      1  0.5209840000000  0.5452110000000  0.5616750000000 1.0
C      1  0.5134370000000  0.5038770000000  0.4249630000000 1.0
C      1  0.5057770000000  0.4779160000000  0.5368830000000 1.0
C      1  0.4794590000000  0.5557540000000  0.4878820000000 1.0
C      1  0.5551080000000  0.4916330000000  0.4455820000000 1.0
C      1  0.5550320000000  0.5107670000000  0.5166930000000 1.0
C      1  0.5219880000000  0.5216390000000  0.5440820000000 1.0
C      1  0.5385170000000  0.4417670000000  0.5003650000000 1.0
C      1  0.4928000000000  0.5428990000000  0.5609080000000 1.0
C      1  0.5183210000000  0.5687240000000  0.5110590000000 1.0
C      1  0.4581150000000  0.5120680000000  0.5518290000000 1.0
C      1  0.4549800000000  0.4374110000000  0.5157200000000 1.0
C      1  0.5564120000000  0.5048630000000  0.5657630000000 1.0
C      1  0.4341100000000  0.4552180000000  0.5081160000000 1.0
C      1  0.4442210000000  0.4879290000000  0.5432930000000 1.0
C      1  0.4532000000000  0.5370130000000  0.5370920000000 1.0
C      1  0.5103670000000  0.5255210000000  0.5171200000000 1.0
C      1  0.4795870000000  0.4683250000000  0.4384020000000 1.0
C      1  0.4651870000000  0.5078470000000  0.4363810000000 1.0
C      1  0.5179770000000  0.5030220000000  0.4756300000000 1.0
C      1  0.4336820000000  0.4825180000000  0.5160290000000 1.0
C      1  0.4334590000000  0.4981750000000  0.4917210000000 1.0
C      1  0.5528400000000  0.4653390000000  0.4920870000000 1.0
C      1  0.4503780000000  0.4638950000000  0.5556620000000 1.0
C      1  0.5437220000000  0.5340290000000  0.4495450000000 1.0
C      1  0.5546450000000  0.4823730000000  0.5159020000000 1.0
C      1  0.4346620000000  0.5395390000000  0.5174170000000 1.0
C      1  0.5383450000000  0.4847250000000  0.5646580000000 1.0
C      1  0.5258500000000  0.4609560000000  0.4474840000000 1.0
C      1  0.5358390000000  0.4417060000000  0.5286790000000 1.0
C      1  0.5350180000000  0.5228260000000  0.4973500000000 1.0
C      1  0.4693870000000  0.5328350000000  0.4490130000000 1.0
C      1  0.4937500000000  0.4498550000000  0.5399370000000 1.0
C      1  0.4968810000000  0.4931380000000  0.4891860000000 1.0
C      1  0.4844370000000  0.5150070000000  0.5631470000000 1.0
C      1  0.4775250000000  0.5527000000000  0.5389480000000 1.0
C      1  0.5468500000000  0.5520070000000  0.5498290000000 1.0
C      1  0.4416180000000  0.4529560000000  0.4804000000000 1.0
C      1  0.5091460000000  0.4312120000000  0.5254770000000 1.0
END
