TITL C-20236-1585-8 62.6793688203252 125000 -423.43378302048 0 0 62 (C1) n - 1
REM
REM in /rds/project/t2_vol4/rds-t2-cs072/BORA/CARBON/from-Arr/AIRSS/Generating-Clusters/GAP-ML-2020/Only-C1/SD-CG/HFTN-CG
REM
REM
REM
REM
REM
REM ./C.cell (11c1c37f851c82e70ff6c80c92926a4b)
REM AIRSS Version 0.9.1 bugfix July 2018 build 013d7b7c2542+ Fri, 06 Jul 2018 19:26:36 +0100
REM compiler GCC version 9.3.0
REM options -cpp -mtune=generic -march=x86-64 -g -O0
REM seed -1064132324 -130272782 1600659047 -650245870 1442968648 -1712033451 -1773331115 112873968 1331801705 758590894 -1605408594 421057803 2130963302 -1919017285 1890089495 1447737546 1224308495 1204465961 -333089962 -128898907 -332676818 -1686716689 -315777897 -1879145594 -41366702 12883868 -1317415300 704276282 -365079498 -916515404 1148861875 306364105 -496745414
REM
CELL 1.54180   50.00000   50.00000   50.00000   90.00000   90.00000   90.00000
LATT -1
SFAC C  
C      1  0.4729870000000  0.4659080000000  0.5398640000000 1.0
C      1  0.5493780000000  0.5136230000000  0.4974980000000 1.0
C      1  0.4957880000000  0.5646790000000  0.4716100000000 1.0
C      1  0.5680860000000  0.4905830000000  0.5349420000000 1.0
C      1  0.5173460000000  0.4491470000000  0.5414820000000 1.0
C      1  0.4772120000000  0.5628050000000  0.4927290000000 1.0
C      1  0.5309340000000  0.5452780000000  0.4359400000000 1.0
C      1  0.4862460000000  0.5218370000000  0.5772960000000 1.0
C      1  0.5337280000000  0.5175410000000  0.4273880000000 1.0
C      1  0.5496160000000  0.5214670000000  0.4705350000000 1.0
C      1  0.5024180000000  0.5135050000000  0.4917490000000 1.0
C      1  0.5254600000000  0.4790870000000  0.4552060000000 1.0
C      1  0.5226020000000  0.5625670000000  0.4817360000000 1.0
C      1  0.5030040000000  0.5443170000000  0.4271260000000 1.0
C      1  0.4537410000000  0.4124750000000  0.5276000000000 1.0
C      1  0.4659340000000  0.5221090000000  0.5273940000000 1.0
C      1  0.4883380000000  0.4905770000000  0.4978180000000 1.0
C      1  0.5014870000000  0.5321370000000  0.5539170000000 1.0
C      1  0.5438870000000  0.4535890000000  0.4939780000000 1.0
C      1  0.4900700000000  0.4404040000000  0.5371800000000 1.0
C      1  0.5393220000000  0.4491340000000  0.5233460000000 1.0
C      1  0.4975880000000  0.4890680000000  0.4515770000000 1.0
C      1  0.5269580000000  0.5466410000000  0.5558610000000 1.0
C      1  0.4597600000000  0.5364560000000  0.4589900000000 1.0
C      1  0.5274090000000  0.4938950000000  0.5570190000000 1.0
C      1  0.4915700000000  0.5619820000000  0.5168810000000 1.0
C      1  0.5094590000000  0.5066160000000  0.5369830000000 1.0
C      1  0.4861010000000  0.4736210000000  0.5665320000000 1.0
C      1  0.4286070000000  0.5062530000000  0.5052890000000 1.0
C      1  0.4826330000000  0.4935460000000  0.5264500000000 1.0
C      1  0.5268900000000  0.4549690000000  0.4706340000000 1.0
C      1  0.4464440000000  0.5278430000000  0.5079330000000 1.0
C      1  0.4457880000000  0.4341350000000  0.5119250000000 1.0
C      1  0.5230860000000  0.5158090000000  0.5109430000000 1.0
C      1  0.4461310000000  0.4600420000000  0.5280090000000 1.0
C      1  0.4789100000000  0.4976220000000  0.5774340000000 1.0
C      1  0.4784060000000  0.4454320000000  0.4741740000000 1.0
C      1  0.4772870000000  0.4155650000000  0.5379400000000 1.0
C      1  0.4825970000000  0.5434110000000  0.5350950000000 1.0
C      1  0.5691740000000  0.4959720000000  0.5062740000000 1.0
C      1  0.4561270000000  0.5445420000000  0.4865320000000 1.0
C      1  0.5151520000000  0.4691690000000  0.5617130000000 1.0
C      1  0.5683260000000  0.4679110000000  0.4992130000000 1.0
C      1  0.4313690000000  0.4848510000000  0.4867060000000 1.0
C      1  0.4321430000000  0.4801580000000  0.5147770000000 1.0
C      1  0.5387520000000  0.5474510000000  0.4632200000000 1.0
C      1  0.5208980000000  0.5634970000000  0.5109440000000 1.0
C      1  0.5013220000000  0.5167310000000  0.4640590000000 1.0
C      1  0.4869960000000  0.5452130000000  0.4512660000000 1.0
C      1  0.4775210000000  0.4764400000000  0.4722150000000 1.0
C      1  0.4621000000000  0.5041330000000  0.4237430000000 1.0
C      1  0.5044710000000  0.4379800000000  0.4682150000000 1.0
C      1  0.4884010000000  0.4976650000000  0.4235720000000 1.0
C      1  0.5527250000000  0.5058640000000  0.5526270000000 1.0
C      1  0.5075820000000  0.5169730000000  0.4162180000000 1.0
C      1  0.5375810000000  0.5577790000000  0.5332710000000 1.0
C      1  0.5638800000000  0.4632130000000  0.5293380000000 1.0
C      1  0.4566360000000  0.4345670000000  0.4869450000000 1.0
C      1  0.5434710000000  0.5016850000000  0.4492000000000 1.0
C      1  0.4515620000000  0.5107570000000  0.4484680000000 1.0
C      1  0.4508270000000  0.4879990000000  0.4666250000000 1.0
C      1  0.5497810000000  0.5337780000000  0.5488620000000 1.0
END
