TITL C-20278-307-4 -0.190220725564455 125000 -789.905905802699 0 0 112 (C1) n - 1
REM
REM in /rds/project/t2_vol4/rds-t2-cs072/BORA/CARBON/from-Arr/AIRSS/Generating-Clusters/GAP-ML-2020/Only-C1/SD-CG/HFTN-CG
REM
REM
REM
REM
REM
REM ./C.cell (11c1c37f851c82e70ff6c80c92926a4b)
REM AIRSS Version 0.9.1 bugfix July 2018 build 013d7b7c2542+ Fri, 06 Jul 2018 19:26:36 +0100
REM compiler GCC version 9.3.0
REM options -cpp -mtune=generic -march=x86-64 -g -O0
REM seed 1552101216 -621359980 -1367987771 -1931131846 667085502 -1766761870 -492478138 590198267 -694966235 600187540 -1304230904 -297717916 -1829667574 -195761606 481546980 156544143 -1667233177 -1391517555 -1076460797 1092411334 -974377506 1082757678 1711532045 -1767414286 1468378053 -198344470 -1740430178 -538473947 -804123251 -439552772 560877262 1158675909 -563824934
REM
CELL 1.54180   50.00000   50.00000   50.00000   90.00000   90.00000   90.00000
LATT -1
SFAC C  
C      1  0.4444960000000  0.4853770000000  0.4611010000000 1.0
C      1  0.4610940000000  0.4479110000000  0.4895520000000 1.0
C      1  0.5035820000000  0.4849330000000  0.5372740000000 1.0
C      1  0.5407330000000  0.5168340000000  0.4844660000000 1.0
C      1  0.5243850000000  0.4971550000000  0.5207950000000 1.0
C      1  0.4023540000000  0.5149580000000  0.4727260000000 1.0
C      1  0.4890030000000  0.4460280000000  0.5759730000000 1.0
C      1  0.5026850000000  0.4663900000000  0.5915300000000 1.0
C      1  0.4826140000000  0.5181700000000  0.5130410000000 1.0
C      1  0.4136780000000  0.5192910000000  0.4457680000000 1.0
C      1  0.5067090000000  0.5824830000000  0.4816900000000 1.0
C      1  0.4722220000000  0.4666330000000  0.4283460000000 1.0
C      1  0.4926340000000  0.4185460000000  0.5388900000000 1.0
C      1  0.4640980000000  0.5718020000000  0.4964340000000 1.0
C      1  0.5776690000000  0.4890510000000  0.5075350000000 1.0
C      1  0.5401060000000  0.4944610000000  0.5903000000000 1.0
C      1  0.5312680000000  0.4675550000000  0.5890220000000 1.0
C      1  0.5498970000000  0.5713380000000  0.5570090000000 1.0
C      1  0.5067160000000  0.4289500000000  0.5610490000000 1.0
C      1  0.4554440000000  0.5478370000000  0.4312930000000 1.0
C      1  0.5294440000000  0.5231680000000  0.4143370000000 1.0
C      1  0.5763970000000  0.4697800000000  0.5307200000000 1.0
C      1  0.4114830000000  0.4704780000000  0.4911740000000 1.0
C      1  0.4702170000000  0.5062840000000  0.5874280000000 1.0
C      1  0.4873670000000  0.5042880000000  0.4008700000000 1.0
C      1  0.5584860000000  0.5280810000000  0.5295600000000 1.0
C      1  0.5923850000000  0.5163650000000  0.5023350000000 1.0
C      1  0.5597380000000  0.4992490000000  0.5703320000000 1.0
C      1  0.4322970000000  0.5186770000000  0.5119710000000 1.0
C      1  0.4744520000000  0.4797500000000  0.4555350000000 1.0
C      1  0.5518240000000  0.5056070000000  0.5112530000000 1.0
C      1  0.4271210000000  0.4625990000000  0.4684990000000 1.0
C      1  0.4907350000000  0.5072160000000  0.4627490000000 1.0
C      1  0.5476950000000  0.4546780000000  0.5699270000000 1.0
C      1  0.4482560000000  0.5040090000000  0.4153540000000 1.0
C      1  0.5585830000000  0.5248310000000  0.5588650000000 1.0
C      1  0.4222130000000  0.5019590000000  0.5354470000000 1.0
C      1  0.4950540000000  0.5481210000000  0.5717700000000 1.0
C      1  0.4672950000000  0.4844380000000  0.4069460000000 1.0
C      1  0.4805640000000  0.4866690000000  0.5193580000000 1.0
C      1  0.5134730000000  0.4207960000000  0.4907300000000 1.0
C      1  0.5608580000000  0.5389890000000  0.4737730000000 1.0
C      1  0.4963340000000  0.4709950000000  0.4991530000000 1.0
C      1  0.4471540000000  0.4923720000000  0.5757290000000 1.0
C      1  0.5803440000000  0.4979160000000  0.4615530000000 1.0
C      1  0.4584060000000  0.5636210000000  0.5229880000000 1.0
C      1  0.5000370000000  0.5671510000000  0.5507980000000 1.0
C      1  0.4549660000000  0.5347240000000  0.5258250000000 1.0
C      1  0.5377410000000  0.4536180000000  0.4558850000000 1.0
C      1  0.4271130000000  0.4659290000000  0.5144440000000 1.0
C      1  0.4827400000000  0.5764010000000  0.5314430000000 1.0
C      1  0.4427390000000  0.4672650000000  0.5622980000000 1.0
C      1  0.5147830000000  0.4998030000000  0.4059640000000 1.0
C      1  0.4326740000000  0.5481490000000  0.4728270000000 1.0
C      1  0.4542730000000  0.4740000000000  0.5051440000000 1.0
C      1  0.4509720000000  0.5326770000000  0.5549450000000 1.0
C      1  0.4541290000000  0.4291420000000  0.4454520000000 1.0
C      1  0.4489100000000  0.4993750000000  0.4890860000000 1.0
C      1  0.5034880000000  0.4334500000000  0.4375610000000 1.0
C      1  0.4756370000000  0.5547910000000  0.4516700000000 1.0
C      1  0.5329950000000  0.5733070000000  0.4766360000000 1.0
C      1  0.5378890000000  0.4232790000000  0.5038290000000 1.0
C      1  0.4715520000000  0.5322800000000  0.5744500000000 1.0
C      1  0.4945770000000  0.4945650000000  0.5958000000000 1.0
C      1  0.5531900000000  0.5226750000000  0.4293890000000 1.0
C      1  0.5685950000000  0.5739570000000  0.5383720000000 1.0
C      1  0.5140060000000  0.5424710000000  0.4275750000000 1.0
C      1  0.4657090000000  0.4294240000000  0.5389280000000 1.0
C      1  0.5271240000000  0.5657490000000  0.5413380000000 1.0
C      1  0.5192030000000  0.5373850000000  0.5826110000000 1.0
C      1  0.4687190000000  0.5252740000000  0.4155660000000 1.0
C      1  0.4755800000000  0.4376930000000  0.4308900000000 1.0
C      1  0.5356010000000  0.4831860000000  0.4477620000000 1.0
C      1  0.5511310000000  0.5590480000000  0.4946520000000 1.0
C      1  0.5208080000000  0.4818360000000  0.4958200000000 1.0
C      1  0.4625970000000  0.4462950000000  0.5621640000000 1.0
C      1  0.4898320000000  0.5297690000000  0.4403660000000 1.0
C      1  0.5438520000000  0.5457110000000  0.5707570000000 1.0
C      1  0.5116470000000  0.5244630000000  0.5171390000000 1.0
C      1  0.4615290000000  0.5499710000000  0.4777340000000 1.0
C      1  0.4164320000000  0.5325740000000  0.4901260000000 1.0
C      1  0.4725520000000  0.5185580000000  0.4850970000000 1.0
C      1  0.4335180000000  0.5115790000000  0.5593040000000 1.0
C      1  0.4662780000000  0.4266740000000  0.5099110000000 1.0
C      1  0.4991820000000  0.5721610000000  0.4559080000000 1.0
C      1  0.5454500000000  0.4296390000000  0.5311960000000 1.0
C      1  0.5779480000000  0.4766070000000  0.4796630000000 1.0
C      1  0.5180140000000  0.5114670000000  0.5942790000000 1.0
C      1  0.5276060000000  0.5608350000000  0.4472900000000 1.0
C      1  0.5346530000000  0.4334220000000  0.5566830000000 1.0
C      1  0.5253240000000  0.4489890000000  0.4276140000000 1.0
C      1  0.5655020000000  0.4744200000000  0.5571030000000 1.0
C      1  0.5243820000000  0.4769130000000  0.4204410000000 1.0
C      1  0.4859410000000  0.4589060000000  0.4750680000000 1.0
C      1  0.5524680000000  0.5451860000000  0.4469160000000 1.0
C      1  0.5338990000000  0.5459210000000  0.5199900000000 1.0
C      1  0.5755650000000  0.5654160000000  0.5137420000000 1.0
C      1  0.5628980000000  0.4532190000000  0.4721500000000 1.0
C      1  0.3959340000000  0.4920760000000  0.4854310000000 1.0
C      1  0.5098990000000  0.4394500000000  0.4666710000000 1.0
C      1  0.4932320000000  0.4161750000000  0.5101350000000 1.0
C      1  0.5678990000000  0.4448470000000  0.5214040000000 1.0
C      1  0.4419300000000  0.4396040000000  0.4675680000000 1.0
C      1  0.4889180000000  0.5835790000000  0.5034510000000 1.0
C      1  0.5854700000000  0.5219710000000  0.4758010000000 1.0
C      1  0.5609310000000  0.4980620000000  0.4412230000000 1.0
C      1  0.5610560000000  0.4372670000000  0.4945510000000 1.0
C      1  0.4241050000000  0.4737530000000  0.5403700000000 1.0
C      1  0.5842270000000  0.5377190000000  0.5188700000000 1.0
C      1  0.4320470000000  0.5000150000000  0.4379980000000 1.0
C      1  0.4304660000000  0.5422530000000  0.4453830000000 1.0
C      1  0.5203710000000  0.4992930000000  0.4713930000000 1.0
END
