TITL C-20262-1483-9 -8.49087228834288 125000 -290.086536756027 0 0 43 (C1) n - 1
REM
REM in /rds/project/t2_vol4/rds-t2-cs072/BORA/CARBON/from-Arr/AIRSS/Generating-Clusters/GAP-ML-2020/Only-C1/SD-CG/HFTN-CG
REM
REM
REM
REM
REM
REM ./C.cell (11c1c37f851c82e70ff6c80c92926a4b)
REM AIRSS Version 0.9.1 bugfix July 2018 build 013d7b7c2542+ Fri, 06 Jul 2018 19:26:36 +0100
REM compiler GCC version 9.3.0
REM options -cpp -mtune=generic -march=x86-64 -g -O0
REM seed -1201506235 -1852489787 2041717123 -1543388129 -496408339 87000657 974396843 -829073543 1508825003 577212247 685905879 -1812462903 1851457725 -124529613 353753861 -1233541900 1645909806 -1441891495 67278689 -1677533400 831063402 -272731484 1377457514 -1125868693 297224131 2076209974 -983939175 -1445800552 1779279304 -1140215389 -29039569 169391126 -1235288672
REM
CELL 1.54180   50.00000   50.00000   50.00000   90.00000   90.00000   90.00000
LATT -1
SFAC C  
C      1  0.5073620000000  0.5133990000000  0.5558700000000 1.0
C      1  0.5422160000000  0.4460850000000  0.4989600000000 1.0
C      1  0.4925220000000  0.4492720000000  0.5204960000000 1.0
C      1  0.5274570000000  0.5504010000000  0.4976960000000 1.0
C      1  0.4460240000000  0.5375220000000  0.5310930000000 1.0
C      1  0.4952990000000  0.5401340000000  0.4645790000000 1.0
C      1  0.5342110000000  0.5432100000000  0.5250040000000 1.0
C      1  0.5397980000000  0.5367410000000  0.4765650000000 1.0
C      1  0.4811380000000  0.5579270000000  0.5095730000000 1.0
C      1  0.4673820000000  0.5353450000000  0.5478280000000 1.0
C      1  0.5403520000000  0.4791410000000  0.5360930000000 1.0
C      1  0.5527430000000  0.5238880000000  0.5268860000000 1.0
C      1  0.5203810000000  0.5289850000000  0.4550170000000 1.0
C      1  0.5350580000000  0.5033260000000  0.4524180000000 1.0
C      1  0.5534440000000  0.5125470000000  0.4735550000000 1.0
C      1  0.5165070000000  0.4871290000000  0.5482140000000 1.0
C      1  0.4711550000000  0.5249940000000  0.4629530000000 1.0
C      1  0.4770280000000  0.4976640000000  0.4557300000000 1.0
C      1  0.5056070000000  0.4635590000000  0.4598270000000 1.0
C      1  0.5581490000000  0.4917740000000  0.4920470000000 1.0
C      1  0.5004940000000  0.5549160000000  0.4895790000000 1.0
C      1  0.4296770000000  0.4802690000000  0.4834830000000 1.0
C      1  0.4449560000000  0.4638300000000  0.4675890000000 1.0
C      1  0.5314060000000  0.4747390000000  0.4571380000000 1.0
C      1  0.5197420000000  0.4381730000000  0.5169300000000 1.0
C      1  0.4707760000000  0.4858590000000  0.5510040000000 1.0
C      1  0.5469500000000  0.4677850000000  0.4810750000000 1.0
C      1  0.5549010000000  0.4982350000000  0.5200930000000 1.0
C      1  0.4623820000000  0.4738390000000  0.4466290000000 1.0
C      1  0.4885170000000  0.5519260000000  0.5370840000000 1.0
C      1  0.4967750000000  0.5115510000000  0.5118160000000 1.0
C      1  0.4931950000000  0.4847210000000  0.4765950000000 1.0
C      1  0.4362070000000  0.5045420000000  0.4874610000000 1.0
C      1  0.4783660000000  0.5113030000000  0.5582090000000 1.0
C      1  0.5129030000000  0.5400390000000  0.5442120000000 1.0
C      1  0.4917440000000  0.4700150000000  0.5427940000000 1.0
C      1  0.4738770000000  0.4466800000000  0.5009440000000 1.0
C      1  0.4553860000000  0.5451270000000  0.5056370000000 1.0
C      1  0.5097240000000  0.4977330000000  0.4949410000000 1.0
C      1  0.4506100000000  0.5279730000000  0.4830620000000 1.0
C      1  0.4821150000000  0.4510310000000  0.4512540000000 1.0
C      1  0.4645080000000  0.4436720000000  0.4759710000000 1.0
C      1  0.5409540000000  0.4529980000000  0.5260990000000 1.0
END
