TITL C-20638-1313-4 697.170592351741 125000 -825.659796346818 0 0 118 (C1) n - 1
REM
REM in /rds/project/t2_vol4/rds-t2-cs072/BORA/CARBON/from-Arr/AIRSS/Generating-Clusters/GAP-ML-2020/Only-C1/SD-CG/HFTN-CG
REM
REM
REM
REM
REM
REM ./C.cell (11c1c37f851c82e70ff6c80c92926a4b)
REM AIRSS Version 0.9.1 bugfix July 2018 build 013d7b7c2542+ Fri, 06 Jul 2018 19:26:36 +0100
REM compiler GCC version 9.3.0
REM options -cpp -mtune=generic -march=x86-64 -g -O0
REM seed 2118380352 2079933320 -505248946 1257102337 1322832728 -1663281697 -1932287483 -53376954 -1638511042 -2069709498 1943730382 1791256882 -158253210 -1667548824 -1365852338 -623655250 63882651 -1064300114 -1623342356 -1116843698 1058098979 1377245038 1034989647 -1766187051 1842189678 2019191618 114821836 -1827659458 -691758570 -12976010 -1542872502 1582271599 -1401496994
REM
CELL 1.54180   50.00000   50.00000   50.00000   90.00000   90.00000   90.00000
LATT -1
SFAC C  
C      1  0.4527250000000  0.4933860000000  0.4994560000000 1.0
C      1  0.4707350000000  0.5612120000000  0.5570980000000 1.0
C      1  0.5759950000000  0.5230600000000  0.4462820000000 1.0
C      1  0.5441750000000  0.5745300000000  0.4748680000000 1.0
C      1  0.4626460000000  0.4137080000000  0.5242210000000 1.0
C      1  0.4986260000000  0.4730250000000  0.4119850000000 1.0
C      1  0.4387860000000  0.5120360000000  0.4434850000000 1.0
C      1  0.4489250000000  0.5513470000000  0.5413380000000 1.0
C      1  0.5396850000000  0.4456250000000  0.5446170000000 1.0
C      1  0.4516020000000  0.4763300000000  0.5250340000000 1.0
C      1  0.5326520000000  0.5846860000000  0.5277340000000 1.0
C      1  0.5560320000000  0.4696920000000  0.5448870000000 1.0
C      1  0.4159590000000  0.4643370000000  0.4995610000000 1.0
C      1  0.5667630000000  0.4980030000000  0.4366630000000 1.0
C      1  0.5171270000000  0.5776640000000  0.5506590000000 1.0
C      1  0.4578960000000  0.5100770000000  0.4204830000000 1.0
C      1  0.4403230000000  0.5273550000000  0.5548270000000 1.0
C      1  0.5887960000000  0.5829000000000  0.4799500000000 1.0
C      1  0.4670890000000  0.5346280000000  0.4139740000000 1.0
C      1  0.4739540000000  0.4765230000000  0.5459320000000 1.0
C      1  0.4707170000000  0.5752300000000  0.4717500000000 1.0
C      1  0.4162340000000  0.5163510000000  0.4968810000000 1.0
C      1  0.5541800000000  0.4543500000000  0.4580120000000 1.0
C      1  0.5573880000000  0.5430480000000  0.4389510000000 1.0
C      1  0.4906690000000  0.4481560000000  0.4251650000000 1.0
C      1  0.5571330000000  0.5697980000000  0.5232100000000 1.0
C      1  0.4778350000000  0.4791390000000  0.4899780000000 1.0
C      1  0.5341930000000  0.4102820000000  0.5103990000000 1.0
C      1  0.5047410000000  0.4623830000000  0.5760900000000 1.0
C      1  0.5459790000000  0.5168320000000  0.5715650000000 1.0
C      1  0.4245350000000  0.4398850000000  0.5391300000000 1.0
C      1  0.4936740000000  0.4657510000000  0.5255510000000 1.0
C      1  0.4846490000000  0.5142560000000  0.4695450000000 1.0
C      1  0.5441730000000  0.5019630000000  0.4187750000000 1.0
C      1  0.5087140000000  0.4075190000000  0.5230310000000 1.0
C      1  0.4371790000000  0.4256110000000  0.5176440000000 1.0
C      1  0.4549640000000  0.5607100000000  0.4523610000000 1.0
C      1  0.5208770000000  0.5148620000000  0.5839570000000 1.0
C      1  0.5827880000000  0.5210160000000  0.4734560000000 1.0
C      1  0.4054020000000  0.5187050000000  0.5211240000000 1.0
C      1  0.5188320000000  0.5311150000000  0.5261350000000 1.0
C      1  0.5021530000000  0.4190340000000  0.5496120000000 1.0
C      1  0.5129260000000  0.4351350000000  0.4377020000000 1.0
C      1  0.5111560000000  0.5156230000000  0.4843730000000 1.0
C      1  0.5681410000000  0.5217910000000  0.5181580000000 1.0
C      1  0.5797950000000  0.4932340000000  0.5088460000000 1.0
C      1  0.4156220000000  0.4849130000000  0.5516240000000 1.0
C      1  0.4793090000000  0.5411440000000  0.5766080000000 1.0
C      1  0.5848690000000  0.5833050000000  0.4544550000000 1.0
C      1  0.4983800000000  0.4919650000000  0.5106370000000 1.0
C      1  0.5524660000000  0.4268230000000  0.5255700000000 1.0
C      1  0.4985690000000  0.5758830000000  0.4620400000000 1.0
C      1  0.5166610000000  0.5428710000000  0.4284890000000 1.0
C      1  0.5677250000000  0.4426460000000  0.5076290000000 1.0
C      1  0.4377090000000  0.5387540000000  0.4590390000000 1.0
C      1  0.5396380000000  0.5306260000000  0.4164110000000 1.0
C      1  0.5118950000000  0.4907830000000  0.5684290000000 1.0
C      1  0.5097670000000  0.5406730000000  0.4990940000000 1.0
C      1  0.4717450000000  0.4846610000000  0.4155820000000 1.0
C      1  0.5261080000000  0.5582730000000  0.5689920000000 1.0
C      1  0.4315080000000  0.4874160000000  0.4562220000000 1.0
C      1  0.5195760000000  0.5909540000000  0.4789180000000 1.0
C      1  0.5375440000000  0.4506580000000  0.4319160000000 1.0
C      1  0.5177150000000  0.4397320000000  0.5631420000000 1.0
C      1  0.4854880000000  0.5023860000000  0.5538820000000 1.0
C      1  0.5502180000000  0.5431830000000  0.5626260000000 1.0
C      1  0.4428110000000  0.4391020000000  0.4674610000000 1.0
C      1  0.5255880000000  0.4787090000000  0.4238560000000 1.0
C      1  0.4629160000000  0.4602670000000  0.4284770000000 1.0
C      1  0.5245960000000  0.4593160000000  0.4709140000000 1.0
C      1  0.5373060000000  0.4171110000000  0.4826340000000 1.0
C      1  0.5206170000000  0.5552550000000  0.4747210000000 1.0
C      1  0.4354570000000  0.4453700000000  0.5641720000000 1.0
C      1  0.4980840000000  0.5640030000000  0.4343470000000 1.0
C      1  0.4316270000000  0.4735390000000  0.5719140000000 1.0
C      1  0.4658030000000  0.5777320000000  0.4999920000000 1.0
C      1  0.4551620000000  0.4853450000000  0.5821340000000 1.0
C      1  0.4628730000000  0.5147370000000  0.5710430000000 1.0
C      1  0.4634110000000  0.5198150000000  0.4902700000000 1.0
C      1  0.4869160000000  0.5878570000000  0.5169210000000 1.0
C      1  0.4710580000000  0.4579270000000  0.5088640000000 1.0
C      1  0.4891930000000  0.5790110000000  0.5443290000000 1.0
C      1  0.4167200000000  0.5129800000000  0.5460700000000 1.0
C      1  0.4421410000000  0.4610760000000  0.4483640000000 1.0
C      1  0.5746460000000  0.5373580000000  0.4946950000000 1.0
C      1  0.5296470000000  0.4676310000000  0.4976740000000 1.0
C      1  0.5136330000000  0.4271650000000  0.4670030000000 1.0
C      1  0.5300650000000  0.5355150000000  0.4546000000000 1.0
C      1  0.5136570000000  0.5930900000000  0.5069460000000 1.0
C      1  0.5727340000000  0.4688570000000  0.5215740000000 1.0
C      1  0.4871350000000  0.4868320000000  0.4631430000000 1.0
C      1  0.4372980000000  0.5358600000000  0.4881490000000 1.0
C      1  0.5643200000000  0.5471030000000  0.5387820000000 1.0
C      1  0.4876080000000  0.4162480000000  0.4788740000000 1.0
C      1  0.4525930000000  0.5544360000000  0.5116010000000 1.0
C      1  0.4852040000000  0.4079770000000  0.5069810000000 1.0
C      1  0.5596360000000  0.5699710000000  0.4495490000000 1.0
C      1  0.4195180000000  0.4665640000000  0.5287910000000 1.0
C      1  0.4928750000000  0.5160770000000  0.5287280000000 1.0
C      1  0.4250540000000  0.4891570000000  0.4853120000000 1.0
C      1  0.5188420000000  0.4532420000000  0.5195970000000 1.0
C      1  0.4794720000000  0.5352530000000  0.5092180000000 1.0
C      1  0.5394480000000  0.5103870000000  0.5239430000000 1.0
C      1  0.5663830000000  0.5664490000000  0.4953690000000 1.0
C      1  0.5158630000000  0.4828870000000  0.4545080000000 1.0
C      1  0.4614070000000  0.4370190000000  0.5695580000000 1.0
C      1  0.4638690000000  0.4219340000000  0.4673590000000 1.0
C      1  0.5812750000000  0.4937290000000  0.4805700000000 1.0
C      1  0.4289950000000  0.4400130000000  0.4930530000000 1.0
C      1  0.5414520000000  0.4947710000000  0.5516660000000 1.0
C      1  0.5072090000000  0.5402980000000  0.5819200000000 1.0
C      1  0.4711510000000  0.5570440000000  0.4286340000000 1.0
C      1  0.4754540000000  0.4624110000000  0.5754620000000 1.0
C      1  0.5700100000000  0.4785860000000  0.4577310000000 1.0
C      1  0.4739500000000  0.4196490000000  0.5506920000000 1.0
C      1  0.5295050000000  0.5076220000000  0.4645430000000 1.0
C      1  0.5255340000000  0.4956130000000  0.5013560000000 1.0
C      1  0.5602520000000  0.4345500000000  0.4801770000000 1.0
END
