TITL C-20263-1492-5 -0.105541738834499 125000 -374.580874187356 0 0 56 (C1) n - 1
REM
REM in /rds/project/t2_vol4/rds-t2-cs072/BORA/CARBON/from-Arr/AIRSS/Generating-Clusters/GAP-ML-2020/Only-C1/SD-CG/HFTN-CG
REM
REM
REM
REM
REM
REM ./C.cell (11c1c37f851c82e70ff6c80c92926a4b)
REM AIRSS Version 0.9.1 bugfix July 2018 build 013d7b7c2542+ Fri, 06 Jul 2018 19:26:36 +0100
REM compiler GCC version 9.3.0
REM options -cpp -mtune=generic -march=x86-64 -g -O0
REM seed 1701215704 -1373039495 -508778105 666850281 -1888585519 71943356 1823946047 1071645291 -646275184 -2014542759 2063635918 -1179203109 -981970072 -614047390 1823372977 1265639196 1330062085 336751439 547846989 -673170148 1277839359 -1519201345 1891356126 437529582 571120115 -997729318 -1677019789 506629972 600743749 -1164133803 -97658168 -17912347 344664554
REM
CELL 1.54180   50.00000   50.00000   50.00000   90.00000   90.00000   90.00000
LATT -1
SFAC C  
C      1  0.4748000000000  0.4732330000000  0.5626600000000 1.0
C      1  0.4746620000000  0.4645430000000  0.4520480000000 1.0
C      1  0.4918330000000  0.4943700000000  0.4826730000000 1.0
C      1  0.4752140000000  0.5628890000000  0.5007520000000 1.0
C      1  0.5183200000000  0.5229680000000  0.4392540000000 1.0
C      1  0.5194020000000  0.4729970000000  0.4417350000000 1.0
C      1  0.5532270000000  0.5177240000000  0.4745530000000 1.0
C      1  0.5157870000000  0.5622490000000  0.4718140000000 1.0
C      1  0.4810320000000  0.5064410000000  0.5077360000000 1.0
C      1  0.4373080000000  0.5238450000000  0.4500480000000 1.0
C      1  0.4916620000000  0.5615410000000  0.5239130000000 1.0
C      1  0.5083570000000  0.4723380000000  0.4906440000000 1.0
C      1  0.4547850000000  0.5210720000000  0.5079450000000 1.0
C      1  0.4793060000000  0.4933650000000  0.4546060000000 1.0
C      1  0.4801850000000  0.4419290000000  0.5270660000000 1.0
C      1  0.4978720000000  0.5437380000000  0.5460970000000 1.0
C      1  0.5076680000000  0.4494670000000  0.5349180000000 1.0
C      1  0.5492140000000  0.4897450000000  0.4774040000000 1.0
C      1  0.4526970000000  0.5429750000000  0.4632060000000 1.0
C      1  0.4988410000000  0.4992030000000  0.5318400000000 1.0
C      1  0.4485990000000  0.4858280000000  0.5356720000000 1.0
C      1  0.4434050000000  0.4828580000000  0.4816150000000 1.0
C      1  0.5192750000000  0.4831670000000  0.5723930000000 1.0
C      1  0.4492880000000  0.5011990000000  0.4588860000000 1.0
C      1  0.5033960000000  0.5189650000000  0.4933860000000 1.0
C      1  0.5001760000000  0.4526970000000  0.4490400000000 1.0
C      1  0.5332180000000  0.4852340000000  0.5013560000000 1.0
C      1  0.5322590000000  0.5573210000000  0.4940020000000 1.0
C      1  0.5510680000000  0.5003900000000  0.5416300000000 1.0
C      1  0.5272040000000  0.5465580000000  0.5390280000000 1.0
C      1  0.5117730000000  0.5098410000000  0.5747690000000 1.0
C      1  0.5378590000000  0.5030370000000  0.5659850000000 1.0
C      1  0.5437700000000  0.4691960000000  0.4584300000000 1.0
C      1  0.5439330000000  0.5221270000000  0.4498380000000 1.0
C      1  0.4648720000000  0.4996300000000  0.5571920000000 1.0
C      1  0.5059490000000  0.5464490000000  0.4489040000000 1.0
C      1  0.5399570000000  0.4434580000000  0.4748470000000 1.0
C      1  0.5053330000000  0.4975750000000  0.4380240000000 1.0
C      1  0.4419940000000  0.4958750000000  0.5095070000000 1.0
C      1  0.5439730000000  0.5250580000000  0.5253580000000 1.0
C      1  0.4560950000000  0.4580790000000  0.4719180000000 1.0
C      1  0.4543550000000  0.5443470000000  0.4929020000000 1.0
C      1  0.5500910000000  0.5351430000000  0.4974420000000 1.0
C      1  0.5354780000000  0.4492420000000  0.5240970000000 1.0
C      1  0.4612430000000  0.4600010000000  0.5418960000000 1.0
C      1  0.5466880000000  0.4760990000000  0.5251990000000 1.0
C      1  0.5221910000000  0.5087670000000  0.5147310000000 1.0
C      1  0.4905860000000  0.5173990000000  0.5553430000000 1.0
C      1  0.5454130000000  0.4379820000000  0.5003710000000 1.0
C      1  0.5201960000000  0.5644740000000  0.5181860000000 1.0
C      1  0.5024510000000  0.4720770000000  0.5519430000000 1.0
C      1  0.5116620000000  0.4483440000000  0.4743120000000 1.0
C      1  0.4782110000000  0.5542710000000  0.4549190000000 1.0
C      1  0.4884560000000  0.5703860000000  0.4774020000000 1.0
C      1  0.4696630000000  0.4280330000000  0.5053870000000 1.0
C      1  0.4577510000000  0.4322640000000  0.4831780000000 1.0
END
