TITL C-20669-1270-6 453.246202566471 125000 -689.260294404068 0 0 101 (C1) n - 1
REM
REM in /rds/project/t2_vol4/rds-t2-cs072/BORA/CARBON/from-Arr/AIRSS/Generating-Clusters/GAP-ML-2020/Only-C1/SD-CG/HFTN-CG
REM
REM
REM
REM
REM
REM ./C.cell (11c1c37f851c82e70ff6c80c92926a4b)
REM AIRSS Version 0.9.1 bugfix July 2018 build 013d7b7c2542+ Fri, 06 Jul 2018 19:26:36 +0100
REM compiler GCC version 9.3.0
REM options -cpp -mtune=generic -march=x86-64 -g -O0
REM seed -1751279839 -91187368 2136652837 235556674 1442177388 2102904169 117528296 1184047742 -968139041 1928982988 223651250 845350405 -1298837942 -196955813 -69381713 1647425611 1012618006 31355092 -405743408 712980136 1333832137 877747580 650333792 -465930450 -1099074017 2034538621 2122867658 -281187827 -742086841 1210369670 264196981 -1575992339 205104208
REM
CELL 1.54180   50.00000   50.00000   50.00000   90.00000   90.00000   90.00000
LATT -1
SFAC C  
C      1  0.5986630000000  0.4872940000000  0.4883400000000 1.0
C      1  0.4984600000000  0.4624500000000  0.4995200000000 1.0
C      1  0.4818760000000  0.4839000000000  0.5865910000000 1.0
C      1  0.5671180000000  0.4655130000000  0.5486080000000 1.0
C      1  0.4966980000000  0.4302230000000  0.5350880000000 1.0
C      1  0.5117610000000  0.4857980000000  0.5888000000000 1.0
C      1  0.4413280000000  0.5606300000000  0.5424590000000 1.0
C      1  0.4473380000000  0.4823070000000  0.4380780000000 1.0
C      1  0.4675040000000  0.4319640000000  0.4756860000000 1.0
C      1  0.5200030000000  0.5168390000000  0.4205060000000 1.0
C      1  0.4646750000000  0.4939560000000  0.4600860000000 1.0
C      1  0.5451970000000  0.4531130000000  0.4552530000000 1.0
C      1  0.5351910000000  0.5218630000000  0.4760300000000 1.0
C      1  0.4814810000000  0.4095600000000  0.4873560000000 1.0
C      1  0.5943600000000  0.4865450000000  0.5155410000000 1.0
C      1  0.5245650000000  0.4886890000000  0.4241540000000 1.0
C      1  0.4635140000000  0.5733370000000  0.4742350000000 1.0
C      1  0.5381990000000  0.4377280000000  0.5101890000000 1.0
C      1  0.5088460000000  0.5864580000000  0.5343950000000 1.0
C      1  0.5888200000000  0.5071200000000  0.5352120000000 1.0
C      1  0.4421480000000  0.4474280000000  0.5120900000000 1.0
C      1  0.5100540000000  0.5521530000000  0.4921640000000 1.0
C      1  0.5298900000000  0.4894800000000  0.5216830000000 1.0
C      1  0.5059360000000  0.4866520000000  0.4833370000000 1.0
C      1  0.4245790000000  0.5441270000000  0.5251970000000 1.0
C      1  0.5100920000000  0.5076840000000  0.5093050000000 1.0
C      1  0.4563990000000  0.4885090000000  0.4129710000000 1.0
C      1  0.5257610000000  0.5229490000000  0.5591830000000 1.0
C      1  0.4845370000000  0.5395790000000  0.4474580000000 1.0
C      1  0.5109070000000  0.5682920000000  0.5549700000000 1.0
C      1  0.5154080000000  0.4383470000000  0.4923680000000 1.0
C      1  0.5278360000000  0.5306370000000  0.5029800000000 1.0
C      1  0.5246310000000  0.4427580000000  0.5364740000000 1.0
C      1  0.4728090000000  0.4696040000000  0.5628680000000 1.0
C      1  0.5776460000000  0.5355460000000  0.5310290000000 1.0
C      1  0.5154920000000  0.5144140000000  0.5851720000000 1.0
C      1  0.5689060000000  0.4942470000000  0.5509830000000 1.0
C      1  0.4828470000000  0.5686780000000  0.4539930000000 1.0
C      1  0.4826040000000  0.5509520000000  0.5001790000000 1.0
C      1  0.4262370000000  0.4834160000000  0.4863810000000 1.0
C      1  0.5350130000000  0.5521080000000  0.5582700000000 1.0
C      1  0.4714820000000  0.5787270000000  0.5028370000000 1.0
C      1  0.4202250000000  0.4557090000000  0.4954620000000 1.0
C      1  0.5024650000000  0.4712790000000  0.4206710000000 1.0
C      1  0.5151200000000  0.5812460000000  0.4863640000000 1.0
C      1  0.5431570000000  0.4808910000000  0.4451330000000 1.0
C      1  0.4868550000000  0.5069510000000  0.5280120000000 1.0
C      1  0.4970650000000  0.3968220000000  0.4670580000000 1.0
C      1  0.4727570000000  0.4426210000000  0.5489790000000 1.0
C      1  0.5192550000000  0.4388970000000  0.4599730000000 1.0
C      1  0.5481080000000  0.4829760000000  0.4999840000000 1.0
C      1  0.5691580000000  0.4956420000000  0.4460690000000 1.0
C      1  0.4446550000000  0.4747900000000  0.5541370000000 1.0
C      1  0.4460600000000  0.4491390000000  0.5395540000000 1.0
C      1  0.4636580000000  0.5232510000000  0.4630130000000 1.0
C      1  0.5671890000000  0.4550310000000  0.4731060000000 1.0
C      1  0.4467840000000  0.5775680000000  0.5191550000000 1.0
C      1  0.4950190000000  0.4563230000000  0.4454000000000 1.0
C      1  0.4416840000000  0.4564290000000  0.4479520000000 1.0
C      1  0.4364540000000  0.5018380000000  0.5495640000000 1.0
C      1  0.5793180000000  0.4613890000000  0.5234900000000 1.0
C      1  0.5607180000000  0.4535520000000  0.5018540000000 1.0
C      1  0.4217640000000  0.5109870000000  0.4919220000000 1.0
C      1  0.4750640000000  0.5098160000000  0.4077100000000 1.0
C      1  0.5319400000000  0.5557490000000  0.4488750000000 1.0
C      1  0.4321520000000  0.5158680000000  0.5216380000000 1.0
C      1  0.5586900000000  0.5513520000000  0.5422180000000 1.0
C      1  0.5544790000000  0.5410190000000  0.4622700000000 1.0
C      1  0.4579950000000  0.5468910000000  0.5601970000000 1.0
C      1  0.4370100000000  0.5584070000000  0.4781220000000 1.0
C      1  0.4691960000000  0.5284620000000  0.4917140000000 1.0
C      1  0.5406170000000  0.5354110000000  0.4277790000000 1.0
C      1  0.4828090000000  0.4827510000000  0.4047770000000 1.0
C      1  0.5422840000000  0.4539660000000  0.5593420000000 1.0
C      1  0.4503230000000  0.5195340000000  0.5679410000000 1.0
C      1  0.5503400000000  0.5287440000000  0.5227150000000 1.0
C      1  0.4914000000000  0.5297730000000  0.5869840000000 1.0
C      1  0.5822320000000  0.4802860000000  0.4674690000000 1.0
C      1  0.4923880000000  0.5262810000000  0.4218010000000 1.0
C      1  0.4707140000000  0.5104080000000  0.5859040000000 1.0
C      1  0.4359310000000  0.5306280000000  0.4726870000000 1.0
C      1  0.4678540000000  0.4429060000000  0.4500600000000 1.0
C      1  0.4566110000000  0.4837940000000  0.4880720000000 1.0
C      1  0.4268580000000  0.5638110000000  0.5036140000000 1.0
C      1  0.4993370000000  0.5915430000000  0.5091600000000 1.0
C      1  0.4667370000000  0.4559960000000  0.4945450000000 1.0
C      1  0.4914880000000  0.4842360000000  0.4584440000000 1.0
C      1  0.4915240000000  0.4825500000000  0.5432790000000 1.0
C      1  0.4965050000000  0.4203560000000  0.5087720000000 1.0
C      1  0.4997050000000  0.5279620000000  0.5444040000000 1.0
C      1  0.4233630000000  0.4582770000000  0.4690310000000 1.0
C      1  0.4875030000000  0.5482270000000  0.5633860000000 1.0
C      1  0.5632860000000  0.5238150000000  0.4410680000000 1.0
C      1  0.4625090000000  0.5076740000000  0.5098000000000 1.0
C      1  0.5117220000000  0.5389820000000  0.4642590000000 1.0
C      1  0.5154970000000  0.4090680000000  0.4541210000000 1.0
C      1  0.5300150000000  0.4674510000000  0.5800390000000 1.0
C      1  0.5342360000000  0.4917560000000  0.4753810000000 1.0
C      1  0.5127270000000  0.5775900000000  0.4579010000000 1.0
C      1  0.5430490000000  0.5064990000000  0.5420440000000 1.0
C      1  0.5096310000000  0.4672560000000  0.5276040000000 1.0
END
