TITL C-20252-1511-3 -21.4005602787222 125000 -172.282844934244 0 0 26 (C1) n - 1
REM
REM in /rds/project/t2_vol4/rds-t2-cs072/BORA/CARBON/from-Arr/AIRSS/Generating-Clusters/GAP-ML-2020/Only-C1/SD-CG/HFTN-CG
REM
REM
REM
REM
REM
REM ./C.cell (11c1c37f851c82e70ff6c80c92926a4b)
REM AIRSS Version 0.9.1 bugfix July 2018 build 013d7b7c2542+ Fri, 06 Jul 2018 19:26:36 +0100
REM compiler GCC version 9.3.0
REM options -cpp -mtune=generic -march=x86-64 -g -O0
REM seed -726145235 -688131680 -253474453 247657773 -1422615674 943619106 1211151536 -977816870 2092441307 -1941500108 -3684096 736104296 405034348 -2001555557 1459851758 -804617903 1926579343 1270459789 -1647860829 -1594260684 763436197 973091573 -539390128 -489421689 264856792 681894514 -849251729 289888215 585967201 1396889568 628970751 685416942 -1550482141
REM
CELL 1.54180   50.00000   50.00000   50.00000   90.00000   90.00000   90.00000
LATT -1
SFAC C  
C      1  0.5141670000000  0.5399430000000  0.5009880000000 1.0
C      1  0.4572230000000  0.4938990000000  0.4842660000000 1.0
C      1  0.5059320000000  0.4543910000000  0.5203130000000 1.0
C      1  0.5186520000000  0.4869740000000  0.5513670000000 1.0
C      1  0.5334910000000  0.5069500000000  0.4732510000000 1.0
C      1  0.4911200000000  0.4902750000000  0.5475620000000 1.0
C      1  0.4843470000000  0.5169900000000  0.5374230000000 1.0
C      1  0.4629170000000  0.4843010000000  0.5114780000000 1.0
C      1  0.5108600000000  0.5273720000000  0.5272120000000 1.0
C      1  0.5418750000000  0.4862280000000  0.5173630000000 1.0
C      1  0.4604660000000  0.5117710000000  0.5224900000000 1.0
C      1  0.4880030000000  0.5407820000000  0.4573620000000 1.0
C      1  0.5007880000000  0.4761560000000  0.4618000000000 1.0
C      1  0.5111790000000  0.4417990000000  0.4968430000000 1.0
C      1  0.4749610000000  0.4909450000000  0.4628500000000 1.0
C      1  0.5144060000000  0.5004920000000  0.4525170000000 1.0
C      1  0.4905780000000  0.5461220000000  0.4850980000000 1.0
C      1  0.4523520000000  0.5215980000000  0.4962780000000 1.0
C      1  0.5383420000000  0.4834420000000  0.4892830000000 1.0
C      1  0.4890520000000  0.5150800000000  0.4511030000000 1.0
C      1  0.5286550000000  0.4662110000000  0.5342180000000 1.0
C      1  0.5178420000000  0.4629920000000  0.4805770000000 1.0
C      1  0.4822910000000  0.4710590000000  0.5277830000000 1.0
C      1  0.5350350000000  0.5317150000000  0.4843660000000 1.0
C      1  0.4639380000000  0.5447790000000  0.4910880000000 1.0
C      1  0.5315300000000  0.5077380000000  0.5351180000000 1.0
END
