TITL C-20250-1635-5 -0.00805350715888428 125000 -71.2571869096385 0 0 12 (C1) n - 1
REM
REM in /rds/project/t2_vol4/rds-t2-cs072/BORA/CARBON/from-Arr/AIRSS/Generating-Clusters/GAP-ML-2020/Only-C1/SD-CG/HFTN-CG
REM
REM
REM
REM
REM
REM ./C.cell (11c1c37f851c82e70ff6c80c92926a4b)
REM AIRSS Version 0.9.1 bugfix July 2018 build 013d7b7c2542+ Fri, 06 Jul 2018 19:26:36 +0100
REM compiler GCC version 9.3.0
REM options -cpp -mtune=generic -march=x86-64 -g -O0
REM seed -1299695014 1116094602 -529708163 112870649 1768497965 -1631843538 1880087910 211905373 1516035979 1630398885 -75932691 -1137042100 -2132572932 117403053 -184226947 1292627665 -153104577 -1049696109 -2105832263 -509971995 -1176644796 -433801815 666500831 -249867093 -1354650906 1815842319 44523305 661409943 2002939764 -372260699 2128325991 -1402710741 1604102882
REM
CELL 1.54180   50.00000   50.00000   50.00000   90.00000   90.00000   90.00000
LATT -1
SFAC C  
C      1  0.4652990000000  0.5148150000000  0.4696590000000 1.0
C      1  0.5706450000000  0.5376770000000  0.4929430000000 1.0
C      1  0.5518650000000  0.5229160000000  0.4993520000000 1.0
C      1  0.5210360000000  0.4846420000000  0.4920340000000 1.0
C      1  0.4789690000000  0.5123440000000  0.5208000000000 1.0
C      1  0.4700560000000  0.5010860000000  0.4912150000000 1.0
C      1  0.5063750000000  0.4665140000000  0.4825000000000 1.0
C      1  0.4628010000000  0.5086190000000  0.5422350000000 1.0
C      1  0.4775760000000  0.4703960000000  0.4874620000000 1.0
C      1  0.5281090000000  0.5096450000000  0.5046450000000 1.0
C      1  0.5067060000000  0.5188920000000  0.5205730000000 1.0
C      1  0.4605640000000  0.4524540000000  0.4965810000000 1.0
END
