TITL C-200309-9380-10 -20.8755703647265 125000 -139.927144422027 0 0 22 (C1) n - 1
REM
REM in /rds/project/t2_vol4/rds-t2-cs072/BORA/CARBON/from-Arr/AIRSS/Generating-Clusters/GAP-ML-2020/Only-C1/SD-CG/HFTN-CG
REM
REM
REM
REM
REM
REM ./C.cell (11c1c37f851c82e70ff6c80c92926a4b)
REM AIRSS Version 0.9.1 bugfix July 2018 build 013d7b7c2542+ Fri, 06 Jul 2018 19:26:36 +0100
REM compiler GCC version 9.3.0
REM options -cpp -mtune=generic -march=x86-64 -g -O0
REM seed 947202714 -1473960159 -1460010937 -895432686 -549904423 1185245642 -362044657 547261537 -251734264 -49724366 -1873432187 329982971 -1276254773 -471286236 -2038001149 -1837067625 1466115356 -2033658891 619436340 -1522165743 -608215660 -966204246 1840965007 1230730782 -23402386 836684198 1610908614 -954075676 1415648214 1226926630 558239544 -1203154684 1576894020
REM
CELL 1.54180   50.00000   50.00000   50.00000   90.00000   90.00000   90.00000
LATT -1
SFAC C  
C      1  0.5546170000000  0.5174480000000  0.4975280000000 1.0
C      1  0.4816220000000  0.5145560000000  0.4626090000000 1.0
C      1  0.5122970000000  0.5084570000000  0.5416420000000 1.0
C      1  0.4662160000000  0.5310260000000  0.4805060000000 1.0
C      1  0.5213620000000  0.4558280000000  0.5034540000000 1.0
C      1  0.4816860000000  0.5320970000000  0.5056680000000 1.0
C      1  0.5293960000000  0.5272780000000  0.5403150000000 1.0
C      1  0.4666100000000  0.4912260000000  0.4695190000000 1.0
C      1  0.4691160000000  0.4641400000000  0.5076110000000 1.0
C      1  0.5253080000000  0.4922520000000  0.4722440000000 1.0
C      1  0.4630230000000  0.5109430000000  0.5162520000000 1.0
C      1  0.4999810000000  0.4843450000000  0.5387260000000 1.0
C      1  0.5080730000000  0.5157880000000  0.4715710000000 1.0
C      1  0.5510460000000  0.4995600000000  0.4795230000000 1.0
C      1  0.5101200000000  0.5341820000000  0.4951120000000 1.0
C      1  0.5153000000000  0.4652590000000  0.5255710000000 1.0
C      1  0.4509000000000  0.5092380000000  0.4888010000000 1.0
C      1  0.4727130000000  0.4854120000000  0.5260940000000 1.0
C      1  0.4820820000000  0.4713510000000  0.4832640000000 1.0
C      1  0.5114560000000  0.4679380000000  0.4799990000000 1.0
C      1  0.5319560000000  0.5267530000000  0.5120200000000 1.0
C      1  0.4951210000000  0.4949230000000  0.5019700000000 1.0
END
