TITL C-20249-1518-8 -45.6460980741527 125000 -388.137068815699 0 0 57 (C1) n - 1
REM
REM in /rds/project/t2_vol4/rds-t2-cs072/BORA/CARBON/from-Arr/AIRSS/Generating-Clusters/GAP-ML-2020/Only-C1/SD-CG/HFTN-CG
REM
REM
REM
REM
REM
REM ./C.cell (11c1c37f851c82e70ff6c80c92926a4b)
REM AIRSS Version 0.9.1 bugfix July 2018 build 013d7b7c2542+ Fri, 06 Jul 2018 19:26:36 +0100
REM compiler GCC version 9.3.0
REM options -cpp -mtune=generic -march=x86-64 -g -O0
REM seed -363314068 -2027143334 -334396553 -339047431 529818382 79469082 -1037475771 440389345 927086399 600775322 -694244849 273152638 -1217767473 1568920030 2125715836 1677005621 -1259399866 -92680599 426458973 232458598 766124898 -1035972400 337268111 -2033534570 -1558828086 -1184546736 1310980339 582196554 -129941579 921933304 -1051825775 1015382456 663795540
REM
CELL 1.54180   50.00000   50.00000   50.00000   90.00000   90.00000   90.00000
LATT -1
SFAC C  
C      1  0.4608520000000  0.4525990000000  0.4736060000000 1.0
C      1  0.4846390000000  0.4315890000000  0.5162940000000 1.0
C      1  0.4373340000000  0.5140980000000  0.4737080000000 1.0
C      1  0.4617850000000  0.5522850000000  0.5275600000000 1.0
C      1  0.5180700000000  0.5565110000000  0.4821660000000 1.0
C      1  0.5013460000000  0.4291750000000  0.4736640000000 1.0
C      1  0.5013480000000  0.4450830000000  0.4503420000000 1.0
C      1  0.4298190000000  0.4938400000000  0.4931830000000 1.0
C      1  0.4876800000000  0.5152280000000  0.5365440000000 1.0
C      1  0.5610890000000  0.4735040000000  0.4798860000000 1.0
C      1  0.5078480000000  0.5654120000000  0.5082760000000 1.0
C      1  0.5228200000000  0.5649440000000  0.5316360000000 1.0
C      1  0.4655700000000  0.4814840000000  0.5114550000000 1.0
C      1  0.5626830000000  0.5002850000000  0.4679190000000 1.0
C      1  0.4761680000000  0.4315500000000  0.4879580000000 1.0
C      1  0.4626760000000  0.5104890000000  0.4628380000000 1.0
C      1  0.4953620000000  0.4743820000000  0.5087380000000 1.0
C      1  0.4318840000000  0.5062520000000  0.5202300000000 1.0
C      1  0.4863010000000  0.5120700000000  0.4854780000000 1.0
C      1  0.5239300000000  0.4368640000000  0.4891590000000 1.0
C      1  0.5130550000000  0.4654240000000  0.5321500000000 1.0
C      1  0.4866040000000  0.4861980000000  0.4372190000000 1.0
C      1  0.4471550000000  0.5309450000000  0.5129390000000 1.0
C      1  0.5631050000000  0.4850740000000  0.5329870000000 1.0
C      1  0.5326870000000  0.5417320000000  0.5419990000000 1.0
C      1  0.4955940000000  0.5515520000000  0.4647120000000 1.0
C      1  0.5695490000000  0.5097780000000  0.5443300000000 1.0
C      1  0.5152200000000  0.4874530000000  0.4374480000000 1.0
C      1  0.5416890000000  0.5409120000000  0.4806070000000 1.0
C      1  0.4464780000000  0.5386200000000  0.4845650000000 1.0
C      1  0.4883420000000  0.4639790000000  0.5507780000000 1.0
C      1  0.5735070000000  0.4829490000000  0.5052510000000 1.0
C      1  0.4662290000000  0.5314780000000  0.5743900000000 1.0
C      1  0.5130940000000  0.4397360000000  0.5159430000000 1.0
C      1  0.4738910000000  0.5392330000000  0.5492950000000 1.0
C      1  0.5244840000000  0.4619640000000  0.4488470000000 1.0
C      1  0.4791220000000  0.5626650000000  0.5073510000000 1.0
C      1  0.5411090000000  0.4549060000000  0.4722690000000 1.0
C      1  0.4742330000000  0.4421280000000  0.5396680000000 1.0
C      1  0.5159440000000  0.5181550000000  0.5350480000000 1.0
C      1  0.5450460000000  0.5215820000000  0.4594870000000 1.0
C      1  0.5743020000000  0.5088170000000  0.4930090000000 1.0
C      1  0.5587640000000  0.5316010000000  0.5332260000000 1.0
C      1  0.4712680000000  0.5546410000000  0.4809280000000 1.0
C      1  0.4733270000000  0.4903730000000  0.5546660000000 1.0
C      1  0.4766520000000  0.5135930000000  0.4392070000000 1.0
C      1  0.4773260000000  0.4600710000000  0.4486850000000 1.0
C      1  0.4493310000000  0.4888960000000  0.5357680000000 1.0
C      1  0.5530140000000  0.5254470000000  0.5044110000000 1.0
C      1  0.4685940000000  0.5057830000000  0.5785850000000 1.0
C      1  0.5344730000000  0.4851800000000  0.5308990000000 1.0
C      1  0.4728790000000  0.5116070000000  0.5106070000000 1.0
C      1  0.5230230000000  0.5159090000000  0.4423160000000 1.0
C      1  0.5281010000000  0.5062990000000  0.5115930000000 1.0
C      1  0.4992440000000  0.5318130000000  0.4435790000000 1.0
C      1  0.4470920000000  0.4707420000000  0.4914770000000 1.0
C      1  0.5072680000000  0.4951190000000  0.4931200000000 1.0
END
