TITL C-20248-1464-2 -0.00801353193433273 125000 -29.1208935605098 0 0 5 (C2v) n - 1
REM
REM in /rds/project/t2_vol4/rds-t2-cs072/BORA/CARBON/from-Arr/AIRSS/Generating-Clusters/GAP-ML-2020/Only-C1/SD-CG/HFTN-CG
REM
REM
REM
REM
REM
REM ./C.cell (11c1c37f851c82e70ff6c80c92926a4b)
REM AIRSS Version 0.9.1 bugfix July 2018 build 013d7b7c2542+ Fri, 06 Jul 2018 19:26:36 +0100
REM compiler GCC version 9.3.0
REM options -cpp -mtune=generic -march=x86-64 -g -O0
REM seed 98231435 1332925173 1604829398 1686862820 -1696782746 340325240 -1657564531 782785504 -442662509 483604765 -1419659774 1655497550 1051867002 -626513774 -1723215017 128571701 -67848249 325323084 -424153459 -1569649489 168914734 -1616472721 -29809139 -2109924738 -1134783747 -741912787 1787555552 -1710117395 1519643708 -2096210019 -1157955 -1019961242 -956429909
REM
CELL 1.54180   50.00000   50.00000   50.00000   90.00000   90.00000   90.00000
LATT -1
SFAC C  
C      1  0.5047200000000  0.5077990000000  0.4808080000000 1.0
C      1  0.5024730000000  0.4801130000000  0.5264910000000 1.0
C      1  0.4838960000000  0.4973650000000  0.5289330000000 1.0
C      1  0.4985540000000  0.4976120000000  0.5058770000000 1.0
C      1  0.5103570000000  0.5171120000000  0.4578900000000 1.0
END
