TITL C-20257-1500-2 0.00442170108254173 125000 -648.861695495527 0 0 92 (C1) n - 1
REM
REM in /rds/project/t2_vol4/rds-t2-cs072/BORA/CARBON/from-Arr/AIRSS/Generating-Clusters/GAP-ML-2020/Only-C1/SD-CG/HFTN-CG
REM
REM
REM
REM
REM
REM ./C.cell (11c1c37f851c82e70ff6c80c92926a4b)
REM AIRSS Version 0.9.1 bugfix July 2018 build 013d7b7c2542+ Fri, 06 Jul 2018 19:26:36 +0100
REM compiler GCC version 9.3.0
REM options -cpp -mtune=generic -march=x86-64 -g -O0
REM seed -444913063 567454202 -1653353564 -1622458810 33984265 -1708695909 -1611769939 -147375260 -281619288 -1970076051 1304044217 -2038631369 1285448552 251724370 1416239567 1256958399 -705289309 901675137 -2058787478 479377509 -554985377 725818517 -918940502 2064690664 -1448761887 297395256 -1893725303 2081976137 1815105027 2128453319 267301055 131245853 -1005721141
REM
CELL 1.54180   50.00000   50.00000   50.00000   90.00000   90.00000   90.00000
LATT -1
SFAC C  
C      1  0.4899540000000  0.4212240000000  0.4750680000000 1.0
C      1  0.4968560000000  0.5130480000000  0.4596650000000 1.0
C      1  0.5024030000000  0.4134380000000  0.5185890000000 1.0
C      1  0.5585980000000  0.4964420000000  0.5648100000000 1.0
C      1  0.4499010000000  0.4683600000000  0.4220590000000 1.0
C      1  0.4786800000000  0.4378440000000  0.4556100000000 1.0
C      1  0.4543170000000  0.4524900000000  0.4664410000000 1.0
C      1  0.5017160000000  0.4700670000000  0.5089180000000 1.0
C      1  0.5408370000000  0.4725220000000  0.4311290000000 1.0
C      1  0.4934590000000  0.4528530000000  0.4348930000000 1.0
C      1  0.5281370000000  0.5633550000000  0.5517250000000 1.0
C      1  0.4580980000000  0.4889560000000  0.5672350000000 1.0
C      1  0.4954140000000  0.5579950000000  0.4424370000000 1.0
C      1  0.5060290000000  0.5130780000000  0.5723960000000 1.0
C      1  0.5193870000000  0.4547490000000  0.5276360000000 1.0
C      1  0.5164360000000  0.4971490000000  0.4736640000000 1.0
C      1  0.4850320000000  0.4888710000000  0.5763380000000 1.0
C      1  0.4423030000000  0.4484840000000  0.4951070000000 1.0
C      1  0.5116800000000  0.5139360000000  0.4174030000000 1.0
C      1  0.5269170000000  0.4171660000000  0.5034090000000 1.0
C      1  0.5425660000000  0.5565700000000  0.4903070000000 1.0
C      1  0.4269000000000  0.5284200000000  0.5144340000000 1.0
C      1  0.4369660000000  0.5548830000000  0.5204580000000 1.0
C      1  0.4382590000000  0.4562790000000  0.4412950000000 1.0
C      1  0.4574320000000  0.4338460000000  0.5136640000000 1.0
C      1  0.5877300000000  0.5225310000000  0.5283110000000 1.0
C      1  0.5791230000000  0.5470600000000  0.5167050000000 1.0
C      1  0.4949810000000  0.5068700000000  0.5257360000000 1.0
C      1  0.4466960000000  0.5135620000000  0.5588330000000 1.0
C      1  0.5377340000000  0.5168830000000  0.5751370000000 1.0
C      1  0.4301540000000  0.5091100000000  0.5354520000000 1.0
C      1  0.4653140000000  0.4959480000000  0.4919540000000 1.0
C      1  0.5382870000000  0.5119120000000  0.4854540000000 1.0
C      1  0.4730470000000  0.4766230000000  0.4717750000000 1.0
C      1  0.4357780000000  0.5291620000000  0.4614490000000 1.0
C      1  0.5040510000000  0.4731180000000  0.4818110000000 1.0
C      1  0.5163560000000  0.5029290000000  0.5442210000000 1.0
C      1  0.4789220000000  0.5808980000000  0.4848730000000 1.0
C      1  0.5289850000000  0.5308350000000  0.5049130000000 1.0
C      1  0.4245900000000  0.5195350000000  0.4864740000000 1.0
C      1  0.5778570000000  0.4744140000000  0.5262320000000 1.0
C      1  0.5415800000000  0.5388300000000  0.5565670000000 1.0
C      1  0.4639220000000  0.5248440000000  0.4224400000000 1.0
C      1  0.4521040000000  0.5726030000000  0.4784450000000 1.0
C      1  0.4682480000000  0.5500950000000  0.4356840000000 1.0
C      1  0.5586430000000  0.5656110000000  0.5125050000000 1.0
C      1  0.5311960000000  0.4948150000000  0.4181100000000 1.0
C      1  0.4461760000000  0.4679970000000  0.5500980000000 1.0
C      1  0.4349340000000  0.5734370000000  0.4999970000000 1.0
C      1  0.5372240000000  0.5216330000000  0.5326920000000 1.0
C      1  0.5748430000000  0.4847170000000  0.4730650000000 1.0
C      1  0.4899160000000  0.5379460000000  0.5685490000000 1.0
C      1  0.4618390000000  0.5371680000000  0.5609610000000 1.0
C      1  0.5621320000000  0.4686410000000  0.4525130000000 1.0
C      1  0.5047530000000  0.4312420000000  0.5398260000000 1.0
C      1  0.4891670000000  0.5846300000000  0.5126040000000 1.0
C      1  0.5616720000000  0.4550240000000  0.5385330000000 1.0
C      1  0.4288620000000  0.4807580000000  0.5312590000000 1.0
C      1  0.5172590000000  0.5859720000000  0.5095340000000 1.0
C      1  0.5454350000000  0.4396570000000  0.5157010000000 1.0
C      1  0.5001640000000  0.5750260000000  0.4659940000000 1.0
C      1  0.4842080000000  0.4425570000000  0.5552750000000 1.0
C      1  0.4794860000000  0.4184670000000  0.5020760000000 1.0
C      1  0.5627120000000  0.4460710000000  0.4931980000000 1.0
C      1  0.4968380000000  0.4652720000000  0.5673780000000 1.0
C      1  0.5215180000000  0.4498250000000  0.4358800000000 1.0
C      1  0.5213750000000  0.4722190000000  0.5523870000000 1.0
C      1  0.5781400000000  0.4690430000000  0.4974660000000 1.0
C      1  0.5327160000000  0.4324280000000  0.4558450000000 1.0
C      1  0.4337290000000  0.4932410000000  0.4882110000000 1.0
C      1  0.5235290000000  0.5764410000000  0.4826310000000 1.0
C      1  0.4592630000000  0.4438640000000  0.5421770000000 1.0
C      1  0.4805510000000  0.5728310000000  0.5376200000000 1.0
C      1  0.4833730000000  0.5204660000000  0.4846780000000 1.0
C      1  0.4796400000000  0.4861240000000  0.5166350000000 1.0
C      1  0.5092160000000  0.5329730000000  0.4398580000000 1.0
C      1  0.5186350000000  0.4182490000000  0.4759970000000 1.0
C      1  0.4743930000000  0.4943030000000  0.4491270000000 1.0
C      1  0.5488410000000  0.4695940000000  0.5605510000000 1.0
C      1  0.4568530000000  0.5576320000000  0.5414510000000 1.0
C      1  0.4997380000000  0.5272150000000  0.5068800000000 1.0
C      1  0.4483180000000  0.5541660000000  0.4561890000000 1.0
C      1  0.4840870000000  0.5060000000000  0.4125020000000 1.0
C      1  0.4493410000000  0.5111510000000  0.4426270000000 1.0
C      1  0.5777040000000  0.4993370000000  0.5426650000000 1.0
C      1  0.4275680000000  0.4711380000000  0.5048200000000 1.0
C      1  0.5001020000000  0.5617400000000  0.5563690000000 1.0
C      1  0.5664710000000  0.5104930000000  0.4817770000000 1.0
C      1  0.5825390000000  0.5244450000000  0.5005760000000 1.0
C      1  0.5565520000000  0.4439390000000  0.4654310000000 1.0
C      1  0.5368320000000  0.5768670000000  0.5284730000000 1.0
C      1  0.4777790000000  0.4778480000000  0.4241530000000 1.0
END
