TITL C-200311-9378-5 -0.0279038349815321 125000 -248.192388489873 0 0 38 (C1) n - 1
REM
REM in /rds/project/t2_vol4/rds-t2-cs072/BORA/CARBON/from-Arr/AIRSS/Generating-Clusters/GAP-ML-2020/Only-C1/SD-CG/HFTN-CG
REM
REM
REM
REM
REM
REM ./C.cell (11c1c37f851c82e70ff6c80c92926a4b)
REM AIRSS Version 0.9.1 bugfix July 2018 build 013d7b7c2542+ Fri, 06 Jul 2018 19:26:36 +0100
REM compiler GCC version 9.3.0
REM options -cpp -mtune=generic -march=x86-64 -g -O0
REM seed -430420810 522034561 -1957721002 13531128 812340130 1587488122 640968928 602281373 -27453549 -2057700179 837554661 -1858018092 1632050180 -358121934 -1388683262 -2006068858 710096267 -1864728248 -325887396 405045001 2120196643 -1960343486 1841278978 809862407 -164475046 -856667600 -443544206 79566507 2000695169 1726118889 -18380895 928593048 1550979177
REM
CELL 1.54180   50.00000   50.00000   50.00000   90.00000   90.00000   90.00000
LATT -1
SFAC C  
C      1  0.4920230000000  0.5342490000000  0.5354900000000 1.0
C      1  0.4622960000000  0.4485940000000  0.5141190000000 1.0
C      1  0.4584350000000  0.4700360000000  0.4737660000000 1.0
C      1  0.5688280000000  0.4832890000000  0.5177620000000 1.0
C      1  0.5791810000000  0.4817490000000  0.4938290000000 1.0
C      1  0.4912740000000  0.5122300000000  0.4929950000000 1.0
C      1  0.4683340000000  0.5343390000000  0.5217930000000 1.0
C      1  0.4570440000000  0.4898050000000  0.5436630000000 1.0
C      1  0.4690670000000  0.5087240000000  0.4501300000000 1.0
C      1  0.4706200000000  0.5335440000000  0.4920970000000 1.0
C      1  0.4498010000000  0.4972620000000  0.4692800000000 1.0
C      1  0.4867230000000  0.4692800000000  0.4682940000000 1.0
C      1  0.5120420000000  0.5529140000000  0.5314950000000 1.0
C      1  0.5622760000000  0.5000100000000  0.4800530000000 1.0
C      1  0.5326900000000  0.5493810000000  0.4854870000000 1.0
C      1  0.4477360000000  0.5125610000000  0.4925210000000 1.0
C      1  0.5288500000000  0.5406240000000  0.5134810000000 1.0
C      1  0.4927100000000  0.4951400000000  0.4585490000000 1.0
C      1  0.5279540000000  0.4680710000000  0.4906960000000 1.0
C      1  0.4869960000000  0.4893920000000  0.5534870000000 1.0
C      1  0.5043440000000  0.4557530000000  0.4868170000000 1.0
C      1  0.5117130000000  0.5395340000000  0.4696820000000 1.0
C      1  0.5337650000000  0.4961330000000  0.4882500000000 1.0
C      1  0.5125200000000  0.5102800000000  0.4728570000000 1.0
C      1  0.5011850000000  0.4429460000000  0.5349310000000 1.0
C      1  0.4836620000000  0.4933000000000  0.5123140000000 1.0
C      1  0.4696770000000  0.5356170000000  0.4459580000000 1.0
C      1  0.4472800000000  0.4550750000000  0.4930890000000 1.0
C      1  0.5308030000000  0.5086260000000  0.5202700000000 1.0
C      1  0.5690520000000  0.5248860000000  0.4690290000000 1.0
C      1  0.4598070000000  0.4613180000000  0.5395450000000 1.0
C      1  0.4911180000000  0.4428120000000  0.5092150000000 1.0
C      1  0.5016350000000  0.5053730000000  0.5326840000000 1.0
C      1  0.4825350000000  0.5459490000000  0.4673330000000 1.0
C      1  0.5543470000000  0.4962040000000  0.5346310000000 1.0
C      1  0.4564270000000  0.5065040000000  0.5206740000000 1.0
C      1  0.5581000000000  0.5477860000000  0.4736620000000 1.0
C      1  0.4871460000000  0.4607080000000  0.5500700000000 1.0
END
