TITL C-20233-1484-8 -41.6926213661236 125000 -477.216395126235 0 0 69 (C1) n - 1
REM
REM in /rds/project/t2_vol4/rds-t2-cs072/BORA/CARBON/from-Arr/AIRSS/Generating-Clusters/GAP-ML-2020/Only-C1/SD-CG/HFTN-CG
REM
REM
REM
REM
REM
REM ./C.cell (11c1c37f851c82e70ff6c80c92926a4b)
REM AIRSS Version 0.9.1 bugfix July 2018 build 013d7b7c2542+ Fri, 06 Jul 2018 19:26:36 +0100
REM compiler GCC version 9.3.0
REM options -cpp -mtune=generic -march=x86-64 -g -O0
REM seed 487549190 -210439109 -1420110356 60342650 114959934 -170985273 -805775436 -845690576 -2063360421 -539843887 1097507389 1874864713 1760177619 -623131099 -796841321 -1830430910 1038473497 1798849397 187239679 935301030 -965079154 864991715 514211451 392722383 -2126108441 941916479 -932612461 -1383764997 -1601476165 -189663963 954473910 1158661804 -1090911904
REM
CELL 1.54180   50.00000   50.00000   50.00000   90.00000   90.00000   90.00000
LATT -1
SFAC C  
C      1  0.5530610000000  0.4577040000000  0.4803890000000 1.0
C      1  0.5324990000000  0.5013980000000  0.4322960000000 1.0
C      1  0.4669990000000  0.5576000000000  0.5147310000000 1.0
C      1  0.5369580000000  0.5444430000000  0.5359950000000 1.0
C      1  0.5370410000000  0.4741070000000  0.5528270000000 1.0
C      1  0.4750360000000  0.5461610000000  0.4472680000000 1.0
C      1  0.4262900000000  0.4852630000000  0.4920260000000 1.0
C      1  0.5541320000000  0.5250330000000  0.5500170000000 1.0
C      1  0.4876590000000  0.5438220000000  0.5532330000000 1.0
C      1  0.5515330000000  0.5182560000000  0.4462530000000 1.0
C      1  0.4841160000000  0.5165800000000  0.5183060000000 1.0
C      1  0.4781520000000  0.4937500000000  0.4764330000000 1.0
C      1  0.5612050000000  0.4741610000000  0.4585620000000 1.0
C      1  0.5205670000000  0.4565690000000  0.4462690000000 1.0
C      1  0.5404340000000  0.4745060000000  0.4383770000000 1.0
C      1  0.5345420000000  0.4611900000000  0.5259000000000 1.0
C      1  0.4576350000000  0.4956760000000  0.4541930000000 1.0
C      1  0.5006550000000  0.5324820000000  0.4475610000000 1.0
C      1  0.4747210000000  0.4493220000000  0.5473140000000 1.0
C      1  0.5663280000000  0.4942190000000  0.5091040000000 1.0
C      1  0.5213670000000  0.4934990000000  0.4846240000000 1.0
C      1  0.4459020000000  0.5228320000000  0.4547150000000 1.0
C      1  0.4369410000000  0.5112350000000  0.5027470000000 1.0
C      1  0.4483760000000  0.4447910000000  0.5035270000000 1.0
C      1  0.4545670000000  0.4536500000000  0.4770130000000 1.0
C      1  0.5696010000000  0.5066990000000  0.5349300000000 1.0
C      1  0.4451590000000  0.4915990000000  0.5456310000000 1.0
C      1  0.5275750000000  0.4464540000000  0.4722780000000 1.0
C      1  0.5024700000000  0.5308110000000  0.5019360000000 1.0
C      1  0.4696040000000  0.4371670000000  0.5214230000000 1.0
C      1  0.5300650000000  0.5289560000000  0.5104110000000 1.0
C      1  0.5009550000000  0.5123870000000  0.4772690000000 1.0
C      1  0.4931940000000  0.4640550000000  0.4445540000000 1.0
C      1  0.5528050000000  0.4973450000000  0.5555810000000 1.0
C      1  0.5048790000000  0.5085460000000  0.4310400000000 1.0
C      1  0.5578740000000  0.4645560000000  0.5071170000000 1.0
C      1  0.4963160000000  0.4327590000000  0.5120610000000 1.0
C      1  0.5164300000000  0.4376230000000  0.5321790000000 1.0
C      1  0.5458810000000  0.5414850000000  0.4624820000000 1.0
C      1  0.4680030000000  0.4958240000000  0.5028980000000 1.0
C      1  0.5384300000000  0.5034730000000  0.5039350000000 1.0
C      1  0.5133840000000  0.4673620000000  0.5678330000000 1.0
C      1  0.5626890000000  0.5389460000000  0.4865240000000 1.0
C      1  0.4959760000000  0.5610120000000  0.5109570000000 1.0
C      1  0.4288660000000  0.4645570000000  0.5123280000000 1.0
C      1  0.5013050000000  0.5642590000000  0.4813850000000 1.0
C      1  0.4836050000000  0.4889520000000  0.4346020000000 1.0
C      1  0.4753350000000  0.5625470000000  0.4705710000000 1.0
C      1  0.4416470000000  0.5168680000000  0.5323400000000 1.0
C      1  0.4555850000000  0.5544550000000  0.4896980000000 1.0
C      1  0.5195620000000  0.5516090000000  0.4611270000000 1.0
C      1  0.5020180000000  0.4440920000000  0.5551300000000 1.0
C      1  0.4394910000000  0.4762300000000  0.4684510000000 1.0
C      1  0.5502210000000  0.5498170000000  0.5087880000000 1.0
C      1  0.5693290000000  0.5007990000000  0.4614440000000 1.0
C      1  0.5737910000000  0.5118380000000  0.4866410000000 1.0
C      1  0.5088990000000  0.5555070000000  0.5380810000000 1.0
C      1  0.4914680000000  0.4859580000000  0.5722930000000 1.0
C      1  0.5120730000000  0.4765680000000  0.5083550000000 1.0
C      1  0.4511760000000  0.5411350000000  0.4344210000000 1.0
C      1  0.4653510000000  0.5352170000000  0.5336400000000 1.0
C      1  0.4881360000000  0.4883750000000  0.5225040000000 1.0
C      1  0.4277880000000  0.4722000000000  0.5381440000000 1.0
C      1  0.4876630000000  0.5334810000000  0.5793230000000 1.0
C      1  0.5038470000000  0.4491890000000  0.4892460000000 1.0
C      1  0.4401030000000  0.5316620000000  0.4826380000000 1.0
C      1  0.4736210000000  0.4798000000000  0.5486860000000 1.0
C      1  0.4826070000000  0.4604880000000  0.4715030000000 1.0
C      1  0.4885070000000  0.5090930000000  0.5879420000000 1.0
END
