TITL C-20296-255-1 297.756910576658 125000 -364.19967772166 0 0 54 (C1) n - 1
REM
REM in /rds/project/t2_vol4/rds-t2-cs072/BORA/CARBON/from-Arr/AIRSS/Generating-Clusters/GAP-ML-2020/Only-C1/SD-CG/HFTN-CG
REM
REM
REM
REM
REM
REM ./C.cell (11c1c37f851c82e70ff6c80c92926a4b)
REM AIRSS Version 0.9.1 bugfix July 2018 build 013d7b7c2542+ Fri, 06 Jul 2018 19:26:36 +0100
REM compiler GCC version 9.3.0
REM options -cpp -mtune=generic -march=x86-64 -g -O0
REM seed -1073953497 -184713714 1510591835 -64989771 -2040968682 1097308627 -1956149054 -2060495903 -513957990 1659880690 -1764828408 1357209460 -47634020 613988710 1363986315 -835651278 483550129 1059137884 -1876471510 619683360 -50122173 -47124717 -154710777 1553075457 -558492609 -1839673333 305823793 -129868624 1438817602 -1928615196 -1191030532 -1029296041 -1847975243
REM
CELL 1.54180   50.00000   50.00000   50.00000   90.00000   90.00000   90.00000
LATT -1
SFAC C  
C      1  0.5372540000000  0.5457710000000  0.5217000000000 1.0
C      1  0.5396400000000  0.4660340000000  0.5306840000000 1.0
C      1  0.4519300000000  0.5489420000000  0.4849410000000 1.0
C      1  0.4690980000000  0.4547990000000  0.5413820000000 1.0
C      1  0.4771250000000  0.5339720000000  0.5244640000000 1.0
C      1  0.4254440000000  0.5086710000000  0.4768720000000 1.0
C      1  0.5158980000000  0.4902190000000  0.5618220000000 1.0
C      1  0.4947160000000  0.5713880000000  0.5034390000000 1.0
C      1  0.5259190000000  0.5311190000000  0.5435910000000 1.0
C      1  0.5112210000000  0.5011970000000  0.5068130000000 1.0
C      1  0.4643850000000  0.5300940000000  0.4661410000000 1.0
C      1  0.5797180000000  0.5023260000000  0.4880130000000 1.0
C      1  0.4289940000000  0.5342440000000  0.4926670000000 1.0
C      1  0.5022120000000  0.4525620000000  0.5066680000000 1.0
C      1  0.5618740000000  0.5047630000000  0.5115600000000 1.0
C      1  0.4509770000000  0.5238670000000  0.5353870000000 1.0
C      1  0.5371810000000  0.5065600000000  0.5516920000000 1.0
C      1  0.5150210000000  0.5295880000000  0.4272520000000 1.0
C      1  0.4690210000000  0.4440260000000  0.4686320000000 1.0
C      1  0.4925660000000  0.5058420000000  0.5629550000000 1.0
C      1  0.4475590000000  0.5070990000000  0.4593220000000 1.0
C      1  0.5440080000000  0.4692400000000  0.4836410000000 1.0
C      1  0.4939840000000  0.4815140000000  0.4960340000000 1.0
C      1  0.4983680000000  0.5263250000000  0.5009130000000 1.0
C      1  0.5176830000000  0.4649890000000  0.5493430000000 1.0
C      1  0.5629390000000  0.4785290000000  0.4474070000000 1.0
C      1  0.5591910000000  0.5341540000000  0.5090450000000 1.0
C      1  0.5326450000000  0.4544750000000  0.5058890000000 1.0
C      1  0.5488190000000  0.5020030000000  0.4435230000000 1.0
C      1  0.5156780000000  0.5317590000000  0.4548820000000 1.0
C      1  0.5131880000000  0.4808210000000  0.4453640000000 1.0
C      1  0.5369140000000  0.4672280000000  0.4548320000000 1.0
C      1  0.4909250000000  0.4897800000000  0.4662270000000 1.0
C      1  0.4698460000000  0.5594200000000  0.5058580000000 1.0
C      1  0.5365090000000  0.4982790000000  0.4916060000000 1.0
C      1  0.4964470000000  0.4528360000000  0.5355430000000 1.0
C      1  0.4298310000000  0.5190440000000  0.5168100000000 1.0
C      1  0.5146190000000  0.5525230000000  0.5053530000000 1.0
C      1  0.4644250000000  0.4841960000000  0.4539630000000 1.0
C      1  0.4263440000000  0.4926170000000  0.5024310000000 1.0
C      1  0.4557070000000  0.4522270000000  0.5152390000000 1.0
C      1  0.4917340000000  0.5223290000000  0.4710380000000 1.0
C      1  0.4665250000000  0.4945920000000  0.5670940000000 1.0
C      1  0.5234410000000  0.5032650000000  0.4293750000000 1.0
C      1  0.5667090000000  0.5294300000000  0.4810170000000 1.0
C      1  0.5420030000000  0.5183240000000  0.4682490000000 1.0
C      1  0.4759600000000  0.4423460000000  0.4950190000000 1.0
C      1  0.4603810000000  0.4566800000000  0.4478370000000 1.0
C      1  0.4609690000000  0.4671550000000  0.5648370000000 1.0
C      1  0.5727090000000  0.4785460000000  0.4749760000000 1.0
C      1  0.5538600000000  0.4907670000000  0.5345830000000 1.0
C      1  0.4342530000000  0.4677850000000  0.5081920000000 1.0
C      1  0.4970200000000  0.5290130000000  0.5466440000000 1.0
C      1  0.4486150000000  0.5147230000000  0.5612370000000 1.0
END
