TITL C-20236-1267-7 0.0663950880914211 125000 -630.051414817693 0 0 89 (C1) n - 1
REM
REM in /rds/project/t2_vol4/rds-t2-cs072/BORA/CARBON/from-Arr/AIRSS/Generating-Clusters/GAP-ML-2020/Only-C1/SD-CG/HFTN-CG
REM
REM
REM
REM
REM
REM ./C.cell (11c1c37f851c82e70ff6c80c92926a4b)
REM AIRSS Version 0.9.1 bugfix July 2018 build 013d7b7c2542+ Fri, 06 Jul 2018 19:26:36 +0100
REM compiler GCC version 9.3.0
REM options -cpp -mtune=generic -march=x86-64 -g -O0
REM seed 1132109348 -806017849 105511450 -1241617631 -201795181 1510747081 -1081805827 808632808 1075909353 -276778167 -2037086446 348428294 -1458329332 -915907146 2106090246 -165774777 -969468412 444523191 1887793681 1999354526 -371080619 -1503583951 537967725 -1141425259 1218260500 -479178139 848075164 -589677265 126819494 2080129482 296790412 -1185005158 -1250296151
REM
CELL 1.54180   50.00000   50.00000   50.00000   90.00000   90.00000   90.00000
LATT -1
SFAC C  
C      1  0.4704670000000  0.5613850000000  0.4564820000000 1.0
C      1  0.5267600000000  0.5721290000000  0.4888940000000 1.0
C      1  0.4901330000000  0.5819410000000  0.5287950000000 1.0
C      1  0.4871220000000  0.4708900000000  0.4180040000000 1.0
C      1  0.4617300000000  0.4773330000000  0.5622260000000 1.0
C      1  0.5022990000000  0.4358590000000  0.5453290000000 1.0
C      1  0.5190590000000  0.5405370000000  0.4931040000000 1.0
C      1  0.4839700000000  0.4159440000000  0.4649380000000 1.0
C      1  0.5774740000000  0.4773630000000  0.5038080000000 1.0
C      1  0.5071980000000  0.4554920000000  0.5648190000000 1.0
C      1  0.5043200000000  0.5256580000000  0.4716380000000 1.0
C      1  0.5607990000000  0.4889850000000  0.5277930000000 1.0
C      1  0.4935800000000  0.5013670000000  0.5742650000000 1.0
C      1  0.4816660000000  0.5775320000000  0.4773310000000 1.0
C      1  0.5133000000000  0.5086110000000  0.5557220000000 1.0
C      1  0.4761600000000  0.4295840000000  0.5338270000000 1.0
C      1  0.4899050000000  0.5645740000000  0.5527830000000 1.0
C      1  0.4904660000000  0.4830410000000  0.5160070000000 1.0
C      1  0.5027030000000  0.4914520000000  0.4118010000000 1.0
C      1  0.5335750000000  0.4794310000000  0.4863300000000 1.0
C      1  0.4537230000000  0.4476450000000  0.4409450000000 1.0
C      1  0.5472590000000  0.4436180000000  0.5237490000000 1.0
C      1  0.4593370000000  0.4717360000000  0.4262160000000 1.0
C      1  0.4701880000000  0.5451740000000  0.5581840000000 1.0
C      1  0.4867870000000  0.4735960000000  0.5738020000000 1.0
C      1  0.5102390000000  0.5048290000000  0.5239290000000 1.0
C      1  0.4411350000000  0.4950500000000  0.5166620000000 1.0
C      1  0.5469620000000  0.4810930000000  0.5854500000000 1.0
C      1  0.5383830000000  0.5830400000000  0.5117120000000 1.0
C      1  0.4913160000000  0.5572960000000  0.4357100000000 1.0
C      1  0.5348450000000  0.4655130000000  0.5659690000000 1.0
C      1  0.4653590000000  0.4152710000000  0.4867730000000 1.0
C      1  0.4720010000000  0.5200890000000  0.5737260000000 1.0
C      1  0.5625740000000  0.5486390000000  0.5173980000000 1.0
C      1  0.4426290000000  0.4319320000000  0.4859100000000 1.0
C      1  0.5668470000000  0.5098710000000  0.5487830000000 1.0
C      1  0.4806170000000  0.4137380000000  0.5109000000000 1.0
C      1  0.4484670000000  0.4968380000000  0.4339560000000 1.0
C      1  0.4631250000000  0.4771290000000  0.5325330000000 1.0
C      1  0.4575990000000  0.5094560000000  0.4956690000000 1.0
C      1  0.4737610000000  0.5774980000000  0.5060110000000 1.0
C      1  0.5226980000000  0.4278270000000  0.5259720000000 1.0
C      1  0.5452930000000  0.4994620000000  0.4431350000000 1.0
C      1  0.5446420000000  0.4527980000000  0.4854720000000 1.0
C      1  0.4512630000000  0.5416090000000  0.5361960000000 1.0
C      1  0.5399150000000  0.5477830000000  0.5607380000000 1.0
C      1  0.5392120000000  0.5449400000000  0.4450910000000 1.0
C      1  0.4778680000000  0.4317160000000  0.4425830000000 1.0
C      1  0.5495060000000  0.4650500000000  0.5412790000000 1.0
C      1  0.4342440000000  0.5175960000000  0.5370940000000 1.0
C      1  0.4718420000000  0.5318890000000  0.5066840000000 1.0
C      1  0.4528040000000  0.5387020000000  0.4541210000000 1.0
C      1  0.5109960000000  0.4162750000000  0.4764030000000 1.0
C      1  0.5291030000000  0.4360330000000  0.4675890000000 1.0
C      1  0.4492380000000  0.5028430000000  0.5702420000000 1.0
C      1  0.5091880000000  0.5172350000000  0.4155690000000 1.0
C      1  0.4609680000000  0.5228550000000  0.4315710000000 1.0
C      1  0.4986390000000  0.4477530000000  0.4314190000000 1.0
C      1  0.4811020000000  0.4874910000000  0.4892120000000 1.0
C      1  0.5609880000000  0.5373880000000  0.5434770000000 1.0
C      1  0.4859450000000  0.5336320000000  0.4215310000000 1.0
C      1  0.4366730000000  0.4482860000000  0.4630970000000 1.0
C      1  0.5241110000000  0.4825690000000  0.4583940000000 1.0
C      1  0.4272150000000  0.4738190000000  0.5011660000000 1.0
C      1  0.5540850000000  0.5049990000000  0.5745590000000 1.0
C      1  0.5203550000000  0.4537730000000  0.4478920000000 1.0
C      1  0.4367960000000  0.4473760000000  0.5091120000000 1.0
C      1  0.4264640000000  0.4739010000000  0.4724910000000 1.0
C      1  0.4555060000000  0.4486160000000  0.5303240000000 1.0
C      1  0.5196970000000  0.5674590000000  0.5552390000000 1.0
C      1  0.5086540000000  0.4140420000000  0.5050620000000 1.0
C      1  0.5346760000000  0.5223310000000  0.4286900000000 1.0
C      1  0.5807650000000  0.4914500000000  0.4800440000000 1.0
C      1  0.5195650000000  0.5860280000000  0.5329970000000 1.0
C      1  0.5317720000000  0.5231750000000  0.5722070000000 1.0
C      1  0.5004920000000  0.4982350000000  0.4707380000000 1.0
C      1  0.4248880000000  0.5110250000000  0.5622390000000 1.0
C      1  0.4407710000000  0.5199200000000  0.4724940000000 1.0
C      1  0.5659900000000  0.4500130000000  0.5025140000000 1.0
C      1  0.5098610000000  0.5802790000000  0.4689900000000 1.0
C      1  0.4568510000000  0.5555310000000  0.5124320000000 1.0
C      1  0.5169020000000  0.5646760000000  0.4453210000000 1.0
C      1  0.5562350000000  0.5328950000000  0.4678180000000 1.0
C      1  0.5004160000000  0.5304880000000  0.5129950000000 1.0
C      1  0.4322280000000  0.4970140000000  0.4577150000000 1.0
C      1  0.5675810000000  0.5069980000000  0.4610950000000 1.0
C      1  0.5650440000000  0.5758900000000  0.5160620000000 1.0
C      1  0.5379920000000  0.5000790000000  0.5081810000000 1.0
C      1  0.5471190000000  0.5300970000000  0.4968710000000 1.0
END
