TITL C-20224-1150-8 0.140917097167342 125000 -319.064258080622 0 0 48 (C1) n - 1
REM
REM in /rds/project/t2_vol4/rds-t2-cs072/BORA/CARBON/from-Arr/AIRSS/Generating-Clusters/GAP-ML-2020/Only-C1/SD-CG/HFTN-CG
REM
REM
REM
REM
REM
REM ./C.cell (11c1c37f851c82e70ff6c80c92926a4b)
REM AIRSS Version 0.9.1 bugfix July 2018 build 013d7b7c2542+ Fri, 06 Jul 2018 19:26:36 +0100
REM compiler GCC version 9.3.0
REM options -cpp -mtune=generic -march=x86-64 -g -O0
REM seed -1897920502 -1725691346 2007173625 2079656660 -52877636 -457407831 1587925221 741292114 -1519479562 -674051662 550259544 -38033754 1373360414 -156161511 -293357345 -1074301959 -395356424 1777117114 -803977729 609472242 -2037233749 1210926809 -892227416 1987019492 -398479999 2146146369 -385273793 -482878363 935923422 1294543753 557060081 1807609000 1852125928
REM
CELL 1.54180   50.00000   50.00000   50.00000   90.00000   90.00000   90.00000
LATT -1
SFAC C  
C      1  0.4915350000000  0.4485920000000  0.4554970000000 1.0
C      1  0.5116340000000  0.5221550000000  0.5502410000000 1.0
C      1  0.5630420000000  0.5483940000000  0.4906850000000 1.0
C      1  0.4905230000000  0.5509850000000  0.4653550000000 1.0
C      1  0.4678670000000  0.5570550000000  0.5060300000000 1.0
C      1  0.5227070000000  0.4968880000000  0.5083680000000 1.0
C      1  0.5237900000000  0.4646580000000  0.5681730000000 1.0
C      1  0.5358560000000  0.5529460000000  0.4958190000000 1.0
C      1  0.5089900000000  0.4237340000000  0.4852390000000 1.0
C      1  0.5279710000000  0.5251770000000  0.4578870000000 1.0
C      1  0.5079640000000  0.4486890000000  0.5230000000000 1.0
C      1  0.5112740000000  0.5192650000000  0.4362960000000 1.0
C      1  0.4938920000000  0.4731840000000  0.4415880000000 1.0
C      1  0.4676130000000  0.4344200000000  0.5010510000000 1.0
C      1  0.4960500000000  0.4269060000000  0.5095320000000 1.0
C      1  0.4855040000000  0.4844810000000  0.5425330000000 1.0
C      1  0.5355160000000  0.4974450000000  0.4611700000000 1.0
C      1  0.4741140000000  0.4513240000000  0.4783180000000 1.0
C      1  0.5374170000000  0.4831670000000  0.5566890000000 1.0
C      1  0.5527710000000  0.5283220000000  0.5312200000000 1.0
C      1  0.4816850000000  0.5513760000000  0.5312070000000 1.0
C      1  0.4540410000000  0.5311330000000  0.5063020000000 1.0
C      1  0.5128200000000  0.4695670000000  0.5038100000000 1.0
C      1  0.5080970000000  0.4253030000000  0.4595600000000 1.0
C      1  0.5442910000000  0.4938160000000  0.4875620000000 1.0
C      1  0.4450660000000  0.4723130000000  0.5185340000000 1.0
C      1  0.4870800000000  0.4733880000000  0.4902920000000 1.0
C      1  0.4725800000000  0.4849090000000  0.5153710000000 1.0
C      1  0.5347580000000  0.5054940000000  0.5378150000000 1.0
C      1  0.4434710000000  0.5205600000000  0.5310870000000 1.0
C      1  0.4745130000000  0.5668350000000  0.4811010000000 1.0
C      1  0.4866560000000  0.5105280000000  0.5528940000000 1.0
C      1  0.5690520000000  0.5036040000000  0.4931810000000 1.0
C      1  0.4746820000000  0.5111090000000  0.4994150000000 1.0
C      1  0.4675300000000  0.5293050000000  0.5439070000000 1.0
C      1  0.4869460000000  0.5330550000000  0.4417010000000 1.0
C      1  0.4661110000000  0.5158600000000  0.4354180000000 1.0
C      1  0.5029400000000  0.5183740000000  0.5001060000000 1.0
C      1  0.4463340000000  0.4447390000000  0.5150750000000 1.0
C      1  0.4346210000000  0.4947750000000  0.5296770000000 1.0
C      1  0.5030230000000  0.4629820000000  0.5477350000000 1.0
C      1  0.4819080000000  0.4974510000000  0.4749280000000 1.0
C      1  0.4707720000000  0.4921350000000  0.4476500000000 1.0
C      1  0.5345390000000  0.5499890000000  0.5248280000000 1.0
C      1  0.5141610000000  0.5391070000000  0.4800510000000 1.0
C      1  0.5164780000000  0.4903270000000  0.4400510000000 1.0
C      1  0.5097120000000  0.5476790000000  0.5382900000000 1.0
C      1  0.5701030000000  0.5265030000000  0.5077580000000 1.0
END
