TITL C-20276-235-6 0.0751295643497123 125000 -602.808365270259 0 0 88 (C1) n - 1
REM
REM in /rds/project/t2_vol4/rds-t2-cs072/BORA/CARBON/from-Arr/AIRSS/Generating-Clusters/GAP-ML-2020/Only-C1/SD-CG/HFTN-CG
REM
REM
REM
REM
REM
REM ./C.cell (11c1c37f851c82e70ff6c80c92926a4b)
REM AIRSS Version 0.9.1 bugfix July 2018 build 013d7b7c2542+ Fri, 06 Jul 2018 19:26:36 +0100
REM compiler GCC version 9.3.0
REM options -cpp -mtune=generic -march=x86-64 -g -O0
REM seed 1597083235 -1854399782 1556253432 1908515275 1078557432 984414343 -1054613779 -1050161407 1203376082 -1471178474 2102904528 -290112501 1952302610 -1104203219 1038083196 -481749959 1862982010 -1244584854 647534791 -1325003319 1569152483 1054316041 -939049760 1948552200 -346143127 -1419277585 1363880372 384351568 119004220 -796753610 189434882 -1597731038 615504447
REM
CELL 1.54180   50.00000   50.00000   50.00000   90.00000   90.00000   90.00000
LATT -1
SFAC C  
C      1  0.5173880000000  0.4968400000000  0.4905010000000 1.0
C      1  0.5151470000000  0.4742520000000  0.5091650000000 1.0
C      1  0.5060330000000  0.4915580000000  0.4622350000000 1.0
C      1  0.5783840000000  0.4796470000000  0.4881890000000 1.0
C      1  0.5151690000000  0.5421330000000  0.5665070000000 1.0
C      1  0.4184890000000  0.5143040000000  0.4726520000000 1.0
C      1  0.5312050000000  0.5175120000000  0.5278840000000 1.0
C      1  0.4920630000000  0.5405450000000  0.5464310000000 1.0
C      1  0.4633290000000  0.4425430000000  0.5457170000000 1.0
C      1  0.4884490000000  0.4628870000000  0.4975220000000 1.0
C      1  0.5324190000000  0.4488540000000  0.5597580000000 1.0
C      1  0.5426650000000  0.4589160000000  0.5188830000000 1.0
C      1  0.4569570000000  0.4357980000000  0.4742410000000 1.0
C      1  0.5607040000000  0.5201480000000  0.4640890000000 1.0
C      1  0.4938040000000  0.5274130000000  0.4285210000000 1.0
C      1  0.5160070000000  0.4909870000000  0.5351190000000 1.0
C      1  0.4363510000000  0.4910200000000  0.5420610000000 1.0
C      1  0.5063460000000  0.4488070000000  0.5704260000000 1.0
C      1  0.5637370000000  0.4568860000000  0.4989770000000 1.0
C      1  0.5529590000000  0.4764480000000  0.4471330000000 1.0
C      1  0.5012480000000  0.5863850000000  0.5441580000000 1.0
C      1  0.5083910000000  0.5354280000000  0.5200060000000 1.0
C      1  0.5380480000000  0.5557680000000  0.4854230000000 1.0
C      1  0.4451430000000  0.5264870000000  0.5109440000000 1.0
C      1  0.5127310000000  0.4953930000000  0.5881000000000 1.0
C      1  0.4578940000000  0.4324470000000  0.5207080000000 1.0
C      1  0.4820980000000  0.5679260000000  0.5383080000000 1.0
C      1  0.5254930000000  0.4255690000000  0.4813720000000 1.0
C      1  0.4511820000000  0.5536840000000  0.4708100000000 1.0
C      1  0.5672890000000  0.4857780000000  0.5519910000000 1.0
C      1  0.5515490000000  0.4487400000000  0.4548600000000 1.0
C      1  0.4918790000000  0.5799850000000  0.4674650000000 1.0
C      1  0.4212500000000  0.5125340000000  0.5006900000000 1.0
C      1  0.5188250000000  0.5189330000000  0.5803160000000 1.0
C      1  0.5046200000000  0.4199820000000  0.5008970000000 1.0
C      1  0.5868290000000  0.4937860000000  0.5366740000000 1.0
C      1  0.4387830000000  0.4691840000000  0.5080470000000 1.0
C      1  0.5090930000000  0.4234840000000  0.5294530000000 1.0
C      1  0.4477590000000  0.4831480000000  0.4525610000000 1.0
C      1  0.5416270000000  0.5100520000000  0.5021470000000 1.0
C      1  0.4692220000000  0.4807540000000  0.5106760000000 1.0
C      1  0.4682530000000  0.5246050000000  0.4165950000000 1.0
C      1  0.4944540000000  0.5767710000000  0.4946560000000 1.0
C      1  0.4881960000000  0.5137280000000  0.4550010000000 1.0
C      1  0.4719630000000  0.5697190000000  0.5112640000000 1.0
C      1  0.4175510000000  0.4933010000000  0.4535830000000 1.0
C      1  0.5690370000000  0.4927580000000  0.4636690000000 1.0
C      1  0.5248650000000  0.4387840000000  0.4542060000000 1.0
C      1  0.4521960000000  0.5535780000000  0.4994440000000 1.0
C      1  0.5183760000000  0.5630740000000  0.5064470000000 1.0
C      1  0.5899500000000  0.5175260000000  0.5209330000000 1.0
C      1  0.5325010000000  0.5561400000000  0.4576870000000 1.0
C      1  0.5528850000000  0.4378170000000  0.4813880000000 1.0
C      1  0.4341930000000  0.4410180000000  0.5070280000000 1.0
C      1  0.4704220000000  0.5657050000000  0.4547570000000 1.0
C      1  0.4962220000000  0.5182050000000  0.4984920000000 1.0
C      1  0.5360230000000  0.5568110000000  0.5518930000000 1.0
C      1  0.4742740000000  0.5173190000000  0.5488790000000 1.0
C      1  0.5236530000000  0.5753930000000  0.5339690000000 1.0
C      1  0.4448700000000  0.5214010000000  0.4292750000000 1.0
C      1  0.5560400000000  0.5340620000000  0.4905320000000 1.0
C      1  0.4330960000000  0.4270360000000  0.4829720000000 1.0
C      1  0.5415700000000  0.5308040000000  0.4456730000000 1.0
C      1  0.4478090000000  0.5166670000000  0.5396350000000 1.0
C      1  0.4884820000000  0.4658650000000  0.4656050000000 1.0
C      1  0.5710730000000  0.5373300000000  0.5174440000000 1.0
C      1  0.5264340000000  0.4861390000000  0.4385990000000 1.0
C      1  0.4964050000000  0.4734870000000  0.5817460000000 1.0
C      1  0.4973990000000  0.5325080000000  0.4746820000000 1.0
C      1  0.5928510000000  0.4937360000000  0.5073300000000 1.0
C      1  0.4213820000000  0.4888340000000  0.5178630000000 1.0
C      1  0.4752010000000  0.4821590000000  0.5645780000000 1.0
C      1  0.4525380000000  0.4686450000000  0.5553540000000 1.0
C      1  0.5236730000000  0.5149800000000  0.4296970000000 1.0
C      1  0.5097620000000  0.4605470000000  0.4447350000000 1.0
C      1  0.4680150000000  0.5068950000000  0.4963990000000 1.0
C      1  0.4325560000000  0.4953080000000  0.4308940000000 1.0
C      1  0.4783670000000  0.4337740000000  0.4981300000000 1.0
C      1  0.4904500000000  0.4344590000000  0.5505730000000 1.0
C      1  0.4898920000000  0.5555710000000  0.4349860000000 1.0
C      1  0.5515030000000  0.5377390000000  0.5381770000000 1.0
C      1  0.5107090000000  0.5698580000000  0.4483400000000 1.0
C      1  0.5424910000000  0.4740450000000  0.5474480000000 1.0
C      1  0.4416050000000  0.5293160000000  0.4596290000000 1.0
C      1  0.5338310000000  0.4350840000000  0.5350820000000 1.0
C      1  0.4613580000000  0.4588600000000  0.4576910000000 1.0
C      1  0.4613080000000  0.5071780000000  0.4664170000000 1.0
C      1  0.4857590000000  0.4925170000000  0.5390100000000 1.0
END
