TITL C-20247-1570-2 -0.0680416154700985 125000 -501.099681224636 0 0 73 (C1) n - 1
REM
REM in /rds/project/t2_vol4/rds-t2-cs072/BORA/CARBON/from-Arr/AIRSS/Generating-Clusters/GAP-ML-2020/Only-C1/SD-CG/HFTN-CG
REM
REM
REM
REM
REM
REM ./C.cell (11c1c37f851c82e70ff6c80c92926a4b)
REM AIRSS Version 0.9.1 bugfix July 2018 build 013d7b7c2542+ Fri, 06 Jul 2018 19:26:36 +0100
REM compiler GCC version 9.3.0
REM options -cpp -mtune=generic -march=x86-64 -g -O0
REM seed -1650962939 550586417 -396930881 1751878631 885616635 534718536 -788298915 -1588702215 2023902714 1640595145 -348012409 -1147823117 1645949921 -510365514 -951696446 -1830023912 -116323391 1368151840 1556256283 -1700609454 1888277155 826845059 14842216 -7608467 919215798 1474154361 1527728778 1685893381 1009887973 -24039074 1210252740 562624786 112181814
REM
CELL 1.54180   50.00000   50.00000   50.00000   90.00000   90.00000   90.00000
LATT -1
SFAC C  
C      1  0.4829280000000  0.5177030000000  0.5569300000000 1.0
C      1  0.4218940000000  0.5345340000000  0.5235570000000 1.0
C      1  0.5452390000000  0.5394460000000  0.5221590000000 1.0
C      1  0.5315900000000  0.4364720000000  0.4560980000000 1.0
C      1  0.4287020000000  0.4982950000000  0.4947090000000 1.0
C      1  0.5170850000000  0.4796440000000  0.5135670000000 1.0
C      1  0.4571670000000  0.5147230000000  0.5437330000000 1.0
C      1  0.5362550000000  0.5258360000000  0.5713740000000 1.0
C      1  0.4361880000000  0.4921970000000  0.5397630000000 1.0
C      1  0.5098050000000  0.5536790000000  0.4660310000000 1.0
C      1  0.5642720000000  0.5194100000000  0.5101300000000 1.0
C      1  0.5372870000000  0.4320040000000  0.5338170000000 1.0
C      1  0.4707170000000  0.4590310000000  0.5492930000000 1.0
C      1  0.5708590000000  0.4658020000000  0.5104960000000 1.0
C      1  0.4728800000000  0.4499470000000  0.4587810000000 1.0
C      1  0.5573370000000  0.4556570000000  0.4885740000000 1.0
C      1  0.5034720000000  0.4841070000000  0.4501060000000 1.0
C      1  0.5554820000000  0.5256450000000  0.4442710000000 1.0
C      1  0.5290900000000  0.4829270000000  0.4656710000000 1.0
C      1  0.4708440000000  0.4361920000000  0.5067350000000 1.0
C      1  0.4903070000000  0.4708280000000  0.5193250000000 1.0
C      1  0.4947890000000  0.4568470000000  0.4414890000000 1.0
C      1  0.5062590000000  0.5719290000000  0.5113800000000 1.0
C      1  0.5313770000000  0.5587040000000  0.5059900000000 1.0
C      1  0.4520710000000  0.4913580000000  0.4436110000000 1.0
C      1  0.4438740000000  0.4735940000000  0.4892070000000 1.0
C      1  0.5082950000000  0.5433390000000  0.4395240000000 1.0
C      1  0.4843460000000  0.4369740000000  0.4813500000000 1.0
C      1  0.5120190000000  0.4370050000000  0.5443640000000 1.0
C      1  0.4629890000000  0.5169860000000  0.4416290000000 1.0
C      1  0.4461730000000  0.4657860000000  0.5367130000000 1.0
C      1  0.5576760000000  0.4508500000000  0.4605250000000 1.0
C      1  0.4435720000000  0.5408190000000  0.5404100000000 1.0
C      1  0.5335400000000  0.4776930000000  0.5634440000000 1.0
C      1  0.4320490000000  0.5455000000000  0.4996960000000 1.0
C      1  0.5279110000000  0.5090830000000  0.4779550000000 1.0
C      1  0.5085490000000  0.5053510000000  0.4295370000000 1.0
C      1  0.4665620000000  0.5123670000000  0.5129510000000 1.0
C      1  0.4887350000000  0.4702650000000  0.5684260000000 1.0
C      1  0.5558020000000  0.4788440000000  0.4543440000000 1.0
C      1  0.5546720000000  0.4516580000000  0.5303870000000 1.0
C      1  0.4486950000000  0.5692990000000  0.5038780000000 1.0
C      1  0.4647620000000  0.5827520000000  0.4858210000000 1.0
C      1  0.5293890000000  0.5354440000000  0.5462250000000 1.0
C      1  0.4872470000000  0.4968800000000  0.4777940000000 1.0
C      1  0.5097210000000  0.5049470000000  0.4983320000000 1.0
C      1  0.4997880000000  0.5358430000000  0.5403470000000 1.0
C      1  0.4893180000000  0.5619410000000  0.5327620000000 1.0
C      1  0.4862300000000  0.4418540000000  0.5308200000000 1.0
C      1  0.4611130000000  0.5610880000000  0.5292070000000 1.0
C      1  0.5580870000000  0.5431780000000  0.4674240000000 1.0
C      1  0.5237990000000  0.5019810000000  0.5759670000000 1.0
C      1  0.5356830000000  0.5561900000000  0.4781910000000 1.0
C      1  0.5304400000000  0.5250420000000  0.4331890000000 1.0
C      1  0.4468210000000  0.4530010000000  0.5099990000000 1.0
C      1  0.4694300000000  0.5222120000000  0.4706670000000 1.0
C      1  0.5638690000000  0.4928480000000  0.5201080000000 1.0
C      1  0.5712120000000  0.5221090000000  0.4823540000000 1.0
C      1  0.5142850000000  0.4389650000000  0.4805020000000 1.0
C      1  0.4904880000000  0.5721640000000  0.4860780000000 1.0
C      1  0.4884910000000  0.5417510000000  0.4834040000000 1.0
C      1  0.5408990000000  0.4801290000000  0.5347300000000 1.0
C      1  0.4196740000000  0.5047450000000  0.5205490000000 1.0
C      1  0.4511160000000  0.4694500000000  0.4605910000000 1.0
C      1  0.5134980000000  0.4572680000000  0.5647300000000 1.0
C      1  0.4925330000000  0.5264300000000  0.5101190000000 1.0
C      1  0.4877820000000  0.5247810000000  0.4300300000000 1.0
C      1  0.5275700000000  0.4632450000000  0.4897180000000 1.0
C      1  0.5140790000000  0.4369120000000  0.4363020000000 1.0
C      1  0.4469380000000  0.5215360000000  0.4901010000000 1.0
C      1  0.4950530000000  0.4983360000000  0.5729700000000 1.0
C      1  0.5693980000000  0.5036380000000  0.4580760000000 1.0
C      1  0.4719350000000  0.4850100000000  0.5009620000000 1.0
END
