TITL C-20280-1141-6 -7.82593926842433 125000 -183.218313931238 0 0 28 (C1) n - 1
REM
REM in /rds/project/t2_vol4/rds-t2-cs072/BORA/CARBON/from-Arr/AIRSS/Generating-Clusters/GAP-ML-2020/Only-C1/SD-CG/HFTN-CG
REM
REM
REM
REM
REM
REM ./C.cell (11c1c37f851c82e70ff6c80c92926a4b)
REM AIRSS Version 0.9.1 bugfix July 2018 build 013d7b7c2542+ Fri, 06 Jul 2018 19:26:36 +0100
REM compiler GCC version 9.3.0
REM options -cpp -mtune=generic -march=x86-64 -g -O0
REM seed -1941933092 1762273643 -1552222193 1245640986 212221747 -1011277860 1247206133 -2058225759 -1420782074 1344537282 265402598 -1473216298 -758492863 -469815537 -80065384 1746338103 249869794 1294860234 -1007618630 198299625 -903778443 -1997659035 -1947015463 -2117336382 -1945606114 -1918694680 -710544922 -418500056 961499154 -1746272603 1004305979 -747778427 -504859962
REM
CELL 1.54180   50.00000   50.00000   50.00000   90.00000   90.00000   90.00000
LATT -1
SFAC C  
C      1  0.4812620000000  0.5249880000000  0.5270850000000 1.0
C      1  0.4800860000000  0.4565200000000  0.4730060000000 1.0
C      1  0.5639900000000  0.4969200000000  0.5051810000000 1.0
C      1  0.4812830000000  0.5453940000000  0.4644380000000 1.0
C      1  0.5428960000000  0.4929900000000  0.5216350000000 1.0
C      1  0.5419570000000  0.5459600000000  0.4790930000000 1.0
C      1  0.4657020000000  0.4768830000000  0.4643310000000 1.0
C      1  0.5639990000000  0.5336540000000  0.4777020000000 1.0
C      1  0.5018940000000  0.4701510000000  0.5341720000000 1.0
C      1  0.5327830000000  0.5173280000000  0.5320340000000 1.0
C      1  0.4756450000000  0.4376940000000  0.4960840000000 1.0
C      1  0.5757290000000  0.5127330000000  0.4892210000000 1.0
C      1  0.4316270000000  0.5081970000000  0.4847720000000 1.0
C      1  0.4762860000000  0.5473340000000  0.5114240000000 1.0
C      1  0.4681190000000  0.5253030000000  0.4581460000000 1.0
C      1  0.5224190000000  0.4500220000000  0.5009980000000 1.0
C      1  0.5254860000000  0.4695760000000  0.5213860000000 1.0
C      1  0.5076560000000  0.5274360000000  0.5380580000000 1.0
C      1  0.5211890000000  0.5509550000000  0.4959880000000 1.0
C      1  0.4666270000000  0.4507950000000  0.5170850000000 1.0
C      1  0.5045430000000  0.4297410000000  0.4968130000000 1.0
C      1  0.5091580000000  0.4497610000000  0.4746750000000 1.0
C      1  0.4650100000000  0.5014700000000  0.5237560000000 1.0
C      1  0.4431170000000  0.5056580000000  0.5070570000000 1.0
C      1  0.5274300000000  0.5430470000000  0.5234700000000 1.0
C      1  0.4926610000000  0.5520500000000  0.4896810000000 1.0
C      1  0.4765800000000  0.4751160000000  0.5261550000000 1.0
C      1  0.4548650000000  0.5023240000000  0.4665520000000 1.0
END
