TITL C-200313-9477-3 5.83163182746345 125000 -959.691228515381 0 0 136 (C1) n - 1
REM
REM in /rds/project/t2_vol4/rds-t2-cs072/BORA/CARBON/from-Arr/AIRSS/Generating-Clusters/GAP-ML-2020/Only-C1/SD-CG/HFTN-CG
REM
REM
REM
REM
REM
REM ./C.cell (11c1c37f851c82e70ff6c80c92926a4b)
REM AIRSS Version 0.9.1 bugfix July 2018 build 013d7b7c2542+ Fri, 06 Jul 2018 19:26:36 +0100
REM compiler GCC version 9.3.0
REM options -cpp -mtune=generic -march=x86-64 -g -O0
REM seed -955570823 -19634925 -830710113 -1452010290 443451886 885908274 -832656922 -447530404 319860032 -1612923106 187883745 1580783141 -47592349 958090651 1638582940 -1829757914 -702129833 -337377292 -806621447 1993765313 -1955649241 -1673574677 -1451299117 315626694 1688081782 1881912656 156590783 -221739428 1908480288 -1724553966 1912357368 -1970793473 -1702270396
REM
CELL 1.54180   50.00000   50.00000   50.00000   90.00000   90.00000   90.00000
LATT -1
SFAC C  
C      1  0.5211120000000  0.4160660000000  0.5570180000000 1.0
C      1  0.5356570000000  0.4065930000000  0.5142480000000 1.0
C      1  0.4646510000000  0.5902870000000  0.4678230000000 1.0
C      1  0.5267750000000  0.4697830000000  0.5242120000000 1.0
C      1  0.5632840000000  0.4463170000000  0.4429820000000 1.0
C      1  0.5099740000000  0.5025310000000  0.6001670000000 1.0
C      1  0.5720840000000  0.4524650000000  0.4696530000000 1.0
C      1  0.5750550000000  0.5534950000000  0.4750920000000 1.0
C      1  0.4487270000000  0.5846740000000  0.5124970000000 1.0
C      1  0.5491510000000  0.5639350000000  0.4800250000000 1.0
C      1  0.5365800000000  0.5043530000000  0.5445100000000 1.0
C      1  0.4279710000000  0.4663680000000  0.4401620000000 1.0
C      1  0.5269690000000  0.5534220000000  0.4311310000000 1.0
C      1  0.5232980000000  0.5993590000000  0.5162660000000 1.0
C      1  0.4614470000000  0.4376520000000  0.5251660000000 1.0
C      1  0.5310670000000  0.4856140000000  0.5955260000000 1.0
C      1  0.5160560000000  0.5445280000000  0.5704760000000 1.0
C      1  0.5097670000000  0.4572300000000  0.5060640000000 1.0
C      1  0.4259650000000  0.4916740000000  0.4280240000000 1.0
C      1  0.4855850000000  0.4842720000000  0.4107870000000 1.0
C      1  0.4456130000000  0.5135230000000  0.4241070000000 1.0
C      1  0.4761240000000  0.4240050000000  0.5477350000000 1.0
C      1  0.4365420000000  0.5765350000000  0.5371350000000 1.0
C      1  0.5359460000000  0.5783090000000  0.5286830000000 1.0
C      1  0.5518550000000  0.5150520000000  0.4198780000000 1.0
C      1  0.5413570000000  0.4977140000000  0.4749140000000 1.0
C      1  0.4847010000000  0.4218710000000  0.4491530000000 1.0
C      1  0.4519640000000  0.5311930000000  0.5169690000000 1.0
C      1  0.4685730000000  0.5513970000000  0.4352030000000 1.0
C      1  0.5699890000000  0.4315450000000  0.4900430000000 1.0
C      1  0.5908000000000  0.4691830000000  0.4859810000000 1.0
C      1  0.5527600000000  0.5395620000000  0.4340640000000 1.0
C      1  0.5118220000000  0.5358510000000  0.4145200000000 1.0
C      1  0.4943480000000  0.6030170000000  0.5183170000000 1.0
C      1  0.4134400000000  0.4912610000000  0.5576380000000 1.0
C      1  0.5603520000000  0.5696420000000  0.5399860000000 1.0
C      1  0.5852290000000  0.5110370000000  0.5292590000000 1.0
C      1  0.4421030000000  0.5807470000000  0.4850630000000 1.0
C      1  0.5402480000000  0.4288150000000  0.4428790000000 1.0
C      1  0.4124020000000  0.4631390000000  0.4639100000000 1.0
C      1  0.4828350000000  0.4605670000000  0.5145760000000 1.0
C      1  0.4867620000000  0.5091150000000  0.5813640000000 1.0
C      1  0.4726980000000  0.6170440000000  0.4717080000000 1.0
C      1  0.5076260000000  0.5342490000000  0.4762430000000 1.0
C      1  0.5656680000000  0.4909230000000  0.5362730000000 1.0
C      1  0.5221820000000  0.5007960000000  0.5187850000000 1.0
C      1  0.4573140000000  0.5041160000000  0.5829530000000 1.0
C      1  0.4891740000000  0.5378230000000  0.5763720000000 1.0
C      1  0.5810810000000  0.5344410000000  0.5441030000000 1.0
C      1  0.5205300000000  0.6018630000000  0.4870510000000 1.0
C      1  0.4884950000000  0.4067950000000  0.4942740000000 1.0
C      1  0.5410500000000  0.5388610000000  0.5839070000000 1.0
C      1  0.5327930000000  0.4620160000000  0.5765510000000 1.0
C      1  0.5015710000000  0.4102130000000  0.4684990000000 1.0
C      1  0.4919870000000  0.6098900000000  0.4893840000000 1.0
C      1  0.4110910000000  0.5470940000000  0.5040640000000 1.0
C      1  0.4606960000000  0.5729090000000  0.5525720000000 1.0
C      1  0.5654800000000  0.4312810000000  0.5511980000000 1.0
C      1  0.5260950000000  0.5117640000000  0.4087430000000 1.0
C      1  0.4474090000000  0.4848860000000  0.5224240000000 1.0
C      1  0.4141730000000  0.5133450000000  0.4751640000000 1.0
C      1  0.4004170000000  0.4864560000000  0.4754880000000 1.0
C      1  0.4765020000000  0.5808720000000  0.5259680000000 1.0
C      1  0.5819380000000  0.5562260000000  0.5251360000000 1.0
C      1  0.4421030000000  0.5042820000000  0.4742840000000 1.0
C      1  0.4511130000000  0.4498800000000  0.4353240000000 1.0
C      1  0.4925360000000  0.5066700000000  0.5189600000000 1.0
C      1  0.4826450000000  0.5021780000000  0.4902540000000 1.0
C      1  0.4503500000000  0.4762750000000  0.5783860000000 1.0
C      1  0.5447100000000  0.4144540000000  0.5407450000000 1.0
C      1  0.4238590000000  0.5163150000000  0.5540630000000 1.0
C      1  0.4140240000000  0.4598470000000  0.5115560000000 1.0
C      1  0.5934260000000  0.4973430000000  0.4804390000000 1.0
C      1  0.4793440000000  0.5319710000000  0.5270420000000 1.0
C      1  0.4831990000000  0.5480760000000  0.4834970000000 1.0
C      1  0.5131690000000  0.5719020000000  0.4484670000000 1.0
C      1  0.5691540000000  0.4953240000000  0.4311510000000 1.0
C      1  0.4469570000000  0.4963660000000  0.4473920000000 1.0
C      1  0.4616680000000  0.5239850000000  0.4885020000000 1.0
C      1  0.5186890000000  0.4636550000000  0.4794790000000 1.0
C      1  0.4777740000000  0.4852980000000  0.5324070000000 1.0
C      1  0.5487700000000  0.4702290000000  0.4839210000000 1.0
C      1  0.4450460000000  0.4280250000000  0.4798610000000 1.0
C      1  0.5883870000000  0.5448480000000  0.4989510000000 1.0
C      1  0.5221270000000  0.4406080000000  0.4239870000000 1.0
C      1  0.4009180000000  0.4849160000000  0.5032840000000 1.0
C      1  0.4444200000000  0.5265310000000  0.5714230000000 1.0
C      1  0.5804530000000  0.4518460000000  0.5102600000000 1.0
C      1  0.5326100000000  0.4652500000000  0.4137510000000 1.0
C      1  0.4946970000000  0.4383830000000  0.4279530000000 1.0
C      1  0.5307370000000  0.4142870000000  0.4656870000000 1.0
C      1  0.5771630000000  0.4700880000000  0.5545120000000 1.0
C      1  0.4917920000000  0.4847850000000  0.5607180000000 1.0
C      1  0.4758920000000  0.4641670000000  0.5766970000000 1.0
C      1  0.4757580000000  0.4589480000000  0.4217640000000 1.0
C      1  0.5310280000000  0.5416910000000  0.4942780000000 1.0
C      1  0.5832030000000  0.5082520000000  0.4540420000000 1.0
C      1  0.4573800000000  0.4293010000000  0.4540440000000 1.0
C      1  0.5211760000000  0.5527240000000  0.5214660000000 1.0
C      1  0.4746260000000  0.4736360000000  0.4887350000000 1.0
C      1  0.4358240000000  0.4581280000000  0.5321440000000 1.0
C      1  0.4219230000000  0.5594860000000  0.4799710000000 1.0
C      1  0.4822710000000  0.5676300000000  0.4563080000000 1.0
C      1  0.4228370000000  0.5403160000000  0.4593390000000 1.0
C      1  0.5934870000000  0.5166700000000  0.5020830000000 1.0
C      1  0.5862160000000  0.4476520000000  0.5380930000000 1.0
C      1  0.5573710000000  0.5451460000000  0.5578270000000 1.0
C      1  0.4993450000000  0.5085320000000  0.4678750000000 1.0
C      1  0.4471880000000  0.4792870000000  0.4912200000000 1.0
C      1  0.5067550000000  0.4015050000000  0.5154580000000 1.0
C      1  0.4319110000000  0.5107240000000  0.5255750000000 1.0
C      1  0.5302850000000  0.5825710000000  0.4689480000000 1.0
C      1  0.4858350000000  0.4391620000000  0.5704130000000 1.0
C      1  0.5586050000000  0.4691220000000  0.4259800000000 1.0
C      1  0.5553370000000  0.4702270000000  0.5136640000000 1.0
C      1  0.5211330000000  0.4796220000000  0.5546070000000 1.0
C      1  0.5166340000000  0.4879330000000  0.4632130000000 1.0
C      1  0.4428430000000  0.5390710000000  0.4380370000000 1.0
C      1  0.4982280000000  0.4079810000000  0.5415150000000 1.0
C      1  0.4908810000000  0.5556190000000  0.5148940000000 1.0
C      1  0.4840650000000  0.5351090000000  0.4163780000000 1.0
C      1  0.4302870000000  0.5536460000000  0.5234410000000 1.0
C      1  0.4292140000000  0.4691390000000  0.5602230000000 1.0
C      1  0.4717620000000  0.5100540000000  0.4115340000000 1.0
C      1  0.5383890000000  0.5140060000000  0.4979500000000 1.0
C      1  0.5348350000000  0.5143680000000  0.5969610000000 1.0
C      1  0.5141990000000  0.4861020000000  0.4066580000000 1.0
C      1  0.4094690000000  0.5160360000000  0.5055390000000 1.0
C      1  0.5477520000000  0.4140450000000  0.4893050000000 1.0
C      1  0.5596670000000  0.4529570000000  0.5694590000000 1.0
C      1  0.4267610000000  0.4509490000000  0.4859140000000 1.0
C      1  0.4638130000000  0.5497930000000  0.5688340000000 1.0
C      1  0.5139910000000  0.4372930000000  0.5738750000000 1.0
C      1  0.5744390000000  0.5361700000000  0.4529440000000 1.0
C      1  0.5303220000000  0.5347190000000  0.5459150000000 1.0
C      1  0.4623140000000  0.4193370000000  0.5005590000000 1.0
END
