TITL C-20258-6832-1 141.305775748309 125000 -864.514085142305 0 0 125 (C1) n - 1
REM
REM in /rds/project/t2_vol4/rds-t2-cs072/BORA/CARBON/from-Arr/AIRSS/Generating-Clusters/GAP-ML-2020/Only-C1/SD-CG/HFTN-CG
REM
REM
REM
REM
REM
REM ./C.cell (11c1c37f851c82e70ff6c80c92926a4b)
REM AIRSS Version 0.9.1 bugfix July 2018 build 013d7b7c2542+ Fri, 06 Jul 2018 19:26:36 +0100
REM compiler GCC version 9.3.0
REM options -cpp -mtune=generic -march=x86-64 -g -O0
REM seed 962118313 403462962 -839828283 -663104472 -1250406199 1335913048 -880557962 -761736024 660149774 546433912 -1641711856 233798776 651112975 815512676 1181068672 892009174 -1553580916 -1480286102 1090534894 -1362013317 122764320 1831104382 1864095640 2025445619 -1847660112 2035154033 -1241591341 559829621 438210869 873500277 -727912524 1531840197 355226715
REM
CELL 1.54180   50.00000   50.00000   50.00000   90.00000   90.00000   90.00000
LATT -1
SFAC C  
C      1  0.5714290000000  0.4612390000000  0.5568160000000 1.0
C      1  0.5548140000000  0.5568720000000  0.4916370000000 1.0
C      1  0.4384340000000  0.4395050000000  0.5354090000000 1.0
C      1  0.5318120000000  0.4119780000000  0.5111400000000 1.0
C      1  0.5112520000000  0.4643480000000  0.5385350000000 1.0
C      1  0.5844750000000  0.4848530000000  0.5594940000000 1.0
C      1  0.5567710000000  0.5403600000000  0.4436890000000 1.0
C      1  0.5277900000000  0.5097850000000  0.4825450000000 1.0
C      1  0.4890320000000  0.4440110000000  0.5015540000000 1.0
C      1  0.5465690000000  0.5541200000000  0.5518050000000 1.0
C      1  0.5309330000000  0.4171690000000  0.4834210000000 1.0
C      1  0.5398050000000  0.4696360000000  0.4644840000000 1.0
C      1  0.5391440000000  0.5312600000000  0.5303500000000 1.0
C      1  0.4299010000000  0.4668090000000  0.5341370000000 1.0
C      1  0.4962700000000  0.4712270000000  0.5148180000000 1.0
C      1  0.5751980000000  0.5102550000000  0.5489050000000 1.0
C      1  0.5003490000000  0.5991580000000  0.5123620000000 1.0
C      1  0.5698000000000  0.4429660000000  0.4627900000000 1.0
C      1  0.4828330000000  0.5137740000000  0.5977480000000 1.0
C      1  0.4744500000000  0.6067320000000  0.5085840000000 1.0
C      1  0.4310560000000  0.4967840000000  0.4426420000000 1.0
C      1  0.4662700000000  0.4702190000000  0.4695380000000 1.0
C      1  0.5406520000000  0.5783490000000  0.5030940000000 1.0
C      1  0.4617080000000  0.4109360000000  0.4723800000000 1.0
C      1  0.4888290000000  0.5475760000000  0.4098530000000 1.0
C      1  0.4767990000000  0.4505750000000  0.4149170000000 1.0
C      1  0.4583390000000  0.4099080000000  0.5007220000000 1.0
C      1  0.5473980000000  0.4657000000000  0.4218680000000 1.0
C      1  0.5180040000000  0.5917220000000  0.4902520000000 1.0
C      1  0.4195430000000  0.5397600000000  0.5303970000000 1.0
C      1  0.4466490000000  0.4271570000000  0.4537180000000 1.0
C      1  0.5985490000000  0.5105340000000  0.5001030000000 1.0
C      1  0.4854850000000  0.4952990000000  0.3972350000000 1.0
C      1  0.5618820000000  0.5317670000000  0.5672900000000 1.0
C      1  0.4933780000000  0.5544770000000  0.5211450000000 1.0
C      1  0.4810850000000  0.4199710000000  0.5196670000000 1.0
C      1  0.5342550000000  0.4473580000000  0.5433720000000 1.0
C      1  0.4596670000000  0.5891660000000  0.4941720000000 1.0
C      1  0.5163200000000  0.5558230000000  0.4188590000000 1.0
C      1  0.4852920000000  0.4188740000000  0.4573880000000 1.0
C      1  0.5692560000000  0.5141620000000  0.4356620000000 1.0
C      1  0.4928530000000  0.5518710000000  0.4916730000000 1.0
C      1  0.5037150000000  0.4322200000000  0.5743020000000 1.0
C      1  0.4504020000000  0.5205480000000  0.4151150000000 1.0
C      1  0.4134300000000  0.5320360000000  0.5038880000000 1.0
C      1  0.5794280000000  0.4935690000000  0.4516530000000 1.0
C      1  0.4699500000000  0.5175880000000  0.5131700000000 1.0
C      1  0.5406760000000  0.5403690000000  0.4197830000000 1.0
C      1  0.4701810000000  0.4325580000000  0.4362060000000 1.0
C      1  0.4606040000000  0.5470130000000  0.5595410000000 1.0
C      1  0.4124860000000  0.5032000000000  0.5069370000000 1.0
C      1  0.5002020000000  0.4994550000000  0.4497820000000 1.0
C      1  0.4755880000000  0.5765160000000  0.4732890000000 1.0
C      1  0.4339980000000  0.4235930000000  0.5095260000000 1.0
C      1  0.5091280000000  0.4098900000000  0.5282210000000 1.0
C      1  0.5216460000000  0.5424380000000  0.5908970000000 1.0
C      1  0.5455220000000  0.4545360000000  0.5688820000000 1.0
C      1  0.4401700000000  0.5588720000000  0.5270420000000 1.0
C      1  0.5603280000000  0.5333260000000  0.5095940000000 1.0
C      1  0.4772050000000  0.4291880000000  0.5694920000000 1.0
C      1  0.4358280000000  0.4774330000000  0.4647080000000 1.0
C      1  0.4772320000000  0.5658270000000  0.4297270000000 1.0
C      1  0.4352250000000  0.5262170000000  0.4398630000000 1.0
C      1  0.4759220000000  0.5231780000000  0.4022950000000 1.0
C      1  0.4664410000000  0.5451800000000  0.5308170000000 1.0
C      1  0.5043310000000  0.5747640000000  0.4382600000000 1.0
C      1  0.5367760000000  0.5764450000000  0.5309620000000 1.0
C      1  0.4212110000000  0.4368480000000  0.4891510000000 1.0
C      1  0.5303080000000  0.5004690000000  0.6055760000000 1.0
C      1  0.4638340000000  0.5045350000000  0.5774390000000 1.0
C      1  0.4592620000000  0.5662410000000  0.4512400000000 1.0
C      1  0.4170860000000  0.4934360000000  0.5353660000000 1.0
C      1  0.5062820000000  0.4776460000000  0.5621030000000 1.0
C      1  0.4724750000000  0.4902590000000  0.5244950000000 1.0
C      1  0.5186670000000  0.4233200000000  0.5512480000000 1.0
C      1  0.5192000000000  0.4566190000000  0.5842980000000 1.0
C      1  0.5511980000000  0.4829290000000  0.5150990000000 1.0
C      1  0.5046570000000  0.4548680000000  0.4078900000000 1.0
C      1  0.5240580000000  0.4492240000000  0.4272010000000 1.0
C      1  0.5158850000000  0.4537800000000  0.4565290000000 1.0
C      1  0.5192060000000  0.4745630000000  0.6073840000000 1.0
C      1  0.5819430000000  0.5029540000000  0.4786040000000 1.0
C      1  0.4645700000000  0.4558890000000  0.4930440000000 1.0
C      1  0.5590270000000  0.4541480000000  0.5279650000000 1.0
C      1  0.4286760000000  0.4852850000000  0.4922190000000 1.0
C      1  0.5109900000000  0.4814520000000  0.3978560000000 1.0
C      1  0.5062680000000  0.4319790000000  0.4750790000000 1.0
C      1  0.4382100000000  0.5713240000000  0.5013040000000 1.0
C      1  0.4640590000000  0.4289860000000  0.5448980000000 1.0
C      1  0.5507320000000  0.5133250000000  0.4129090000000 1.0
C      1  0.5436770000000  0.5500550000000  0.4665020000000 1.0
C      1  0.4363690000000  0.5492380000000  0.4569800000000 1.0
C      1  0.4483880000000  0.4734130000000  0.5114650000000 1.0
C      1  0.5097170000000  0.4846760000000  0.4920360000000 1.0
C      1  0.5019870000000  0.5168750000000  0.5508330000000 1.0
C      1  0.4238730000000  0.5174290000000  0.5494090000000 1.0
C      1  0.5027540000000  0.5743370000000  0.5633750000000 1.0
C      1  0.5586310000000  0.4285450000000  0.4824750000000 1.0
C      1  0.4654570000000  0.4764470000000  0.4065220000000 1.0
C      1  0.5077150000000  0.5802380000000  0.5349370000000 1.0
C      1  0.4280110000000  0.4463530000000  0.4644550000000 1.0
C      1  0.5385760000000  0.5193980000000  0.5840050000000 1.0
C      1  0.4931830000000  0.5399220000000  0.5935940000000 1.0
C      1  0.5268940000000  0.5627800000000  0.5727120000000 1.0
C      1  0.5294590000000  0.4979180000000  0.4555650000000 1.0
C      1  0.4759130000000  0.5265350000000  0.4872220000000 1.0
C      1  0.5458400000000  0.5024970000000  0.5387440000000 1.0
C      1  0.5571120000000  0.4289660000000  0.5117480000000 1.0
C      1  0.5650590000000  0.4666810000000  0.4474740000000 1.0
C      1  0.5028920000000  0.5857220000000  0.4649660000000 1.0
C      1  0.4451120000000  0.5233630000000  0.5673330000000 1.0
C      1  0.4941910000000  0.4763730000000  0.4648650000000 1.0
C      1  0.5094000000000  0.5302940000000  0.5277960000000 1.0
C      1  0.4813030000000  0.5584930000000  0.5747860000000 1.0
C      1  0.5346440000000  0.4705050000000  0.4944150000000 1.0
C      1  0.5560920000000  0.5069400000000  0.4941290000000 1.0
C      1  0.4804540000000  0.4945880000000  0.5547030000000 1.0
C      1  0.4259810000000  0.5513180000000  0.4844770000000 1.0
C      1  0.4907400000000  0.5226540000000  0.4620100000000 1.0
C      1  0.5387800000000  0.4879650000000  0.4064700000000 1.0
C      1  0.5151660000000  0.5365230000000  0.4748350000000 1.0
C      1  0.5255620000000  0.5012320000000  0.5606620000000 1.0
C      1  0.5856990000000  0.5217420000000  0.5216640000000 1.0
C      1  0.5023220000000  0.4977830000000  0.6103820000000 1.0
C      1  0.4445010000000  0.4921220000000  0.4174360000000 1.0
END
