TITL C-20216-1187-6 -15.1542645580719 125000 -356.887196885541 0 0 52 (C1) n - 1
REM
REM in /rds/project/t2_vol4/rds-t2-cs072/BORA/CARBON/from-Arr/AIRSS/Generating-Clusters/GAP-ML-2020/Only-C1/SD-CG/HFTN-CG
REM
REM
REM
REM
REM
REM ./C.cell (11c1c37f851c82e70ff6c80c92926a4b)
REM AIRSS Version 0.9.1 bugfix July 2018 build 013d7b7c2542+ Fri, 06 Jul 2018 19:26:36 +0100
REM compiler GCC version 9.3.0
REM options -cpp -mtune=generic -march=x86-64 -g -O0
REM seed -1089908613 1400269606 243558416 -71900210 2089192299 -146567609 1873083625 -698206876 1681170884 -1826362018 1283806081 1202151001 -575870166 773642617 1813462875 1059408498 1671066602 -644996341 -1987625734 -1808468735 -914945747 -1412661524 -49259091 -1529742249 -1586794376 -768322151 -962346473 1598334441 -338966222 1107870756 -756216238 -2053324290 -611012293
REM
CELL 1.54180   50.00000   50.00000   50.00000   90.00000   90.00000   90.00000
LATT -1
SFAC C  
C      1  0.5270640000000  0.4795760000000  0.5453040000000 1.0
C      1  0.5097220000000  0.5617740000000  0.5582440000000 1.0
C      1  0.4905130000000  0.5693780000000  0.5107780000000 1.0
C      1  0.5090780000000  0.5770730000000  0.4915930000000 1.0
C      1  0.4478870000000  0.5024690000000  0.4835400000000 1.0
C      1  0.4536150000000  0.4624100000000  0.4830440000000 1.0
C      1  0.4561550000000  0.4597530000000  0.4538180000000 1.0
C      1  0.5204440000000  0.5460100000000  0.5752670000000 1.0
C      1  0.5280610000000  0.4548960000000  0.4797880000000 1.0
C      1  0.4576650000000  0.5357480000000  0.5170850000000 1.0
C      1  0.5125140000000  0.5215250000000  0.5641780000000 1.0
C      1  0.5018250000000  0.4419950000000  0.4699550000000 1.0
C      1  0.5283940000000  0.5078040000000  0.5452950000000 1.0
C      1  0.5107200000000  0.5026540000000  0.4999470000000 1.0
C      1  0.4703460000000  0.5526010000000  0.4973720000000 1.0
C      1  0.4877930000000  0.4333270000000  0.4935580000000 1.0
C      1  0.4901350000000  0.5618890000000  0.5391300000000 1.0
C      1  0.4416380000000  0.5126850000000  0.5101700000000 1.0
C      1  0.5502050000000  0.5281040000000  0.5049540000000 1.0
C      1  0.5294060000000  0.5429470000000  0.4593620000000 1.0
C      1  0.5188250000000  0.4853660000000  0.4734940000000 1.0
C      1  0.4838600000000  0.5161770000000  0.5579180000000 1.0
C      1  0.4716930000000  0.4859950000000  0.4855570000000 1.0
C      1  0.5287930000000  0.4472040000000  0.5086420000000 1.0
C      1  0.4786300000000  0.4885420000000  0.5555780000000 1.0
C      1  0.4714170000000  0.5279250000000  0.4519670000000 1.0
C      1  0.4935490000000  0.5115760000000  0.4456340000000 1.0
C      1  0.5554700000000  0.4679230000000  0.4781180000000 1.0
C      1  0.4732440000000  0.5380090000000  0.5413980000000 1.0
C      1  0.5612630000000  0.4899700000000  0.4583750000000 1.0
C      1  0.4921260000000  0.4855280000000  0.4603790000000 1.0
C      1  0.5692970000000  0.5132460000000  0.4727110000000 1.0
C      1  0.5070990000000  0.5592850000000  0.4694630000000 1.0
C      1  0.5597320000000  0.4788730000000  0.5045170000000 1.0
C      1  0.4794570000000  0.5480680000000  0.4700390000000 1.0
C      1  0.5267890000000  0.5184620000000  0.5176880000000 1.0
C      1  0.4554160000000  0.4765750000000  0.5414850000000 1.0
C      1  0.4474270000000  0.5092330000000  0.4556160000000 1.0
C      1  0.4485350000000  0.4848110000000  0.4441470000000 1.0
C      1  0.4379940000000  0.4923460000000  0.5284300000000 1.0
C      1  0.4641240000000  0.4516860000000  0.5297390000000 1.0
C      1  0.5048410000000  0.4362900000000  0.5166160000000 1.0
C      1  0.5009500000000  0.4700550000000  0.5522540000000 1.0
C      1  0.5518860000000  0.5363010000000  0.4766930000000 1.0
C      1  0.5690510000000  0.5059620000000  0.5016270000000 1.0
C      1  0.5207440000000  0.5201410000000  0.4449920000000 1.0
C      1  0.4857350000000  0.4573320000000  0.4510170000000 1.0
C      1  0.5350420000000  0.4960370000000  0.4511430000000 1.0
C      1  0.4889500000000  0.4887620000000  0.5079790000000 1.0
C      1  0.5422860000000  0.4667820000000  0.5240880000000 1.0
C      1  0.4907100000000  0.4475760000000  0.5382370000000 1.0
C      1  0.4618850000000  0.4433450000000  0.5020820000000 1.0
END
