TITL C-200324-9447-5 126.770062085238 125000 -542.94202305724 0 0 79 (C1) n - 1
REM
REM in /rds/project/t2_vol4/rds-t2-cs072/BORA/CARBON/from-Arr/AIRSS/Generating-Clusters/GAP-ML-2020/Only-C1/SD-CG/HFTN-CG
REM
REM
REM
REM
REM
REM ./C.cell (11c1c37f851c82e70ff6c80c92926a4b)
REM AIRSS Version 0.9.1 bugfix July 2018 build 013d7b7c2542+ Fri, 06 Jul 2018 19:26:36 +0100
REM compiler GCC version 9.3.0
REM options -cpp -mtune=generic -march=x86-64 -g -O0
REM seed 1385084906 266264628 -3861592 -1702056538 -278945604 134022542 217811862 -114833044 706187244 1258589398 -768464282 74487495 1060818210 1849682112 1145253116 1314877392 -305860314 -1174738459 1703026753 -1381284098 1768079705 -698252687 -462962136 1241482626 -1406329193 1695603082 -260598734 1694364141 1461686835 -1532881893 -1972604346 1085949921 -1282650346
REM
CELL 1.54180   50.00000   50.00000   50.00000   90.00000   90.00000   90.00000
LATT -1
SFAC C  
C      1  0.5039060000000  0.5111190000000  0.4809390000000 1.0
C      1  0.4686520000000  0.4956050000000  0.4300170000000 1.0
C      1  0.4406210000000  0.5357840000000  0.5443940000000 1.0
C      1  0.4678740000000  0.5599320000000  0.5129460000000 1.0
C      1  0.5499170000000  0.5346490000000  0.4885840000000 1.0
C      1  0.5284220000000  0.5541170000000  0.5565160000000 1.0
C      1  0.5287490000000  0.4412430000000  0.4507520000000 1.0
C      1  0.5273860000000  0.4896970000000  0.5460830000000 1.0
C      1  0.5389480000000  0.4662100000000  0.4404070000000 1.0
C      1  0.4614140000000  0.4585710000000  0.5400510000000 1.0
C      1  0.5448570000000  0.4283080000000  0.4697650000000 1.0
C      1  0.5766840000000  0.4629410000000  0.4717420000000 1.0
C      1  0.4558410000000  0.5207640000000  0.4339780000000 1.0
C      1  0.5009260000000  0.4676350000000  0.5131680000000 1.0
C      1  0.4580530000000  0.4715200000000  0.4421240000000 1.0
C      1  0.4814020000000  0.5094920000000  0.5948170000000 1.0
C      1  0.5841310000000  0.4749290000000  0.4967630000000 1.0
C      1  0.4814100000000  0.5474000000000  0.5339180000000 1.0
C      1  0.5521720000000  0.4855010000000  0.5630540000000 1.0
C      1  0.5521440000000  0.4504660000000  0.5315030000000 1.0
C      1  0.5632320000000  0.5046540000000  0.4530260000000 1.0
C      1  0.5610110000000  0.5430610000000  0.5144210000000 1.0
C      1  0.4637800000000  0.5556310000000  0.4653690000000 1.0
C      1  0.5375920000000  0.4824090000000  0.4973700000000 1.0
C      1  0.4152210000000  0.4874180000000  0.4680760000000 1.0
C      1  0.5508460000000  0.4545760000000  0.5608060000000 1.0
C      1  0.5255730000000  0.5377050000000  0.4463860000000 1.0
C      1  0.5088810000000  0.5402950000000  0.5331860000000 1.0
C      1  0.5631240000000  0.4760210000000  0.4513810000000 1.0
C      1  0.5191560000000  0.5618260000000  0.5148990000000 1.0
C      1  0.4105020000000  0.5177790000000  0.5033310000000 1.0
C      1  0.4257930000000  0.4666880000000  0.5083920000000 1.0
C      1  0.4120970000000  0.5131500000000  0.4575490000000 1.0
C      1  0.4780870000000  0.4498000000000  0.5175910000000 1.0
C      1  0.4902570000000  0.4957730000000  0.5206660000000 1.0
C      1  0.4784960000000  0.4756920000000  0.5614180000000 1.0
C      1  0.5084980000000  0.4704810000000  0.5617780000000 1.0
C      1  0.4746630000000  0.4985350000000  0.5438430000000 1.0
C      1  0.5284770000000  0.5106170000000  0.4995190000000 1.0
C      1  0.5801520000000  0.5219680000000  0.5210970000000 1.0
C      1  0.4357840000000  0.5475880000000  0.4665610000000 1.0
C      1  0.4681850000000  0.5273060000000  0.5508520000000 1.0
C      1  0.4743950000000  0.5417850000000  0.4417760000000 1.0
C      1  0.4366360000000  0.4696260000000  0.4618110000000 1.0
C      1  0.4858070000000  0.5312410000000  0.5772710000000 1.0
C      1  0.4805410000000  0.5638060000000  0.4874600000000 1.0
C      1  0.5100620000000  0.5629220000000  0.4883690000000 1.0
C      1  0.4964100000000  0.5032690000000  0.4277690000000 1.0
C      1  0.4795770000000  0.4349700000000  0.4691100000000 1.0
C      1  0.5875930000000  0.5154260000000  0.5473570000000 1.0
C      1  0.5834900000000  0.5039280000000  0.4980720000000 1.0
C      1  0.4130460000000  0.5328560000000  0.4791640000000 1.0
C      1  0.5637880000000  0.4398960000000  0.4845960000000 1.0
C      1  0.4318010000000  0.5277170000000  0.4446080000000 1.0
C      1  0.4548850000000  0.5068180000000  0.4869840000000 1.0
C      1  0.4352530000000  0.4607440000000  0.5335820000000 1.0
C      1  0.4660450000000  0.4424880000000  0.4926340000000 1.0
C      1  0.5210680000000  0.4900440000000  0.4386520000000 1.0
C      1  0.5140460000000  0.4696050000000  0.4855850000000 1.0
C      1  0.5250490000000  0.4497680000000  0.5690300000000 1.0
C      1  0.5431160000000  0.5594920000000  0.5304090000000 1.0
C      1  0.4227250000000  0.5327360000000  0.5243170000000 1.0
C      1  0.4720400000000  0.4865410000000  0.5888570000000 1.0
C      1  0.4996780000000  0.5313560000000  0.4352590000000 1.0
C      1  0.5103120000000  0.5449300000000  0.5726620000000 1.0
C      1  0.5002220000000  0.4373870000000  0.4506340000000 1.0
C      1  0.5719110000000  0.4504680000000  0.5112480000000 1.0
C      1  0.5305080000000  0.5506010000000  0.4716070000000 1.0
C      1  0.5707270000000  0.5172160000000  0.4765620000000 1.0
C      1  0.4109480000000  0.4890110000000  0.4968670000000 1.0
C      1  0.4413930000000  0.4557530000000  0.4866530000000 1.0
C      1  0.5159120000000  0.5113180000000  0.5266920000000 1.0
C      1  0.5396670000000  0.5135470000000  0.4410030000000 1.0
C      1  0.4760510000000  0.4496990000000  0.4451650000000 1.0
C      1  0.5057530000000  0.4878690000000  0.4658950000000 1.0
C      1  0.5311930000000  0.4694620000000  0.5235180000000 1.0
C      1  0.4412490000000  0.5535410000000  0.5199500000000 1.0
C      1  0.4794020000000  0.5068390000000  0.4956290000000 1.0
C      1  0.5747840000000  0.5004690000000  0.5642040000000 1.0
END
