TITL C-20238-1441-9 -0.0453953877608054 125000 -477.840471174591 0 0 70 (C1) n - 1
REM
REM in /rds/project/t2_vol4/rds-t2-cs072/BORA/CARBON/from-Arr/AIRSS/Generating-Clusters/GAP-ML-2020/Only-C1/SD-CG/HFTN-CG
REM
REM
REM
REM
REM
REM ./C.cell (11c1c37f851c82e70ff6c80c92926a4b)
REM AIRSS Version 0.9.1 bugfix July 2018 build 013d7b7c2542+ Fri, 06 Jul 2018 19:26:36 +0100
REM compiler GCC version 9.3.0
REM options -cpp -mtune=generic -march=x86-64 -g -O0
REM seed -184065139 -36716663 1232998847 1824653244 856829523 1421541976 -1480349032 41630410 176431156 -793132505 1482843982 -694248251 1247442171 213229573 803876830 274823251 1589348574 -884535550 787885726 1207879111 -379844487 658914865 -896375997 -1080378009 1813813768 -735840532 -291318040 -1238155743 2030921745 68794808 -1745472221 1273655257 -956786465
REM
CELL 1.54180   50.00000   50.00000   50.00000   90.00000   90.00000   90.00000
LATT -1
SFAC C  
C      1  0.5255150000000  0.4339200000000  0.5280250000000 1.0
C      1  0.5090140000000  0.4870960000000  0.4743510000000 1.0
C      1  0.5551640000000  0.5337460000000  0.4675940000000 1.0
C      1  0.4809020000000  0.4443470000000  0.4749110000000 1.0
C      1  0.4489100000000  0.5208770000000  0.4523400000000 1.0
C      1  0.5268400000000  0.4937940000000  0.5580250000000 1.0
C      1  0.4815740000000  0.4926080000000  0.4618500000000 1.0
C      1  0.5248440000000  0.4412890000000  0.4983580000000 1.0
C      1  0.4588180000000  0.5623370000000  0.4928480000000 1.0
C      1  0.5194640000000  0.5312240000000  0.4325340000000 1.0
C      1  0.4782340000000  0.5040900000000  0.5584810000000 1.0
C      1  0.4624560000000  0.4879520000000  0.4862820000000 1.0
C      1  0.5687850000000  0.4905410000000  0.5371480000000 1.0
C      1  0.5145340000000  0.5037010000000  0.4250720000000 1.0
C      1  0.4336870000000  0.5112680000000  0.5410530000000 1.0
C      1  0.5122290000000  0.4521580000000  0.4518150000000 1.0
C      1  0.4171080000000  0.4915220000000  0.5321850000000 1.0
C      1  0.4702250000000  0.5329130000000  0.5592970000000 1.0
C      1  0.5414690000000  0.5555410000000  0.4817820000000 1.0
C      1  0.4515590000000  0.5122020000000  0.5639230000000 1.0
C      1  0.5772170000000  0.4783120000000  0.5133740000000 1.0
C      1  0.5274800000000  0.5007720000000  0.5093420000000 1.0
C      1  0.5381600000000  0.4947370000000  0.4361890000000 1.0
C      1  0.5527590000000  0.4468280000000  0.4909230000000 1.0
C      1  0.5697010000000  0.5180670000000  0.4871440000000 1.0
C      1  0.4971320000000  0.5413540000000  0.4450650000000 1.0
C      1  0.4334550000000  0.5229110000000  0.4756530000000 1.0
C      1  0.4937210000000  0.4615450000000  0.5475040000000 1.0
C      1  0.4957350000000  0.5651630000000  0.4609430000000 1.0
C      1  0.5717590000000  0.4893930000000  0.4871270000000 1.0
C      1  0.4513270000000  0.4375520000000  0.5338420000000 1.0
C      1  0.5222030000000  0.5370740000000  0.5441970000000 1.0
C      1  0.4875320000000  0.5258390000000  0.4886910000000 1.0
C      1  0.4445110000000  0.4544720000000  0.5135250000000 1.0
C      1  0.4777040000000  0.5221170000000  0.4581260000000 1.0
C      1  0.5637920000000  0.5176840000000  0.5385050000000 1.0
C      1  0.5482300000000  0.4749160000000  0.5510560000000 1.0
C      1  0.4752530000000  0.4380370000000  0.5471390000000 1.0
C      1  0.5661670000000  0.4523770000000  0.5149180000000 1.0
C      1  0.5079160000000  0.4359330000000  0.4758300000000 1.0
C      1  0.4385230000000  0.5421830000000  0.4954740000000 1.0
C      1  0.5053370000000  0.5683130000000  0.5096400000000 1.0
C      1  0.5148660000000  0.5671310000000  0.4820080000000 1.0
C      1  0.4262430000000  0.4774300000000  0.5102430000000 1.0
C      1  0.4774820000000  0.5639730000000  0.5158220000000 1.0
C      1  0.4693050000000  0.4616020000000  0.4978860000000 1.0
C      1  0.5264600000000  0.5582400000000  0.5260910000000 1.0
C      1  0.4313730000000  0.4913810000000  0.4828980000000 1.0
C      1  0.5482220000000  0.4493120000000  0.5370720000000 1.0
C      1  0.5662310000000  0.5311010000000  0.5132340000000 1.0
C      1  0.5319920000000  0.4743450000000  0.4564280000000 1.0
C      1  0.4696010000000  0.5683670000000  0.4694510000000 1.0
C      1  0.5417930000000  0.5211740000000  0.5563890000000 1.0
C      1  0.4827070000000  0.4555810000000  0.4483370000000 1.0
C      1  0.4909570000000  0.4725200000000  0.5189160000000 1.0
C      1  0.5454320000000  0.5226420000000  0.4434900000000 1.0
C      1  0.5485610000000  0.5526550000000  0.5092690000000 1.0
C      1  0.4853810000000  0.5003010000000  0.5283510000000 1.0
C      1  0.4696750000000  0.5103670000000  0.5060710000000 1.0
C      1  0.5032260000000  0.4337940000000  0.5458870000000 1.0
C      1  0.5138450000000  0.5136160000000  0.4869590000000 1.0
C      1  0.5130570000000  0.5106240000000  0.5316510000000 1.0
C      1  0.5149230000000  0.4742390000000  0.5022960000000 1.0
C      1  0.4217200000000  0.4829250000000  0.4552940000000 1.0
C      1  0.4662920000000  0.5463560000000  0.5346520000000 1.0
C      1  0.4997820000000  0.4848550000000  0.5654660000000 1.0
C      1  0.4470660000000  0.5286710000000  0.5200070000000 1.0
C      1  0.5556410000000  0.4688980000000  0.4731200000000 1.0
C      1  0.4430370000000  0.4914950000000  0.4406860000000 1.0
C      1  0.4681850000000  0.4777000000000  0.4399430000000 1.0
END
