TITL C-20645-1355-7 0.0115221629796808 125000 -276.270583505514 0 0 42 (C1) n - 1
REM
REM in /rds/project/t2_vol4/rds-t2-cs072/BORA/CARBON/from-Arr/AIRSS/Generating-Clusters/GAP-ML-2020/Only-C1/SD-CG/HFTN-CG
REM
REM
REM
REM
REM
REM ./C.cell (11c1c37f851c82e70ff6c80c92926a4b)
REM AIRSS Version 0.9.1 bugfix July 2018 build 013d7b7c2542+ Fri, 06 Jul 2018 19:26:36 +0100
REM compiler GCC version 9.3.0
REM options -cpp -mtune=generic -march=x86-64 -g -O0
REM seed 523350540 -1481859522 -1618149494 -1550033787 -720321030 -2017292845 423240439 -1156321279 -553832809 -2132197934 1159637951 -27220713 1593699899 1434071045 1850452677 1490775594 -1221710256 39656864 -1679378475 -142734279 1413019270 -505043279 -285651568 1507923184 1294906311 -1923975581 1384768117 -84577525 -1872887065 -134300990 -1528817512 -131829792 237848290
REM
CELL 1.54180   50.00000   50.00000   50.00000   90.00000   90.00000   90.00000
LATT -1
SFAC C  
C      1  0.5129240000000  0.4470480000000  0.5413990000000 1.0
C      1  0.5502860000000  0.4754530000000  0.5265770000000 1.0
C      1  0.5552640000000  0.4570220000000  0.4836620000000 1.0
C      1  0.5431690000000  0.5248680000000  0.5349030000000 1.0
C      1  0.4582180000000  0.4880360000000  0.4491250000000 1.0
C      1  0.4777420000000  0.4961690000000  0.5455990000000 1.0
C      1  0.4606890000000  0.4713100000000  0.5076490000000 1.0
C      1  0.4938760000000  0.5024480000000  0.5022390000000 1.0
C      1  0.4424710000000  0.4976790000000  0.4719330000000 1.0
C      1  0.4429570000000  0.5248340000000  0.4807250000000 1.0
C      1  0.5108730000000  0.5150170000000  0.4785430000000 1.0
C      1  0.4850370000000  0.5149870000000  0.5255490000000 1.0
C      1  0.5199460000000  0.4737850000000  0.4590530000000 1.0
C      1  0.4485140000000  0.5590770000000  0.5105850000000 1.0
C      1  0.4619630000000  0.4603160000000  0.4612560000000 1.0
C      1  0.5479170000000  0.4762080000000  0.4636930000000 1.0
C      1  0.5640970000000  0.4787500000000  0.5016370000000 1.0
C      1  0.4739730000000  0.5604900000000  0.4947700000000 1.0
C      1  0.4957850000000  0.5603500000000  0.5132250000000 1.0
C      1  0.4786440000000  0.5332700000000  0.4482390000000 1.0
C      1  0.4662030000000  0.5420800000000  0.4719150000000 1.0
C      1  0.5317240000000  0.4447240000000  0.4949180000000 1.0
C      1  0.5217130000000  0.4935490000000  0.5649480000000 1.0
C      1  0.5336330000000  0.4512220000000  0.5235930000000 1.0
C      1  0.4671050000000  0.4720910000000  0.5353800000000 1.0
C      1  0.5394810000000  0.5194010000000  0.4861530000000 1.0
C      1  0.5431050000000  0.5369560000000  0.5077800000000 1.0
C      1  0.4969180000000  0.4990830000000  0.5671370000000 1.0
C      1  0.5058330000000  0.4557530000000  0.4806350000000 1.0
C      1  0.4328270000000  0.5394030000000  0.5035100000000 1.0
C      1  0.5242750000000  0.5584250000000  0.5146610000000 1.0
C      1  0.4823680000000  0.4439980000000  0.4651050000000 1.0
C      1  0.4935740000000  0.4614100000000  0.5300690000000 1.0
C      1  0.5576180000000  0.4985990000000  0.4810380000000 1.0
C      1  0.4808490000000  0.5043130000000  0.4441910000000 1.0
C      1  0.5057310000000  0.4967280000000  0.4546900000000 1.0
C      1  0.4978160000000  0.5391730000000  0.4669370000000 1.0
C      1  0.4443720000000  0.4715900000000  0.4855960000000 1.0
C      1  0.5414610000000  0.4976060000000  0.5436340000000 1.0
C      1  0.4949290000000  0.5400280000000  0.5344280000000 1.0
C      1  0.4915990000000  0.4729610000000  0.5017110000000 1.0
C      1  0.5225220000000  0.5437910000000  0.5416100000000 1.0
END
