TITL C-200318-9389-2 0.098309097044994 125000 -340.44468377664 0 0 52 (C1) n - 1
REM
REM in /rds/project/t2_vol4/rds-t2-cs072/BORA/CARBON/from-Arr/AIRSS/Generating-Clusters/GAP-ML-2020/Only-C1/SD-CG/HFTN-CG
REM
REM
REM
REM
REM
REM ./C.cell (11c1c37f851c82e70ff6c80c92926a4b)
REM AIRSS Version 0.9.1 bugfix July 2018 build 013d7b7c2542+ Fri, 06 Jul 2018 19:26:36 +0100
REM compiler GCC version 9.3.0
REM options -cpp -mtune=generic -march=x86-64 -g -O0
REM seed -1256059512 -1401374772 403121677 -980610356 1367451631 1052980458 157735975 -479838243 -36322665 1874605873 1673469916 -2028284563 811619053 361906395 800671884 -1961623950 1402762016 386656943 -2086966346 1705456401 2079843260 -421609318 -152199654 -240592600 -1869607693 2138816562 -1373568139 -860005622 1618831974 -733023060 2082362922 1856219046 -865593816
REM
CELL 1.54180   50.00000   50.00000   50.00000   90.00000   90.00000   90.00000
LATT -1
SFAC C  
C      1  0.4801620000000  0.4367770000000  0.5170000000000 1.0
C      1  0.4421190000000  0.4933220000000  0.4567200000000 1.0
C      1  0.5445720000000  0.5276860000000  0.5224370000000 1.0
C      1  0.4593870000000  0.5079040000000  0.5232490000000 1.0
C      1  0.4849220000000  0.5567410000000  0.5333510000000 1.0
C      1  0.5170790000000  0.4882420000000  0.4842370000000 1.0
C      1  0.4884240000000  0.5575060000000  0.5046470000000 1.0
C      1  0.5227020000000  0.5232470000000  0.5419890000000 1.0
C      1  0.4889550000000  0.4426110000000  0.5456950000000 1.0
C      1  0.4588700000000  0.4554190000000  0.5201050000000 1.0
C      1  0.5549820000000  0.5009690000000  0.5173200000000 1.0
C      1  0.5506540000000  0.5352830000000  0.4755540000000 1.0
C      1  0.5157970000000  0.5221410000000  0.5686720000000 1.0
C      1  0.5603320000000  0.4908490000000  0.4910910000000 1.0
C      1  0.4584230000000  0.5455300000000  0.4641600000000 1.0
C      1  0.5443240000000  0.5067200000000  0.4479200000000 1.0
C      1  0.4875070000000  0.4915250000000  0.5489950000000 1.0
C      1  0.5361560000000  0.4850360000000  0.5313680000000 1.0
C      1  0.5369050000000  0.4789060000000  0.4501250000000 1.0
C      1  0.4711320000000  0.4926190000000  0.5010110000000 1.0
C      1  0.5236200000000  0.4448010000000  0.4833570000000 1.0
C      1  0.5119830000000  0.5564300000000  0.4892060000000 1.0
C      1  0.4876410000000  0.5049330000000  0.4547640000000 1.0
C      1  0.4723020000000  0.4658400000000  0.5443780000000 1.0
C      1  0.4798540000000  0.4607460000000  0.4683670000000 1.0
C      1  0.4675210000000  0.5410110000000  0.4906760000000 1.0
C      1  0.4504560000000  0.5184180000000  0.4507880000000 1.0
C      1  0.4939840000000  0.4729030000000  0.4937030000000 1.0
C      1  0.4502100000000  0.4716270000000  0.4724510000000 1.0
C      1  0.4513840000000  0.5328260000000  0.5136300000000 1.0
C      1  0.5108300000000  0.5119390000000  0.4984620000000 1.0
C      1  0.5133710000000  0.4645470000000  0.4423940000000 1.0
C      1  0.4587400000000  0.5442570000000  0.5381600000000 1.0
C      1  0.5622460000000  0.5101240000000  0.4712780000000 1.0
C      1  0.5150090000000  0.4479760000000  0.5365760000000 1.0
C      1  0.5309190000000  0.4660090000000  0.5513540000000 1.0
C      1  0.5413230000000  0.4699820000000  0.4788680000000 1.0
C      1  0.5324210000000  0.5339040000000  0.4525430000000 1.0
C      1  0.4755840000000  0.5242910000000  0.4380040000000 1.0
C      1  0.5330790000000  0.5379400000000  0.4981420000000 1.0
C      1  0.5056910000000  0.4949500000000  0.5728340000000 1.0
C      1  0.4884890000000  0.4783530000000  0.4458400000000 1.0
C      1  0.5088660000000  0.5499430000000  0.4612630000000 1.0
C      1  0.5111340000000  0.5002320000000  0.5273290000000 1.0
C      1  0.4970500000000  0.5367250000000  0.5516410000000 1.0
C      1  0.5062310000000  0.4451470000000  0.4617090000000 1.0
C      1  0.4831880000000  0.5492430000000  0.4493890000000 1.0
C      1  0.4841280000000  0.5138560000000  0.4842140000000 1.0
C      1  0.4487940000000  0.4721630000000  0.5002400000000 1.0
C      1  0.4718790000000  0.5180380000000  0.5484090000000 1.0
C      1  0.5220450000000  0.4745330000000  0.5765510000000 1.0
C      1  0.5066210000000  0.4472800000000  0.5078330000000 1.0
END
