TITL C-20236-1585-6 -175.247904827915 125000 -709.788447795181 0 0 103 (C1) n - 1
REM
REM in /rds/project/t2_vol4/rds-t2-cs072/BORA/CARBON/from-Arr/AIRSS/Generating-Clusters/GAP-ML-2020/Only-C1/SD-CG/HFTN-CG
REM
REM
REM
REM
REM
REM ./C.cell (11c1c37f851c82e70ff6c80c92926a4b)
REM AIRSS Version 0.9.1 bugfix July 2018 build 013d7b7c2542+ Fri, 06 Jul 2018 19:26:36 +0100
REM compiler GCC version 9.3.0
REM options -cpp -mtune=generic -march=x86-64 -g -O0
REM seed -882947220 1978235216 -378628679 2070623488 -458777865 -1177754560 55766952 -506164849 -895866696 -1385597495 1305181512 2129967550 -1144974746 1869409188 616403685 -2052904421 -1331878385 595966733 -1109481282 1808169222 -361472764 -1323224477 1697845207 -1538490651 144175145 -1926945740 2082510554 -597560119 616330591 -1927508580 815114228 -283468724 -1437900303
REM
CELL 1.54180   50.00000   50.00000   50.00000   90.00000   90.00000   90.00000
LATT -1
SFAC C  
C      1  0.4585450000000  0.4787050000000  0.5153610000000 1.0
C      1  0.4885530000000  0.4262410000000  0.5401170000000 1.0
C      1  0.4445610000000  0.4542480000000  0.5306940000000 1.0
C      1  0.4808520000000  0.5521240000000  0.5615660000000 1.0
C      1  0.5831980000000  0.4910540000000  0.5159930000000 1.0
C      1  0.5652250000000  0.5138360000000  0.4441660000000 1.0
C      1  0.5595610000000  0.4673640000000  0.4408230000000 1.0
C      1  0.4526130000000  0.4808460000000  0.4856000000000 1.0
C      1  0.5330260000000  0.4237110000000  0.4876830000000 1.0
C      1  0.4466760000000  0.5198290000000  0.5556720000000 1.0
C      1  0.5156740000000  0.5513420000000  0.4388440000000 1.0
C      1  0.5062830000000  0.4535350000000  0.5753800000000 1.0
C      1  0.5843900000000  0.5100420000000  0.4932820000000 1.0
C      1  0.4770050000000  0.4583180000000  0.5686630000000 1.0
C      1  0.4605380000000  0.4310890000000  0.4875250000000 1.0
C      1  0.4795060000000  0.4848450000000  0.5562100000000 1.0
C      1  0.5568810000000  0.4551540000000  0.5369590000000 1.0
C      1  0.4128670000000  0.5161760000000  0.5134660000000 1.0
C      1  0.4942080000000  0.4655200000000  0.4825340000000 1.0
C      1  0.5067330000000  0.5624630000000  0.4660490000000 1.0
C      1  0.4382950000000  0.4395460000000  0.5041520000000 1.0
C      1  0.5379730000000  0.5311190000000  0.4407190000000 1.0
C      1  0.5396650000000  0.5526100000000  0.5588690000000 1.0
C      1  0.4583450000000  0.4588340000000  0.4410990000000 1.0
C      1  0.5786500000000  0.5355470000000  0.5049380000000 1.0
C      1  0.5299930000000  0.5968490000000  0.4996130000000 1.0
C      1  0.5072170000000  0.5340400000000  0.5354430000000 1.0
C      1  0.4373790000000  0.5251090000000  0.4734710000000 1.0
C      1  0.4635750000000  0.5014460000000  0.5361550000000 1.0
C      1  0.5140300000000  0.6043620000000  0.5208780000000 1.0
C      1  0.4982580000000  0.4144740000000  0.5156020000000 1.0
C      1  0.5436740000000  0.5251200000000  0.5658470000000 1.0
C      1  0.4217830000000  0.4556090000000  0.4884370000000 1.0
C      1  0.5268730000000  0.5330320000000  0.5099010000000 1.0
C      1  0.4555340000000  0.5185970000000  0.4250480000000 1.0
C      1  0.4872570000000  0.5049030000000  0.5762300000000 1.0
C      1  0.4391550000000  0.5497810000000  0.4923250000000 1.0
C      1  0.4347060000000  0.5147050000000  0.4447490000000 1.0
C      1  0.5743890000000  0.4545460000000  0.4856450000000 1.0
C      1  0.5556470000000  0.4355530000000  0.4742590000000 1.0
C      1  0.4969320000000  0.5406310000000  0.4212470000000 1.0
C      1  0.4100780000000  0.4964580000000  0.5344420000000 1.0
C      1  0.4233210000000  0.4731370000000  0.5427580000000 1.0
C      1  0.4990330000000  0.5821160000000  0.5302230000000 1.0
C      1  0.5200370000000  0.4579240000000  0.4926560000000 1.0
C      1  0.5075130000000  0.5600260000000  0.5498950000000 1.0
C      1  0.5809560000000  0.5073500000000  0.5401390000000 1.0
C      1  0.4721190000000  0.5742540000000  0.5203160000000 1.0
C      1  0.5029140000000  0.4828960000000  0.4592810000000 1.0
C      1  0.5280720000000  0.4943200000000  0.4675170000000 1.0
C      1  0.4610230000000  0.5619080000000  0.5431130000000 1.0
C      1  0.4760560000000  0.5695850000000  0.4681630000000 1.0
C      1  0.5141950000000  0.5009040000000  0.5803940000000 1.0
C      1  0.5744210000000  0.4636820000000  0.5143260000000 1.0
C      1  0.4342830000000  0.4685740000000  0.4329010000000 1.0
C      1  0.5446620000000  0.4443070000000  0.4490410000000 1.0
C      1  0.4260350000000  0.4985790000000  0.5569050000000 1.0
C      1  0.5121530000000  0.4392900000000  0.5514460000000 1.0
C      1  0.4174460000000  0.5087580000000  0.4875250000000 1.0
C      1  0.4878880000000  0.4735830000000  0.5106490000000 1.0
C      1  0.5486820000000  0.5760440000000  0.4933740000000 1.0
C      1  0.5357180000000  0.4823880000000  0.4914860000000 1.0
C      1  0.4690770000000  0.5433180000000  0.4268150000000 1.0
C      1  0.5810000000000  0.5349130000000  0.5334490000000 1.0
C      1  0.5807150000000  0.5018380000000  0.4659850000000 1.0
C      1  0.4267360000000  0.5414150000000  0.5164430000000 1.0
C      1  0.5625560000000  0.5027540000000  0.5604360000000 1.0
C      1  0.5247780000000  0.4747410000000  0.5777420000000 1.0
C      1  0.4393700000000  0.5446480000000  0.5413190000000 1.0
C      1  0.5275330000000  0.5810600000000  0.4761690000000 1.0
C      1  0.4653880000000  0.4557440000000  0.4717040000000 1.0
C      1  0.5164680000000  0.4377310000000  0.4467490000000 1.0
C      1  0.4836560000000  0.5197310000000  0.5226070000000 1.0
C      1  0.5197000000000  0.5142760000000  0.5551430000000 1.0
C      1  0.4855020000000  0.5202380000000  0.4924890000000 1.0
C      1  0.5777140000000  0.4733260000000  0.4637580000000 1.0
C      1  0.5299740000000  0.5092280000000  0.4205180000000 1.0
C      1  0.4863770000000  0.4165270000000  0.4892720000000 1.0
C      1  0.5095440000000  0.4202180000000  0.4705970000000 1.0
C      1  0.4644970000000  0.5075330000000  0.4752780000000 1.0
C      1  0.4779580000000  0.4983960000000  0.4217200000000 1.0
C      1  0.5032800000000  0.4610590000000  0.4370580000000 1.0
C      1  0.5018850000000  0.4728560000000  0.5368890000000 1.0
C      1  0.5530210000000  0.4927640000000  0.4280060000000 1.0
C      1  0.5528520000000  0.5515430000000  0.5086800000000 1.0
C      1  0.5030860000000  0.5129570000000  0.4135430000000 1.0
C      1  0.5476460000000  0.4771380000000  0.5564160000000 1.0
C      1  0.4631130000000  0.5607070000000  0.4464390000000 1.0
C      1  0.4829020000000  0.5027860000000  0.4526070000000 1.0
C      1  0.5299030000000  0.5224940000000  0.4670790000000 1.0
C      1  0.5260830000000  0.4904980000000  0.5382510000000 1.0
C      1  0.5366380000000  0.4345690000000  0.5369120000000 1.0
C      1  0.5106510000000  0.5364740000000  0.4839370000000 1.0
C      1  0.4708240000000  0.5275510000000  0.5721930000000 1.0
C      1  0.5269580000000  0.4180810000000  0.5150940000000 1.0
C      1  0.4655800000000  0.4409430000000  0.5489250000000 1.0
C      1  0.4608450000000  0.5687780000000  0.4932820000000 1.0
C      1  0.5593390000000  0.5525220000000  0.5394510000000 1.0
C      1  0.4791570000000  0.4682190000000  0.4244720000000 1.0
C      1  0.4221910000000  0.4817350000000  0.4773220000000 1.0
C      1  0.4991270000000  0.4993020000000  0.5077380000000 1.0
C      1  0.5282170000000  0.5020160000000  0.5111360000000 1.0
C      1  0.4253270000000  0.4884350000000  0.4486140000000 1.0
END
