TITL C-20218-1135-1 149.646415080174 125000 -110.756392086401 0 0 17 (C1) n - 1
REM
REM in /rds/project/t2_vol4/rds-t2-cs072/BORA/CARBON/from-Arr/AIRSS/Generating-Clusters/GAP-ML-2020/Only-C1/SD-CG/HFTN-CG
REM
REM
REM
REM
REM
REM ./C.cell (11c1c37f851c82e70ff6c80c92926a4b)
REM AIRSS Version 0.9.1 bugfix July 2018 build 013d7b7c2542+ Fri, 06 Jul 2018 19:26:36 +0100
REM compiler GCC version 9.3.0
REM options -cpp -mtune=generic -march=x86-64 -g -O0
REM seed -171763533 -641925618 -471231323 -1970662957 230621065 648025822 -2143779770 802070738 -1676909722 -736944632 -1247137672 -2049337333 -145930477 -236555033 -1093688535 1325630054 -1835989498 -869703403 1715564262 -950370732 -1037880142 959167228 -753817712 -996213428 -746591341 -323845924 427444290 1184716999 2056392184 1305806059 -1504562003 -1687208444 -2069800890
REM
CELL 1.54180   50.00000   50.00000   50.00000   90.00000   90.00000   90.00000
LATT -1
SFAC C  
C      1  0.5045090000000  0.5145110000000  0.5155990000000 1.0
C      1  0.5061670000000  0.4992370000000  0.4523990000000 1.0
C      1  0.5012300000000  0.5231570000000  0.4607720000000 1.0
C      1  0.4862010000000  0.4573020000000  0.5202500000000 1.0
C      1  0.5025980000000  0.5424060000000  0.5039710000000 1.0
C      1  0.5242600000000  0.4975330000000  0.5084680000000 1.0
C      1  0.4786050000000  0.5055690000000  0.5258900000000 1.0
C      1  0.5227180000000  0.4529990000000  0.4651230000000 1.0
C      1  0.5001660000000  0.5434040000000  0.4763570000000 1.0
C      1  0.5222120000000  0.4539960000000  0.4937540000000 1.0
C      1  0.5031650000000  0.4406430000000  0.5094870000000 1.0
C      1  0.4744400000000  0.4783180000000  0.5271630000000 1.0
C      1  0.5364360000000  0.4756580000000  0.5063560000000 1.0
C      1  0.4603940000000  0.5267990000000  0.5313640000000 1.0
C      1  0.5143250000000  0.4752250000000  0.4549750000000 1.0
C      1  0.4704260000000  0.5504480000000  0.5277260000000 1.0
C      1  0.4921490000000  0.5627930000000  0.5203460000000 1.0
END
