TITL C-20223-1152-1 -0.0676831919893068 125000 -257.298700861511 0 0 39 (C1) n - 1
REM
REM in /rds/project/t2_vol4/rds-t2-cs072/BORA/CARBON/from-Arr/AIRSS/Generating-Clusters/GAP-ML-2020/Only-C1/SD-CG/HFTN-CG
REM
REM
REM
REM
REM
REM ./C.cell (11c1c37f851c82e70ff6c80c92926a4b)
REM AIRSS Version 0.9.1 bugfix July 2018 build 013d7b7c2542+ Fri, 06 Jul 2018 19:26:36 +0100
REM compiler GCC version 9.3.0
REM options -cpp -mtune=generic -march=x86-64 -g -O0
REM seed -509587834 1092107792 645021782 -1580696980 553585864 700533777 1937342431 -1932921207 -2022373376 377348263 -545788821 1744208866 -1220508208 -1643492329 1152722461 -1754814728 1715765421 995236864 -285223133 -46494320 -91611518 390158483 1829437186 1453454336 -617818395 2082667280 -204494636 847631749 -612671545 1655298706 1529180959 -1375746570 -326837051
REM
CELL 1.54180   50.00000   50.00000   50.00000   90.00000   90.00000   90.00000
LATT -1
SFAC C  
C      1  0.4463470000000  0.4900810000000  0.4905700000000 1.0
C      1  0.5188210000000  0.5031750000000  0.4493790000000 1.0
C      1  0.5384360000000  0.4643610000000  0.5220720000000 1.0
C      1  0.5193750000000  0.4759410000000  0.4549540000000 1.0
C      1  0.4424140000000  0.5230830000000  0.5291970000000 1.0
C      1  0.5128160000000  0.5537990000000  0.4945770000000 1.0
C      1  0.4999110000000  0.5423950000000  0.4576370000000 1.0
C      1  0.4789470000000  0.4897190000000  0.5545780000000 1.0
C      1  0.4865270000000  0.5515070000000  0.4805540000000 1.0
C      1  0.5201150000000  0.4786700000000  0.5013390000000 1.0
C      1  0.4722640000000  0.4789230000000  0.4453300000000 1.0
C      1  0.4991500000000  0.4557220000000  0.5060330000000 1.0
C      1  0.5340530000000  0.5164960000000  0.4712150000000 1.0
C      1  0.4944680000000  0.5179220000000  0.4464320000000 1.0
C      1  0.4917570000000  0.5159640000000  0.5550890000000 1.0
C      1  0.5219800000000  0.4423970000000  0.5202640000000 1.0
C      1  0.4834610000000  0.4535720000000  0.4799480000000 1.0
C      1  0.4661040000000  0.5323790000000  0.5186560000000 1.0
C      1  0.5398460000000  0.5056960000000  0.5451090000000 1.0
C      1  0.4472760000000  0.4985610000000  0.5187890000000 1.0
C      1  0.5260030000000  0.5437670000000  0.4708530000000 1.0
C      1  0.5547840000000  0.4986940000000  0.4817850000000 1.0
C      1  0.5180520000000  0.5031280000000  0.5605810000000 1.0
C      1  0.4685850000000  0.5047700000000  0.4497730000000 1.0
C      1  0.4711970000000  0.4609320000000  0.5167780000000 1.0
C      1  0.4526880000000  0.5120920000000  0.4726090000000 1.0
C      1  0.5156620000000  0.5338310000000  0.5156590000000 1.0
C      1  0.4590400000000  0.4645070000000  0.4908180000000 1.0
C      1  0.4910690000000  0.5321530000000  0.5328470000000 1.0
C      1  0.4694870000000  0.5311070000000  0.4897800000000 1.0
C      1  0.5154620000000  0.5084030000000  0.4976720000000 1.0
C      1  0.5432320000000  0.5252620000000  0.5243550000000 1.0
C      1  0.4929220000000  0.4648100000000  0.4562150000000 1.0
C      1  0.5044360000000  0.4789750000000  0.5582710000000 1.0
C      1  0.4618990000000  0.4800720000000  0.5344260000000 1.0
C      1  0.4897010000000  0.5031870000000  0.4897080000000 1.0
C      1  0.5593470000000  0.5047220000000  0.5087150000000 1.0
C      1  0.5376710000000  0.4740070000000  0.4771420000000 1.0
C      1  0.5546960000000  0.4852210000000  0.5302920000000 1.0
END
