TITL C-200317-9486-8 160.654062479411 125000 -741.566128341944 0 0 107 (C1) n - 1
REM
REM in /rds/project/t2_vol4/rds-t2-cs072/BORA/CARBON/from-Arr/AIRSS/Generating-Clusters/GAP-ML-2020/Only-C1/SD-CG/HFTN-CG
REM
REM
REM
REM
REM
REM ./C.cell (11c1c37f851c82e70ff6c80c92926a4b)
REM AIRSS Version 0.9.1 bugfix July 2018 build 013d7b7c2542+ Fri, 06 Jul 2018 19:26:36 +0100
REM compiler GCC version 9.3.0
REM options -cpp -mtune=generic -march=x86-64 -g -O0
REM seed 9213608 -1688577189 1250285549 -336290831 538188206 181675329 1789801611 -2117182025 618421036 1574878215 497448790 -1089568482 -1724436325 -240575076 42735273 -937745956 -304892871 -478982370 20664095 529827656 552335926 -952365809 1560962500 -1230485555 1225968136 -1576198396 -169011615 -48856935 -163083264 -545806590 -109042460 785776837 1031829558
REM
CELL 1.54180   50.00000   50.00000   50.00000   90.00000   90.00000   90.00000
LATT -1
SFAC C  
C      1  0.4226430000000  0.4694590000000  0.5123650000000 1.0
C      1  0.5405690000000  0.5308360000000  0.4540760000000 1.0
C      1  0.5715870000000  0.5467390000000  0.4892740000000 1.0
C      1  0.5487090000000  0.4957340000000  0.5570960000000 1.0
C      1  0.4380460000000  0.5016300000000  0.5454040000000 1.0
C      1  0.5826650000000  0.5197020000000  0.4796440000000 1.0
C      1  0.5044760000000  0.4761170000000  0.4704420000000 1.0
C      1  0.4741820000000  0.4801910000000  0.4053910000000 1.0
C      1  0.4787610000000  0.4613280000000  0.4292250000000 1.0
C      1  0.4488380000000  0.5739380000000  0.5409210000000 1.0
C      1  0.4326520000000  0.5679700000000  0.4979520000000 1.0
C      1  0.5544390000000  0.4173990000000  0.4753490000000 1.0
C      1  0.4741760000000  0.5900810000000  0.5062400000000 1.0
C      1  0.4372100000000  0.4661420000000  0.4615060000000 1.0
C      1  0.5367640000000  0.5182470000000  0.5110920000000 1.0
C      1  0.5293350000000  0.4703000000000  0.5219850000000 1.0
C      1  0.5596890000000  0.4338030000000  0.4969420000000 1.0
C      1  0.4895730000000  0.4103800000000  0.4964420000000 1.0
C      1  0.4852830000000  0.4894310000000  0.5351370000000 1.0
C      1  0.4932640000000  0.5852020000000  0.5279970000000 1.0
C      1  0.4892120000000  0.5553950000000  0.4138390000000 1.0
C      1  0.5504240000000  0.5076920000000  0.4389220000000 1.0
C      1  0.4966110000000  0.4402070000000  0.5323040000000 1.0
C      1  0.4593930000000  0.4813880000000  0.5528860000000 1.0
C      1  0.4254530000000  0.5178710000000  0.4730090000000 1.0
C      1  0.4973650000000  0.5277680000000  0.4718960000000 1.0
C      1  0.4979160000000  0.5534210000000  0.4878170000000 1.0
C      1  0.4466050000000  0.4292940000000  0.4878930000000 1.0
C      1  0.4678640000000  0.4338760000000  0.5320840000000 1.0
C      1  0.5101930000000  0.5171400000000  0.5895040000000 1.0
C      1  0.5141020000000  0.4031480000000  0.5389700000000 1.0
C      1  0.5036450000000  0.5088370000000  0.5466110000000 1.0
C      1  0.5027340000000  0.5002210000000  0.4878740000000 1.0
C      1  0.4670650000000  0.5328580000000  0.5724910000000 1.0
C      1  0.5694670000000  0.5038200000000  0.4587200000000 1.0
C      1  0.4761680000000  0.5760240000000  0.5499540000000 1.0
C      1  0.5311130000000  0.4897280000000  0.4262930000000 1.0
C      1  0.5760040000000  0.4685170000000  0.5303800000000 1.0
C      1  0.4439780000000  0.5395110000000  0.4609030000000 1.0
C      1  0.5902550000000  0.4995410000000  0.4985390000000 1.0
C      1  0.4550710000000  0.5269420000000  0.4354500000000 1.0
C      1  0.4507950000000  0.4527660000000  0.5446070000000 1.0
C      1  0.5418480000000  0.5380050000000  0.4891470000000 1.0
C      1  0.5298000000000  0.5733920000000  0.4437990000000 1.0
C      1  0.5132890000000  0.5289200000000  0.5281940000000 1.0
C      1  0.4916120000000  0.4650130000000  0.5827620000000 1.0
C      1  0.5028180000000  0.3937540000000  0.5174190000000 1.0
C      1  0.5058070000000  0.4456470000000  0.4302280000000 1.0
C      1  0.4264910000000  0.4521220000000  0.5330330000000 1.0
C      1  0.4384640000000  0.4579580000000  0.4893700000000 1.0
C      1  0.5280140000000  0.5529900000000  0.5427530000000 1.0
C      1  0.4555400000000  0.4491230000000  0.4461430000000 1.0
C      1  0.5178450000000  0.4282060000000  0.5497390000000 1.0
C      1  0.5084620000000  0.4227090000000  0.4496760000000 1.0
C      1  0.4683270000000  0.5228540000000  0.4725240000000 1.0
C      1  0.4873040000000  0.4854390000000  0.4458980000000 1.0
C      1  0.5255770000000  0.4634210000000  0.4234600000000 1.0
C      1  0.5181680000000  0.4675650000000  0.5779240000000 1.0
C      1  0.5285390000000  0.4925210000000  0.5018890000000 1.0
C      1  0.4353500000000  0.4942350000000  0.4597960000000 1.0
C      1  0.5052880000000  0.5034990000000  0.4299330000000 1.0
C      1  0.5382740000000  0.5793930000000  0.4713450000000 1.0
C      1  0.4857440000000  0.4132600000000  0.4657670000000 1.0
C      1  0.4632630000000  0.4200500000000  0.5077770000000 1.0
C      1  0.5347970000000  0.4715660000000  0.4796140000000 1.0
C      1  0.5332280000000  0.4168830000000  0.4605400000000 1.0
C      1  0.4722710000000  0.5327040000000  0.4144730000000 1.0
C      1  0.4735720000000  0.4852850000000  0.5794590000000 1.0
C      1  0.4479110000000  0.5650250000000  0.4743310000000 1.0
C      1  0.5131000000000  0.5530050000000  0.5706750000000 1.0
C      1  0.4843690000000  0.5056690000000  0.4073600000000 1.0
C      1  0.4679920000000  0.4689690000000  0.4981750000000 1.0
C      1  0.5810460000000  0.4968310000000  0.5253170000000 1.0
C      1  0.5580540000000  0.5446990000000  0.5384800000000 1.0
C      1  0.4845060000000  0.5559620000000  0.5671470000000 1.0
C      1  0.4227680000000  0.5456470000000  0.5136100000000 1.0
C      1  0.5200950000000  0.5422360000000  0.5956060000000 1.0
C      1  0.4758040000000  0.5743320000000  0.4825700000000 1.0
C      1  0.5334560000000  0.4480190000000  0.5006470000000 1.0
C      1  0.5342390000000  0.4487840000000  0.5628540000000 1.0
C      1  0.5654510000000  0.5682120000000  0.4688810000000 1.0
C      1  0.4435040000000  0.5278300000000  0.5558490000000 1.0
C      1  0.4621290000000  0.5023090000000  0.4517110000000 1.0
C      1  0.5039210000000  0.4678120000000  0.5346370000000 1.0
C      1  0.4885180000000  0.5390090000000  0.5131800000000 1.0
C      1  0.4778090000000  0.4949980000000  0.5068120000000 1.0
C      1  0.5053950000000  0.4368030000000  0.5027810000000 1.0
C      1  0.5598080000000  0.5141380000000  0.5369570000000 1.0
C      1  0.4602620000000  0.4260330000000  0.4625000000000 1.0
C      1  0.5233360000000  0.4972220000000  0.5707950000000 1.0
C      1  0.4334010000000  0.5496240000000  0.5406220000000 1.0
C      1  0.4807740000000  0.5120470000000  0.5857340000000 1.0
C      1  0.5250520000000  0.5639610000000  0.4939780000000 1.0
C      1  0.5796710000000  0.4529740000000  0.5062110000000 1.0
C      1  0.5724660000000  0.5537870000000  0.5176410000000 1.0
C      1  0.5510840000000  0.4681860000000  0.5464760000000 1.0
C      1  0.5092460000000  0.5566960000000  0.4318920000000 1.0
C      1  0.4904700000000  0.4562340000000  0.4865180000000 1.0
C      1  0.4674450000000  0.5215140000000  0.5040370000000 1.0
C      1  0.5632750000000  0.4776790000000  0.4683400000000 1.0
C      1  0.4228570000000  0.4974720000000  0.5204810000000 1.0
C      1  0.4479100000000  0.5853780000000  0.5152720000000 1.0
C      1  0.5117970000000  0.5293920000000  0.4458030000000 1.0
C      1  0.5192840000000  0.5745130000000  0.5233760000000 1.0
C      1  0.5842230000000  0.4734070000000  0.4872420000000 1.0
C      1  0.4194800000000  0.5198070000000  0.5015900000000 1.0
C      1  0.5541010000000  0.5566770000000  0.4458220000000 1.0
END
