TITL C-20261-1516-6 0.004612692252144 125000 -221.504812099853 0 0 34 (C1) n - 1
REM
REM in /rds/project/t2_vol4/rds-t2-cs072/BORA/CARBON/from-Arr/AIRSS/Generating-Clusters/GAP-ML-2020/Only-C1/SD-CG/HFTN-CG
REM
REM
REM
REM
REM
REM ./C.cell (11c1c37f851c82e70ff6c80c92926a4b)
REM AIRSS Version 0.9.1 bugfix July 2018 build 013d7b7c2542+ Fri, 06 Jul 2018 19:26:36 +0100
REM compiler GCC version 9.3.0
REM options -cpp -mtune=generic -march=x86-64 -g -O0
REM seed 885385626 519159074 -358001892 -554577190 1029639793 1257534255 1454154270 -1694309272 1165832534 1666987644 249189549 42558834 1899915733 -1128760141 198530417 -476029537 1704559016 -878749122 -691465616 1264220874 -412751780 -1294695337 -638237450 -98197697 1643977706 723838832 -1367106981 -1751366968 231262260 318037683 -230475490 1942809581 -1813568985
REM
CELL 1.54180   50.00000   50.00000   50.00000   90.00000   90.00000   90.00000
LATT -1
SFAC C  
C      1  0.5030440000000  0.5185470000000  0.4995160000000 1.0
C      1  0.4889690000000  0.5429610000000  0.5385770000000 1.0
C      1  0.5464100000000  0.5155660000000  0.5197680000000 1.0
C      1  0.5157740000000  0.5345850000000  0.5416280000000 1.0
C      1  0.4577690000000  0.5120720000000  0.5084270000000 1.0
C      1  0.5400610000000  0.4724110000000  0.5185620000000 1.0
C      1  0.4995370000000  0.4885120000000  0.4996190000000 1.0
C      1  0.4986270000000  0.5145010000000  0.4506860000000 1.0
C      1  0.5153020000000  0.4771360000000  0.4732740000000 1.0
C      1  0.4941540000000  0.4403730000000  0.4920960000000 1.0
C      1  0.4877920000000  0.5638520000000  0.5045380000000 1.0
C      1  0.5257980000000  0.5338130000000  0.5132380000000 1.0
C      1  0.5443230000000  0.5086910000000  0.4526970000000 1.0
C      1  0.4935790000000  0.4856770000000  0.4559960000000 1.0
C      1  0.4818620000000  0.5210990000000  0.5204140000000 1.0
C      1  0.4360610000000  0.5289470000000  0.5001700000000 1.0
C      1  0.4517850000000  0.5456320000000  0.4879000000000 1.0
C      1  0.5242740000000  0.5174890000000  0.4384260000000 1.0
C      1  0.5310220000000  0.4497490000000  0.5068380000000 1.0
C      1  0.5227350000000  0.4813270000000  0.5407850000000 1.0
C      1  0.5276230000000  0.5085130000000  0.5429280000000 1.0
C      1  0.4720900000000  0.4642000000000  0.5348330000000 1.0
C      1  0.4607940000000  0.4635460000000  0.5094150000000 1.0
C      1  0.4945150000000  0.5302850000000  0.4742680000000 1.0
C      1  0.5193560000000  0.4491960000000  0.4807020000000 1.0
C      1  0.5484150000000  0.4937520000000  0.5025150000000 1.0
C      1  0.4688520000000  0.4883970000000  0.4957610000000 1.0
C      1  0.4856800000000  0.5706030000000  0.5293560000000 1.0
C      1  0.4703200000000  0.4512020000000  0.4848350000000 1.0
C      1  0.4989020000000  0.4624040000000  0.5387920000000 1.0
C      1  0.4703010000000  0.4755820000000  0.4684630000000 1.0
C      1  0.5399780000000  0.4933530000000  0.4751450000000 1.0
C      1  0.4782660000000  0.5528830000000  0.4815090000000 1.0
C      1  0.5060280000000  0.4431450000000  0.5183250000000 1.0
END
