TITL C-20655-1312-3 -12.3695647029958 125000 -320.378970797622 0 0 48 (C1) n - 1
REM
REM in /rds/project/t2_vol4/rds-t2-cs072/BORA/CARBON/from-Arr/AIRSS/Generating-Clusters/GAP-ML-2020/Only-C1/SD-CG/HFTN-CG
REM
REM
REM
REM
REM
REM ./C.cell (11c1c37f851c82e70ff6c80c92926a4b)
REM AIRSS Version 0.9.1 bugfix July 2018 build 013d7b7c2542+ Fri, 06 Jul 2018 19:26:36 +0100
REM compiler GCC version 9.3.0
REM options -cpp -mtune=generic -march=x86-64 -g -O0
REM seed -678249456 1801177853 416639351 -709762961 -731396633 -855904207 -508833417 1136200171 987303137 -111634713 -548672046 -583673418 796053692 439847017 867841247 -1596137072 527066699 -1966779109 -1632319054 -1586764001 1671492967 -682888419 -762773916 1414192656 1092130575 30984070 -2015207317 990749388 -1759883585 1735728228 2084206542 1160054505 -1907421670
REM
CELL 1.54180   50.00000   50.00000   50.00000   90.00000   90.00000   90.00000
LATT -1
SFAC C  
C      1  0.4839700000000  0.5376690000000  0.5171010000000 1.0
C      1  0.5167680000000  0.5475740000000  0.5449180000000 1.0
C      1  0.4631810000000  0.4372970000000  0.5226280000000 1.0
C      1  0.5028070000000  0.4743680000000  0.4804290000000 1.0
C      1  0.5503990000000  0.5042400000000  0.4786760000000 1.0
C      1  0.5480810000000  0.4779570000000  0.4389120000000 1.0
C      1  0.5069230000000  0.5557090000000  0.4722110000000 1.0
C      1  0.5217090000000  0.5173490000000  0.4392000000000 1.0
C      1  0.4813090000000  0.4721360000000  0.4594990000000 1.0
C      1  0.5079610000000  0.5026250000000  0.5362050000000 1.0
C      1  0.4752840000000  0.5120980000000  0.4438170000000 1.0
C      1  0.4854840000000  0.4892970000000  0.5202540000000 1.0
C      1  0.5220430000000  0.5483970000000  0.4941100000000 1.0
C      1  0.4937240000000  0.5276010000000  0.5463920000000 1.0
C      1  0.4634930000000  0.5483690000000  0.4971890000000 1.0
C      1  0.5057220000000  0.5058420000000  0.4821670000000 1.0
C      1  0.4936500000000  0.4667400000000  0.5052070000000 1.0
C      1  0.5139660000000  0.4278100000000  0.5191000000000 1.0
C      1  0.5449680000000  0.4548400000000  0.4923510000000 1.0
C      1  0.5001870000000  0.4894610000000  0.5732790000000 1.0
C      1  0.4896050000000  0.4391130000000  0.5127910000000 1.0
C      1  0.4554960000000  0.5050940000000  0.5543880000000 1.0
C      1  0.5249440000000  0.4560460000000  0.4720050000000 1.0
C      1  0.5097820000000  0.5413230000000  0.4478350000000 1.0
C      1  0.5445080000000  0.5027710000000  0.4509220000000 1.0
C      1  0.4606810000000  0.4834590000000  0.5357850000000 1.0
C      1  0.5376380000000  0.4674180000000  0.5386690000000 1.0
C      1  0.4508020000000  0.4579090000000  0.5317950000000 1.0
C      1  0.4810940000000  0.5117590000000  0.5669280000000 1.0
C      1  0.4417650000000  0.5277500000000  0.4991000000000 1.0
C      1  0.4621130000000  0.4946240000000  0.4616420000000 1.0
C      1  0.4802090000000  0.5388990000000  0.4487210000000 1.0
C      1  0.5501090000000  0.4872380000000  0.5224430000000 1.0
C      1  0.5357660000000  0.5126140000000  0.5233860000000 1.0
C      1  0.5409970000000  0.5349460000000  0.5440430000000 1.0
C      1  0.4992860000000  0.4724550000000  0.4374230000000 1.0
C      1  0.4364380000000  0.5235230000000  0.5453610000000 1.0
C      1  0.4566550000000  0.5064390000000  0.4867460000000 1.0
C      1  0.5345940000000  0.4459920000000  0.5191580000000 1.0
C      1  0.5190600000000  0.4825620000000  0.5561370000000 1.0
C      1  0.4256740000000  0.5284350000000  0.5217540000000 1.0
C      1  0.5081130000000  0.5549600000000  0.5180740000000 1.0
C      1  0.4834550000000  0.5109570000000  0.5007270000000 1.0
C      1  0.5551800000000  0.4810210000000  0.4954250000000 1.0
C      1  0.5316680000000  0.5198730000000  0.4944030000000 1.0
C      1  0.4774120000000  0.5533640000000  0.4735160000000 1.0
C      1  0.5264070000000  0.4619440000000  0.4447310000000 1.0
C      1  0.4989190000000  0.5001330000000  0.4324440000000 1.0
END
