TITL C-200313-9477-2 -0.0253751802558546 125000 -336.127273977783 0 0 50 (C1) n - 1
REM
REM in /rds/project/t2_vol4/rds-t2-cs072/BORA/CARBON/from-Arr/AIRSS/Generating-Clusters/GAP-ML-2020/Only-C1/SD-CG/HFTN-CG
REM
REM
REM
REM
REM
REM ./C.cell (11c1c37f851c82e70ff6c80c92926a4b)
REM AIRSS Version 0.9.1 bugfix July 2018 build 013d7b7c2542+ Fri, 06 Jul 2018 19:26:36 +0100
REM compiler GCC version 9.3.0
REM options -cpp -mtune=generic -march=x86-64 -g -O0
REM seed 707894747 1977567210 -1840309072 538432428 -983484950 1628578918 -1177504763 -1031750694 1599049545 -1584935631 -490849289 486071493 1146844481 -1297635641 -1276918244 -1507386015 644841591 11329549 1360651494 1559116932 700686641 -251040599 2044676293 -963061911 -1203488631 708847929 918170271 -2022521188 1887562172 1848148837 -1773788697 755428615 1593903814
REM
CELL 1.54180   50.00000   50.00000   50.00000   90.00000   90.00000   90.00000
LATT -1
SFAC C  
C      1  0.4826530000000  0.5147620000000  0.5462910000000 1.0
C      1  0.5531340000000  0.4804920000000  0.4750190000000 1.0
C      1  0.4604290000000  0.5116170000000  0.4806330000000 1.0
C      1  0.4943550000000  0.4718530000000  0.4512030000000 1.0
C      1  0.5209840000000  0.5546310000000  0.5079760000000 1.0
C      1  0.4813410000000  0.4734540000000  0.4967150000000 1.0
C      1  0.5619780000000  0.5018230000000  0.4936250000000 1.0
C      1  0.4648260000000  0.4770770000000  0.4458880000000 1.0
C      1  0.4512550000000  0.4580940000000  0.5339880000000 1.0
C      1  0.5087310000000  0.5087560000000  0.5315560000000 1.0
C      1  0.4503280000000  0.4306300000000  0.5272040000000 1.0
C      1  0.5489410000000  0.4864550000000  0.4482520000000 1.0
C      1  0.5078510000000  0.4469480000000  0.4570680000000 1.0
C      1  0.5250000000000  0.4838640000000  0.5202560000000 1.0
C      1  0.5121810000000  0.4807330000000  0.5712350000000 1.0
C      1  0.4838130000000  0.5146920000000  0.4378710000000 1.0
C      1  0.4524290000000  0.5372380000000  0.4927390000000 1.0
C      1  0.5561880000000  0.5301700000000  0.4895190000000 1.0
C      1  0.4937650000000  0.5583130000000  0.4700710000000 1.0
C      1  0.4610830000000  0.4976800000000  0.5512570000000 1.0
C      1  0.4681530000000  0.4701080000000  0.5529200000000 1.0
C      1  0.5299780000000  0.5034810000000  0.4396110000000 1.0
C      1  0.4900570000000  0.5517420000000  0.5150970000000 1.0
C      1  0.4567910000000  0.4863230000000  0.4973400000000 1.0
C      1  0.4746560000000  0.5571720000000  0.4914280000000 1.0
C      1  0.5031940000000  0.4943220000000  0.4331630000000 1.0
C      1  0.5265720000000  0.5298190000000  0.4495280000000 1.0
C      1  0.4606060000000  0.5033020000000  0.4513690000000 1.0
C      1  0.5099000000000  0.4609530000000  0.5295600000000 1.0
C      1  0.5507120000000  0.5218160000000  0.5346020000000 1.0
C      1  0.5248440000000  0.4809020000000  0.4913230000000 1.0
C      1  0.5400250000000  0.4557940000000  0.4866430000000 1.0
C      1  0.4992070000000  0.4869940000000  0.4789550000000 1.0
C      1  0.4390230000000  0.4797890000000  0.5181690000000 1.0
C      1  0.5211920000000  0.5617570000000  0.4806690000000 1.0
C      1  0.5405660000000  0.5432440000000  0.4693810000000 1.0
C      1  0.4730560000000  0.5379650000000  0.5335310000000 1.0
C      1  0.4948090000000  0.4488230000000  0.5069820000000 1.0
C      1  0.4413700000000  0.5044900000000  0.5314760000000 1.0
C      1  0.5154130000000  0.4434910000000  0.4834830000000 1.0
C      1  0.5529040000000  0.4967970000000  0.5204040000000 1.0
C      1  0.5046330000000  0.5254040000000  0.5069740000000 1.0
C      1  0.4922670000000  0.5146980000000  0.4816960000000 1.0
C      1  0.4487150000000  0.5307200000000  0.5210240000000 1.0
C      1  0.5276860000000  0.5009540000000  0.5752790000000 1.0
C      1  0.5290140000000  0.5174510000000  0.5525440000000 1.0
C      1  0.4721460000000  0.4321830000000  0.5134640000000 1.0
C      1  0.4969600000000  0.4652210000000  0.5547620000000 1.0
C      1  0.4973640000000  0.5335270000000  0.4554610000000 1.0
C      1  0.5469210000000  0.5414760000000  0.5147950000000 1.0
END
