TITL C-20238-1471-3 11.9142421122211 125000 -585.476388629711 0 0 84 (C1) n - 1
REM
REM in /rds/project/t2_vol4/rds-t2-cs072/BORA/CARBON/from-Arr/AIRSS/Generating-Clusters/GAP-ML-2020/Only-C1/SD-CG/HFTN-CG
REM
REM
REM
REM
REM
REM ./C.cell (11c1c37f851c82e70ff6c80c92926a4b)
REM AIRSS Version 0.9.1 bugfix July 2018 build 013d7b7c2542+ Fri, 06 Jul 2018 19:26:36 +0100
REM compiler GCC version 9.3.0
REM options -cpp -mtune=generic -march=x86-64 -g -O0
REM seed -392017949 -28343949 887950689 -871781994 1857639767 1631376956 345792754 -1773948017 -1894253765 -657424601 -206483105 -145115807 -165014442 1666403341 2011968459 -693997096 1856660620 -1674658386 945561051 1797069724 -2088399961 -1038682117 2019456949 1930939238 -1291255622 647528825 -970455289 1805374547 -1945138077 1295863830 -158672534 -1536863722 -222088609
REM
CELL 1.54180   50.00000   50.00000   50.00000   90.00000   90.00000   90.00000
LATT -1
SFAC C  
C      1  0.5289710000000  0.5535450000000  0.5568890000000 1.0
C      1  0.4779870000000  0.5342500000000  0.4430830000000 1.0
C      1  0.4499110000000  0.5245830000000  0.5438000000000 1.0
C      1  0.5060440000000  0.5099640000000  0.4785230000000 1.0
C      1  0.4617580000000  0.4523660000000  0.5237980000000 1.0
C      1  0.4370710000000  0.4674270000000  0.4352660000000 1.0
C      1  0.4266630000000  0.4913450000000  0.4402260000000 1.0
C      1  0.4530970000000  0.4808850000000  0.4845740000000 1.0
C      1  0.5182240000000  0.5721280000000  0.4714830000000 1.0
C      1  0.4597380000000  0.5514300000000  0.5356770000000 1.0
C      1  0.4882240000000  0.5354730000000  0.5714700000000 1.0
C      1  0.4902960000000  0.4213890000000  0.5054590000000 1.0
C      1  0.4588650000000  0.5071150000000  0.4969660000000 1.0
C      1  0.4620690000000  0.5111870000000  0.4461120000000 1.0
C      1  0.5559560000000  0.4556410000000  0.5336700000000 1.0
C      1  0.5319610000000  0.5342830000000  0.4387500000000 1.0
C      1  0.4698040000000  0.4895610000000  0.5757720000000 1.0
C      1  0.4728760000000  0.4321920000000  0.4844920000000 1.0
C      1  0.5676040000000  0.5482070000000  0.5205420000000 1.0
C      1  0.5202560000000  0.5119690000000  0.5208630000000 1.0
C      1  0.5190240000000  0.4417740000000  0.5491900000000 1.0
C      1  0.4598790000000  0.5620260000000  0.5089460000000 1.0
C      1  0.5039460000000  0.5268300000000  0.4303920000000 1.0
C      1  0.5407340000000  0.4589780000000  0.5580890000000 1.0
C      1  0.4361630000000  0.5244330000000  0.4839230000000 1.0
C      1  0.4228900000000  0.4827960000000  0.4934590000000 1.0
C      1  0.4642230000000  0.5035070000000  0.5276150000000 1.0
C      1  0.5138430000000  0.4521220000000  0.4294040000000 1.0
C      1  0.4925360000000  0.5138090000000  0.5221050000000 1.0
C      1  0.5809710000000  0.5109020000000  0.4885550000000 1.0
C      1  0.5304990000000  0.4417940000000  0.5212570000000 1.0
C      1  0.5600070000000  0.5517800000000  0.4720130000000 1.0
C      1  0.5801640000000  0.5231750000000  0.5141080000000 1.0
C      1  0.4670750000000  0.5161900000000  0.5695870000000 1.0
C      1  0.4831710000000  0.5769710000000  0.5016710000000 1.0
C      1  0.4619550000000  0.4591800000000  0.4450030000000 1.0
C      1  0.4980920000000  0.4678150000000  0.4919400000000 1.0
C      1  0.5074410000000  0.5777150000000  0.5169530000000 1.0
C      1  0.4708980000000  0.4844360000000  0.4572790000000 1.0
C      1  0.5368120000000  0.5565810000000  0.4556650000000 1.0
C      1  0.4916490000000  0.4433880000000  0.5541360000000 1.0
C      1  0.4063430000000  0.4640240000000  0.5060610000000 1.0
C      1  0.4346920000000  0.5128790000000  0.4556060000000 1.0
C      1  0.5363830000000  0.5094480000000  0.5708480000000 1.0
C      1  0.5595790000000  0.5179250000000  0.5555740000000 1.0
C      1  0.4824290000000  0.5567890000000  0.5527750000000 1.0
C      1  0.5529190000000  0.5139130000000  0.4462220000000 1.0
C      1  0.5093700000000  0.4777760000000  0.4155080000000 1.0
C      1  0.4259410000000  0.4836800000000  0.5434700000000 1.0
C      1  0.5302270000000  0.5097460000000  0.4937460000000 1.0
C      1  0.4552480000000  0.4755950000000  0.5410320000000 1.0
C      1  0.4702670000000  0.5550040000000  0.4623370000000 1.0
C      1  0.5740100000000  0.5034190000000  0.5345440000000 1.0
C      1  0.5551850000000  0.5448890000000  0.5467350000000 1.0
C      1  0.4857340000000  0.5203500000000  0.4949950000000 1.0
C      1  0.5072140000000  0.5680150000000  0.5437960000000 1.0
C      1  0.5251900000000  0.4295500000000  0.4720300000000 1.0
C      1  0.5702640000000  0.4774240000000  0.5216160000000 1.0
C      1  0.4247650000000  0.5114590000000  0.5335660000000 1.0
C      1  0.5179580000000  0.4232490000000  0.4998510000000 1.0
C      1  0.4894740000000  0.5727020000000  0.4738310000000 1.0
C      1  0.4064970000000  0.4670350000000  0.5320750000000 1.0
C      1  0.5176610000000  0.5322720000000  0.5729030000000 1.0
C      1  0.5558610000000  0.5622480000000  0.4982850000000 1.0
C      1  0.4979900000000  0.4843910000000  0.4694840000000 1.0
C      1  0.4769130000000  0.4361600000000  0.4569590000000 1.0
C      1  0.5288610000000  0.4842170000000  0.5598120000000 1.0
C      1  0.5022650000000  0.5032080000000  0.4170520000000 1.0
C      1  0.4502030000000  0.5503890000000  0.4838040000000 1.0
C      1  0.4734390000000  0.4661960000000  0.5630070000000 1.0
C      1  0.5570350000000  0.4695560000000  0.4687190000000 1.0
C      1  0.5293260000000  0.5745090000000  0.4977820000000 1.0
C      1  0.5213810000000  0.4678960000000  0.5093730000000 1.0
C      1  0.5423860000000  0.4830270000000  0.4926690000000 1.0
C      1  0.4207220000000  0.5106260000000  0.5046170000000 1.0
C      1  0.5483550000000  0.4429470000000  0.4698160000000 1.0
C      1  0.4682370000000  0.4586830000000  0.4970790000000 1.0
C      1  0.4795510000000  0.4320010000000  0.5305240000000 1.0
C      1  0.5727830000000  0.4832060000000  0.4929090000000 1.0
C      1  0.5170680000000  0.4865580000000  0.5318750000000 1.0
C      1  0.5046100000000  0.4347070000000  0.4500300000000 1.0
C      1  0.5345180000000  0.4704020000000  0.4274920000000 1.0
C      1  0.5699650000000  0.5254960000000  0.4665320000000 1.0
C      1  0.5518350000000  0.4852880000000  0.4443550000000 1.0
END
