TITL C-20643-1309-6 455.095064455723 125000 -718.651520879888 0 0 105 (C1) n - 1
REM
REM in /rds/project/t2_vol4/rds-t2-cs072/BORA/CARBON/from-Arr/AIRSS/Generating-Clusters/GAP-ML-2020/Only-C1/SD-CG/HFTN-CG
REM
REM
REM
REM
REM
REM ./C.cell (11c1c37f851c82e70ff6c80c92926a4b)
REM AIRSS Version 0.9.1 bugfix July 2018 build 013d7b7c2542+ Fri, 06 Jul 2018 19:26:36 +0100
REM compiler GCC version 9.3.0
REM options -cpp -mtune=generic -march=x86-64 -g -O0
REM seed 1760156987 -1215887969 999646194 -823890930 -465251397 -1109167017 1862400513 1779508962 779985092 -925438526 -960292453 -1746921782 -73044908 1299670470 2064010491 1939410474 1459763191 -1457866766 1685359754 -48246058 -841447459 -2125275831 1973583204 -593369077 450747610 1912481057 -1284528514 185735588 1014342328 995043182 1453482854 -1894666632 -2008547336
REM
CELL 1.54180   50.00000   50.00000   50.00000   90.00000   90.00000   90.00000
LATT -1
SFAC C  
C      1  0.4688370000000  0.4233810000000  0.4769730000000 1.0
C      1  0.4253490000000  0.5681450000000  0.5068970000000 1.0
C      1  0.4670330000000  0.4917230000000  0.5812160000000 1.0
C      1  0.4922650000000  0.5646440000000  0.4813590000000 1.0
C      1  0.5347280000000  0.4682010000000  0.4175910000000 1.0
C      1  0.5671760000000  0.4786900000000  0.5475650000000 1.0
C      1  0.4834700000000  0.5170340000000  0.5732300000000 1.0
C      1  0.4803730000000  0.5477370000000  0.4223700000000 1.0
C      1  0.4941420000000  0.5243520000000  0.4537210000000 1.0
C      1  0.4798150000000  0.4765350000000  0.4688420000000 1.0
C      1  0.4935750000000  0.4856600000000  0.5080430000000 1.0
C      1  0.4350370000000  0.4804010000000  0.5449720000000 1.0
C      1  0.5842870000000  0.4755150000000  0.4700390000000 1.0
C      1  0.4906720000000  0.5319580000000  0.5268870000000 1.0
C      1  0.5147460000000  0.5111980000000  0.4157330000000 1.0
C      1  0.5549980000000  0.5675700000000  0.5205050000000 1.0
C      1  0.4603510000000  0.5213290000000  0.4893220000000 1.0
C      1  0.5194740000000  0.4491160000000  0.5266790000000 1.0
C      1  0.4997640000000  0.4946170000000  0.4549580000000 1.0
C      1  0.4097350000000  0.4808850000000  0.5310930000000 1.0
C      1  0.4564050000000  0.5239240000000  0.5622660000000 1.0
C      1  0.4939160000000  0.4892960000000  0.4218550000000 1.0
C      1  0.4949690000000  0.4450380000000  0.4335510000000 1.0
C      1  0.5123810000000  0.4419950000000  0.4986350000000 1.0
C      1  0.5268790000000  0.4909540000000  0.4649380000000 1.0
C      1  0.4716390000000  0.4650760000000  0.5725920000000 1.0
C      1  0.5072490000000  0.5386690000000  0.4284040000000 1.0
C      1  0.5537690000000  0.5569990000000  0.4773000000000 1.0
C      1  0.4481160000000  0.4944870000000  0.5210900000000 1.0
C      1  0.5432470000000  0.4289130000000  0.5285780000000 1.0
C      1  0.5606690000000  0.5253500000000  0.4467390000000 1.0
C      1  0.5596150000000  0.4441230000000  0.5119150000000 1.0
C      1  0.5070410000000  0.4640970000000  0.4170530000000 1.0
C      1  0.4651040000000  0.5347160000000  0.4424420000000 1.0
C      1  0.4083700000000  0.5278570000000  0.4834150000000 1.0
C      1  0.4717260000000  0.5820490000000  0.5214700000000 1.0
C      1  0.5647000000000  0.5406730000000  0.5233510000000 1.0
C      1  0.4503350000000  0.5783800000000  0.5023530000000 1.0
C      1  0.5704300000000  0.4767800000000  0.4462540000000 1.0
C      1  0.5342850000000  0.5340710000000  0.4864060000000 1.0
C      1  0.5317740000000  0.4046490000000  0.5276100000000 1.0
C      1  0.5393600000000  0.4962980000000  0.4160420000000 1.0
C      1  0.4879400000000  0.4611670000000  0.4925490000000 1.0
C      1  0.5127590000000  0.5770480000000  0.4638850000000 1.0
C      1  0.5213470000000  0.5870700000000  0.4897490000000 1.0
C      1  0.5467280000000  0.5132460000000  0.4690920000000 1.0
C      1  0.3917150000000  0.5060560000000  0.4900670000000 1.0
C      1  0.5585620000000  0.4997410000000  0.4942210000000 1.0
C      1  0.4886320000000  0.5194360000000  0.4996640000000 1.0
C      1  0.5395210000000  0.4486430000000  0.4865240000000 1.0
C      1  0.4254050000000  0.5345830000000  0.4621920000000 1.0
C      1  0.4980250000000  0.5101980000000  0.5444940000000 1.0
C      1  0.4940920000000  0.4141800000000  0.4693760000000 1.0
C      1  0.5747130000000  0.4663480000000  0.5218210000000 1.0
C      1  0.4373340000000  0.4813610000000  0.4943240000000 1.0
C      1  0.5368480000000  0.5664730000000  0.5421380000000 1.0
C      1  0.5390680000000  0.4823410000000  0.5866440000000 1.0
C      1  0.4654880000000  0.4816030000000  0.4282970000000 1.0
C      1  0.4543220000000  0.4565310000000  0.5506840000000 1.0
C      1  0.4933610000000  0.5622160000000  0.5596770000000 1.0
C      1  0.4543670000000  0.4945750000000  0.4741400000000 1.0
C      1  0.5264570000000  0.5038580000000  0.5332580000000 1.0
C      1  0.5052750000000  0.4137050000000  0.4951830000000 1.0
C      1  0.5524520000000  0.5528630000000  0.4489020000000 1.0
C      1  0.4855990000000  0.4179530000000  0.5372050000000 1.0
C      1  0.5830910000000  0.4823190000000  0.4971870000000 1.0
C      1  0.5211640000000  0.4798730000000  0.5176660000000 1.0
C      1  0.4436390000000  0.4995130000000  0.5672310000000 1.0
C      1  0.5041180000000  0.4026310000000  0.5205880000000 1.0
C      1  0.5017290000000  0.5397470000000  0.5777650000000 1.0
C      1  0.5108980000000  0.4290430000000  0.4506290000000 1.0
C      1  0.5477110000000  0.5776920000000  0.4951530000000 1.0
C      1  0.5254740000000  0.5606080000000  0.4427350000000 1.0
C      1  0.4419780000000  0.4536560000000  0.4868670000000 1.0
C      1  0.5628760000000  0.5021480000000  0.4309480000000 1.0
C      1  0.4523290000000  0.4417790000000  0.4616960000000 1.0
C      1  0.5678260000000  0.5331490000000  0.5502560000000 1.0
C      1  0.4199740000000  0.5415840000000  0.5072540000000 1.0
C      1  0.5659170000000  0.5063770000000  0.5594830000000 1.0
C      1  0.5091110000000  0.5618430000000  0.5342770000000 1.0
C      1  0.4072210000000  0.4880730000000  0.5044100000000 1.0
C      1  0.4636320000000  0.5683000000000  0.4789380000000 1.0
C      1  0.5031450000000  0.5356710000000  0.4797310000000 1.0
C      1  0.4687050000000  0.5657920000000  0.5454810000000 1.0
C      1  0.5498980000000  0.4649030000000  0.5663590000000 1.0
C      1  0.5508030000000  0.4561020000000  0.4378340000000 1.0
C      1  0.4641330000000  0.4362140000000  0.5314520000000 1.0
C      1  0.5002060000000  0.4396750000000  0.5467310000000 1.0
C      1  0.5473660000000  0.5492480000000  0.5624030000000 1.0
C      1  0.4608350000000  0.5377600000000  0.5374590000000 1.0
C      1  0.5450720000000  0.5088110000000  0.5800870000000 1.0
C      1  0.4991720000000  0.5779630000000  0.5103060000000 1.0
C      1  0.4530170000000  0.5441370000000  0.4686220000000 1.0
C      1  0.4975470000000  0.4536730000000  0.5708320000000 1.0
C      1  0.4777360000000  0.4912940000000  0.5307740000000 1.0
C      1  0.5237380000000  0.4610690000000  0.5787380000000 1.0
C      1  0.4638750000000  0.4415860000000  0.5019520000000 1.0
C      1  0.5452940000000  0.5205800000000  0.5119340000000 1.0
C      1  0.4445250000000  0.5246800000000  0.5151100000000 1.0
C      1  0.4699270000000  0.4570660000000  0.4442750000000 1.0
C      1  0.4377920000000  0.5220070000000  0.4395710000000 1.0
C      1  0.4475020000000  0.4968950000000  0.4436070000000 1.0
C      1  0.5303490000000  0.5341380000000  0.5793860000000 1.0
C      1  0.5371690000000  0.4397800000000  0.4571640000000 1.0
C      1  0.5356890000000  0.4783410000000  0.4907670000000 1.0
END
