TITL C-20236-1585-4 33.1828669151155 125000 -273.788572434661 0 0 42 (C1) n - 1
REM
REM in /rds/project/t2_vol4/rds-t2-cs072/BORA/CARBON/from-Arr/AIRSS/Generating-Clusters/GAP-ML-2020/Only-C1/SD-CG/HFTN-CG
REM
REM
REM
REM
REM
REM ./C.cell (11c1c37f851c82e70ff6c80c92926a4b)
REM AIRSS Version 0.9.1 bugfix July 2018 build 013d7b7c2542+ Fri, 06 Jul 2018 19:26:36 +0100
REM compiler GCC version 9.3.0
REM options -cpp -mtune=generic -march=x86-64 -g -O0
REM seed -1711923465 -541374506 -309656414 -230169788 -1809926243 2133037166 -1196639474 1755718069 1262758110 -1066572929 606527323 -426237841 748893492 823146143 2092051097 -665124630 444831539 628345052 -797823992 1237808659 1876838577 914402225 2073722022 -1986291873 1121651880 272668489 -430565370 243512521 648697170 -2136252968 -2107163955 -1853335427 -1797870416
REM
CELL 1.54180   50.00000   50.00000   50.00000   90.00000   90.00000   90.00000
LATT -1
SFAC C  
C      1  0.4815200000000  0.4400150000000  0.5071460000000 1.0
C      1  0.5456440000000  0.5032520000000  0.5301380000000 1.0
C      1  0.5057540000000  0.4358810000000  0.5209480000000 1.0
C      1  0.4547500000000  0.4810250000000  0.5005440000000 1.0
C      1  0.4442810000000  0.5050960000000  0.4880380000000 1.0
C      1  0.5022540000000  0.4865980000000  0.4549120000000 1.0
C      1  0.4531120000000  0.4744980000000  0.5280680000000 1.0
C      1  0.5693060000000  0.4931650000000  0.4846530000000 1.0
C      1  0.5170850000000  0.5422320000000  0.5476260000000 1.0
C      1  0.4904150000000  0.5624650000000  0.4919430000000 1.0
C      1  0.5001470000000  0.4920390000000  0.5211350000000 1.0
C      1  0.4842160000000  0.5079920000000  0.5414580000000 1.0
C      1  0.5282530000000  0.4950980000000  0.5527090000000 1.0
C      1  0.5292380000000  0.4713940000000  0.4949110000000 1.0
C      1  0.4943460000000  0.4517360000000  0.5457370000000 1.0
C      1  0.5257920000000  0.4999540000000  0.5074190000000 1.0
C      1  0.4856710000000  0.4872840000000  0.4968090000000 1.0
C      1  0.4575300000000  0.4988410000000  0.5433370000000 1.0
C      1  0.5169360000000  0.5559780000000  0.4975910000000 1.0
C      1  0.5035150000000  0.4685930000000  0.4778650000000 1.0
C      1  0.5285750000000  0.5418210000000  0.4754350000000 1.0
C      1  0.4555430000000  0.4661350000000  0.4747960000000 1.0
C      1  0.4647240000000  0.5075810000000  0.4446320000000 1.0
C      1  0.5506050000000  0.5291370000000  0.5234040000000 1.0
C      1  0.5200440000000  0.5169470000000  0.4854940000000 1.0
C      1  0.5852820000000  0.5130610000000  0.4868860000000 1.0
C      1  0.4951790000000  0.5072210000000  0.4761560000000 1.0
C      1  0.4702470000000  0.5456310000000  0.4844380000000 1.0
C      1  0.5263240000000  0.5502710000000  0.4479790000000 1.0
C      1  0.4805090000000  0.4511980000000  0.4808970000000 1.0
C      1  0.5142260000000  0.4720830000000  0.5406010000000 1.0
C      1  0.5258470000000  0.4548620000000  0.5189540000000 1.0
C      1  0.4848510000000  0.4890360000000  0.4346180000000 1.0
C      1  0.4798410000000  0.5291510000000  0.4604230000000 1.0
C      1  0.5283770000000  0.5474440000000  0.5233790000000 1.0
C      1  0.4545240000000  0.5281750000000  0.5015590000000 1.0
C      1  0.4699660000000  0.4531470000000  0.5306490000000 1.0
C      1  0.4598150000000  0.5217820000000  0.5289260000000 1.0
C      1  0.5025960000000  0.5408410000000  0.4476300000000 1.0
C      1  0.4499320000000  0.4922780000000  0.4625450000000 1.0
C      1  0.5550370000000  0.4715350000000  0.4825280000000 1.0
C      1  0.5081890000000  0.5175270000000  0.5550860000000 1.0
END
