TITL C-20255-1578-2 -0.12702860082847 125000 -768.391949139761 0 0 108 (C1) n - 1
REM
REM in /rds/project/t2_vol4/rds-t2-cs072/BORA/CARBON/from-Arr/AIRSS/Generating-Clusters/GAP-ML-2020/Only-C1/SD-CG/HFTN-CG
REM
REM
REM
REM
REM
REM ./C.cell (11c1c37f851c82e70ff6c80c92926a4b)
REM AIRSS Version 0.9.1 bugfix July 2018 build 013d7b7c2542+ Fri, 06 Jul 2018 19:26:36 +0100
REM compiler GCC version 9.3.0
REM options -cpp -mtune=generic -march=x86-64 -g -O0
REM seed 1268825833 92638628 1878588140 -1331362186 -1760905616 1755423215 -231743247 1647265269 765988736 -1679372845 1267595857 627843578 -43070880 -633080222 1154510424 -592370334 -210488289 804596410 718507737 -121425162 -320127105 -761978434 1727313144 -2068132070 -317687054 -1302095180 890757450 -1104364832 -1074240892 -588830516 -415194457 -39040274 -961383454
REM
CELL 1.54180   50.00000   50.00000   50.00000   90.00000   90.00000   90.00000
LATT -1
SFAC C  
C      1  0.4708050000000  0.5334330000000  0.5696490000000 1.0
C      1  0.5321020000000  0.5031620000000  0.5323520000000 1.0
C      1  0.4849880000000  0.4793750000000  0.5082660000000 1.0
C      1  0.4706890000000  0.4392200000000  0.5684310000000 1.0
C      1  0.5110540000000  0.5602460000000  0.4397160000000 1.0
C      1  0.4346000000000  0.5449180000000  0.5322020000000 1.0
C      1  0.5418150000000  0.4312200000000  0.4500340000000 1.0
C      1  0.5284210000000  0.5815040000000  0.5021800000000 1.0
C      1  0.5207830000000  0.5297110000000  0.5794330000000 1.0
C      1  0.5921150000000  0.4937370000000  0.5027210000000 1.0
C      1  0.4464500000000  0.4859120000000  0.5783760000000 1.0
C      1  0.4997470000000  0.4245940000000  0.5316820000000 1.0
C      1  0.4584700000000  0.4278030000000  0.4715200000000 1.0
C      1  0.5171920000000  0.4201070000000  0.4573150000000 1.0
C      1  0.4740080000000  0.4844140000000  0.4635540000000 1.0
C      1  0.5364500000000  0.5447190000000  0.5591220000000 1.0
C      1  0.5011000000000  0.5711230000000  0.5720370000000 1.0
C      1  0.4965640000000  0.5453020000000  0.5825090000000 1.0
C      1  0.4505550000000  0.5527410000000  0.5545680000000 1.0
C      1  0.4498480000000  0.5101280000000  0.5089480000000 1.0
C      1  0.5767460000000  0.5085610000000  0.4488840000000 1.0
C      1  0.5518350000000  0.5668580000000  0.4914780000000 1.0
C      1  0.4341730000000  0.4879580000000  0.5526550000000 1.0
C      1  0.4540870000000  0.4298260000000  0.5192520000000 1.0
C      1  0.4699530000000  0.5718820000000  0.4744080000000 1.0
C      1  0.5472010000000  0.4371830000000  0.5225810000000 1.0
C      1  0.5003870000000  0.5407410000000  0.4194120000000 1.0
C      1  0.4967590000000  0.4157160000000  0.5046240000000 1.0
C      1  0.4493710000000  0.5177930000000  0.4273680000000 1.0
C      1  0.4794500000000  0.5239330000000  0.4778760000000 1.0
C      1  0.5585960000000  0.5546410000000  0.4658000000000 1.0
C      1  0.4809640000000  0.5870820000000  0.4963250000000 1.0
C      1  0.5760280000000  0.5252590000000  0.5235890000000 1.0
C      1  0.4903200000000  0.4951450000000  0.5936390000000 1.0
C      1  0.5747110000000  0.4596520000000  0.4725650000000 1.0
C      1  0.5836270000000  0.5210700000000  0.4947520000000 1.0
C      1  0.4680200000000  0.5763790000000  0.5492010000000 1.0
C      1  0.5204680000000  0.4522010000000  0.5665840000000 1.0
C      1  0.4726020000000  0.4298050000000  0.5421130000000 1.0
C      1  0.5433480000000  0.4268710000000  0.4959300000000 1.0
C      1  0.4160320000000  0.4845770000000  0.4888970000000 1.0
C      1  0.5861370000000  0.4993560000000  0.5303970000000 1.0
C      1  0.4554430000000  0.5460130000000  0.4808460000000 1.0
C      1  0.5482830000000  0.5318630000000  0.5339060000000 1.0
C      1  0.5095510000000  0.4717680000000  0.4971100000000 1.0
C      1  0.5161440000000  0.5804990000000  0.5284960000000 1.0
C      1  0.5637690000000  0.5152320000000  0.4248310000000 1.0
C      1  0.5573900000000  0.4369670000000  0.4727570000000 1.0
C      1  0.4587210000000  0.4611680000000  0.5844590000000 1.0
C      1  0.5394070000000  0.4488080000000  0.4281620000000 1.0
C      1  0.4973300000000  0.5360240000000  0.4958550000000 1.0
C      1  0.5182980000000  0.4161840000000  0.4862310000000 1.0
C      1  0.4971120000000  0.4313430000000  0.4384620000000 1.0
C      1  0.5760170000000  0.5303450000000  0.4689780000000 1.0
C      1  0.4309180000000  0.5319840000000  0.4716700000000 1.0
C      1  0.5026930000000  0.5068300000000  0.5393700000000 1.0
C      1  0.4318190000000  0.4451460000000  0.5077980000000 1.0
C      1  0.5237630000000  0.5700330000000  0.5544860000000 1.0
C      1  0.5737830000000  0.4785830000000  0.4507560000000 1.0
C      1  0.4105620000000  0.4844840000000  0.5371750000000 1.0
C      1  0.5037550000000  0.4776130000000  0.4089920000000 1.0
C      1  0.5461470000000  0.5366160000000  0.4220280000000 1.0
C      1  0.4802650000000  0.5880850000000  0.5701660000000 1.0
C      1  0.4909610000000  0.5317870000000  0.5429310000000 1.0
C      1  0.4824330000000  0.4876030000000  0.5350160000000 1.0
C      1  0.3973020000000  0.5089070000000  0.5341520000000 1.0
C      1  0.4703230000000  0.4977120000000  0.4909120000000 1.0
C      1  0.4319100000000  0.5250910000000  0.4459600000000 1.0
C      1  0.5117370000000  0.4512990000000  0.4205510000000 1.0
C      1  0.5405160000000  0.5553120000000  0.4426690000000 1.0
C      1  0.4492870000000  0.4766640000000  0.4483250000000 1.0
C      1  0.4545300000000  0.5403350000000  0.5110990000000 1.0
C      1  0.5244280000000  0.4368160000000  0.5415470000000 1.0
C      1  0.5722070000000  0.4779750000000  0.5423680000000 1.0
C      1  0.5069900000000  0.5875310000000  0.4834490000000 1.0
C      1  0.4286070000000  0.4690810000000  0.4673210000000 1.0
C      1  0.4834810000000  0.5457100000000  0.5191870000000 1.0
C      1  0.4132700000000  0.5270860000000  0.5220280000000 1.0
C      1  0.5306240000000  0.4903330000000  0.5043720000000 1.0
C      1  0.5314620000000  0.4782900000000  0.5740610000000 1.0
C      1  0.4543270000000  0.4962980000000  0.5346970000000 1.0
C      1  0.5173940000000  0.5016260000000  0.5862730000000 1.0
C      1  0.5225100000000  0.5265640000000  0.4089540000000 1.0
C      1  0.5305920000000  0.5075210000000  0.4815980000000 1.0
C      1  0.4357710000000  0.4445580000000  0.4792400000000 1.0
C      1  0.4848880000000  0.4674530000000  0.5955470000000 1.0
C      1  0.5581470000000  0.4700330000000  0.4280100000000 1.0
C      1  0.5234970000000  0.5321580000000  0.4918090000000 1.0
C      1  0.4525550000000  0.4883710000000  0.4225120000000 1.0
C      1  0.5485530000000  0.4875090000000  0.5541080000000 1.0
C      1  0.5431300000000  0.5458480000000  0.5086010000000 1.0
C      1  0.5158620000000  0.4976290000000  0.4591840000000 1.0
C      1  0.5818180000000  0.4671820000000  0.4986380000000 1.0
C      1  0.4795510000000  0.5200530000000  0.4252040000000 1.0
C      1  0.4660670000000  0.5080990000000  0.5839810000000 1.0
C      1  0.4228070000000  0.5139840000000  0.4950140000000 1.0
C      1  0.5510920000000  0.4924920000000  0.4130140000000 1.0
C      1  0.4718660000000  0.4275410000000  0.4477940000000 1.0
C      1  0.4969480000000  0.4465000000000  0.5803570000000 1.0
C      1  0.4692800000000  0.4196330000000  0.4972670000000 1.0
C      1  0.5033610000000  0.4731470000000  0.4686260000000 1.0
C      1  0.4887830000000  0.5105080000000  0.4532580000000 1.0
C      1  0.4158830000000  0.4692190000000  0.5128570000000 1.0
C      1  0.4958950000000  0.5748060000000  0.4589590000000 1.0
C      1  0.5248510000000  0.4977960000000  0.4047580000000 1.0
C      1  0.5691780000000  0.4565580000000  0.5226990000000 1.0
C      1  0.4860170000000  0.5762140000000  0.5237340000000 1.0
C      1  0.4795720000000  0.4917290000000  0.4118830000000 1.0
END
