TITL C-20228-1323-3 144.079226086913 125000 -758.603545205746 0 0 108 (C1) n - 1
REM
REM in /rds/project/t2_vol4/rds-t2-cs072/BORA/CARBON/from-Arr/AIRSS/Generating-Clusters/GAP-ML-2020/Only-C1/SD-CG/HFTN-CG
REM
REM
REM
REM
REM
REM ./C.cell (11c1c37f851c82e70ff6c80c92926a4b)
REM AIRSS Version 0.9.1 bugfix July 2018 build 013d7b7c2542+ Fri, 06 Jul 2018 19:26:36 +0100
REM compiler GCC version 9.3.0
REM options -cpp -mtune=generic -march=x86-64 -g -O0
REM seed -1902566631 2075715345 1246099256 -1555024418 1809633614 -1410113244 1119602695 -1126080499 -1054034024 -1509365716 2086983699 -912689476 -2048926371 -487346069 -1676363498 2106426859 -895519675 808942327 -49358053 -1626075088 668438833 -1852454404 -656444713 354621855 1018234282 -108306752 2122368949 427423077 69336709 681144666 -1157996601 -241482237 -2079199370
REM
CELL 1.54180   50.00000   50.00000   50.00000   90.00000   90.00000   90.00000
LATT -1
SFAC C  
C      1  0.4447870000000  0.5691680000000  0.5021190000000 1.0
C      1  0.5138090000000  0.4781030000000  0.5773270000000 1.0
C      1  0.5692110000000  0.4968160000000  0.4575770000000 1.0
C      1  0.4994770000000  0.4487440000000  0.4774480000000 1.0
C      1  0.5413650000000  0.4470820000000  0.4543140000000 1.0
C      1  0.5105500000000  0.5344210000000  0.5342820000000 1.0
C      1  0.4319960000000  0.5461810000000  0.4563150000000 1.0
C      1  0.4507900000000  0.4394540000000  0.4625210000000 1.0
C      1  0.4392050000000  0.5172470000000  0.4603380000000 1.0
C      1  0.5324100000000  0.5786340000000  0.4715820000000 1.0
C      1  0.5106410000000  0.4526870000000  0.4209370000000 1.0
C      1  0.4780900000000  0.5813830000000  0.5368300000000 1.0
C      1  0.5844310000000  0.4655470000000  0.5231310000000 1.0
C      1  0.4865570000000  0.5724610000000  0.4637110000000 1.0
C      1  0.5554500000000  0.5614130000000  0.5095250000000 1.0
C      1  0.4256610000000  0.4579730000000  0.5054060000000 1.0
C      1  0.4662190000000  0.5052090000000  0.5712820000000 1.0
C      1  0.5558470000000  0.5011630000000  0.5737050000000 1.0
C      1  0.5379410000000  0.4890840000000  0.4295000000000 1.0
C      1  0.5393330000000  0.4762460000000  0.5055620000000 1.0
C      1  0.4528440000000  0.5114760000000  0.4297770000000 1.0
C      1  0.5221950000000  0.5810140000000  0.5456910000000 1.0
C      1  0.4664710000000  0.5188530000000  0.4766500000000 1.0
C      1  0.4172870000000  0.5301350000000  0.5120240000000 1.0
C      1  0.4656570000000  0.4766890000000  0.5666980000000 1.0
C      1  0.4697360000000  0.5810270000000  0.5093080000000 1.0
C      1  0.4489500000000  0.4178670000000  0.5042680000000 1.0
C      1  0.4891950000000  0.5201670000000  0.5779810000000 1.0
C      1  0.4864380000000  0.4022780000000  0.5227610000000 1.0
C      1  0.4714200000000  0.5581640000000  0.5522070000000 1.0
C      1  0.5812890000000  0.5134450000000  0.5295310000000 1.0
C      1  0.5869520000000  0.4928260000000  0.5108580000000 1.0
C      1  0.4377020000000  0.4375760000000  0.4877680000000 1.0
C      1  0.5442260000000  0.4777860000000  0.4570490000000 1.0
C      1  0.4352460000000  0.4518390000000  0.5323450000000 1.0
C      1  0.5011880000000  0.5150140000000  0.4500410000000 1.0
C      1  0.5402340000000  0.4782030000000  0.5626040000000 1.0
C      1  0.4165090000000  0.4843380000000  0.4977370000000 1.0
C      1  0.5181240000000  0.5847800000000  0.4957090000000 1.0
C      1  0.4594060000000  0.5762380000000  0.4541220000000 1.0
C      1  0.5217560000000  0.4258470000000  0.5407170000000 1.0
C      1  0.4253810000000  0.4775060000000  0.4501270000000 1.0
C      1  0.4906510000000  0.5837470000000  0.4904730000000 1.0
C      1  0.4717110000000  0.4025790000000  0.4978800000000 1.0
C      1  0.4943750000000  0.5001970000000  0.4121550000000 1.0
C      1  0.5830690000000  0.4654570000000  0.5500660000000 1.0
C      1  0.4834330000000  0.4965010000000  0.4634560000000 1.0
C      1  0.4847420000000  0.5427960000000  0.4731830000000 1.0
C      1  0.5373660000000  0.5190790000000  0.5852120000000 1.0
C      1  0.5657130000000  0.5414640000000  0.5571970000000 1.0
C      1  0.4846670000000  0.4448000000000  0.4303900000000 1.0
C      1  0.4889630000000  0.4080490000000  0.4764900000000 1.0
C      1  0.5335990000000  0.5774170000000  0.5189250000000 1.0
C      1  0.5148460000000  0.4808480000000  0.4155470000000 1.0
C      1  0.4396030000000  0.5680060000000  0.4746550000000 1.0
C      1  0.5332960000000  0.4390770000000  0.4295800000000 1.0
C      1  0.4500820000000  0.4277380000000  0.5311800000000 1.0
C      1  0.4211500000000  0.4945610000000  0.4703330000000 1.0
C      1  0.4965730000000  0.4356530000000  0.5550130000000 1.0
C      1  0.4680130000000  0.4905610000000  0.4168340000000 1.0
C      1  0.5764190000000  0.5142210000000  0.5583050000000 1.0
C      1  0.5785500000000  0.5218880000000  0.4692550000000 1.0
C      1  0.4300530000000  0.4981000000000  0.5438500000000 1.0
C      1  0.5109020000000  0.5319460000000  0.4715730000000 1.0
C      1  0.5428020000000  0.5452520000000  0.5749080000000 1.0
C      1  0.5132260000000  0.4086560000000  0.5177150000000 1.0
C      1  0.5472970000000  0.4498770000000  0.4986550000000 1.0
C      1  0.4162330000000  0.5038160000000  0.5190360000000 1.0
C      1  0.5364410000000  0.5212690000000  0.5331790000000 1.0
C      1  0.5583740000000  0.4550740000000  0.5595660000000 1.0
C      1  0.5211380000000  0.5499370000000  0.4316210000000 1.0
C      1  0.4452650000000  0.5180580000000  0.5567520000000 1.0
C      1  0.5143400000000  0.5714020000000  0.4501170000000 1.0
C      1  0.5158520000000  0.4113790000000  0.4885590000000 1.0
C      1  0.4992640000000  0.5966480000000  0.5454010000000 1.0
C      1  0.5034060000000  0.4913110000000  0.5265660000000 1.0
C      1  0.5558440000000  0.5646390000000  0.4800750000000 1.0
C      1  0.5324760000000  0.4899630000000  0.5312120000000 1.0
C      1  0.4801290000000  0.4321550000000  0.4584950000000 1.0
C      1  0.5472920000000  0.5386690000000  0.4377250000000 1.0
C      1  0.5869840000000  0.5001810000000  0.4832260000000 1.0
C      1  0.5635740000000  0.5454480000000  0.4611060000000 1.0
C      1  0.5657330000000  0.4416530000000  0.5181830000000 1.0
C      1  0.4413850000000  0.4727960000000  0.5505900000000 1.0
C      1  0.5197540000000  0.5165570000000  0.4917950000000 1.0
C      1  0.4476840000000  0.5444510000000  0.5464420000000 1.0
C      1  0.4673370000000  0.5357920000000  0.4247290000000 1.0
C      1  0.4639900000000  0.4627770000000  0.4239590000000 1.0
C      1  0.5268400000000  0.4885860000000  0.4832160000000 1.0
C      1  0.5208520000000  0.5602570000000  0.5662160000000 1.0
C      1  0.4968700000000  0.5287840000000  0.4246210000000 1.0
C      1  0.4624090000000  0.4897550000000  0.5106980000000 1.0
C      1  0.5300270000000  0.4362120000000  0.4792260000000 1.0
C      1  0.4333060000000  0.5499950000000  0.5211260000000 1.0
C      1  0.4753990000000  0.4197240000000  0.5424080000000 1.0
C      1  0.4428370000000  0.4583360000000  0.4429940000000 1.0
C      1  0.4698070000000  0.5156190000000  0.5049400000000 1.0
C      1  0.4911200000000  0.4613880000000  0.5692840000000 1.0
C      1  0.4508060000000  0.5556700000000  0.4359750000000 1.0
C      1  0.5623400000000  0.5379090000000  0.5271630000000 1.0
C      1  0.4980250000000  0.5181140000000  0.5148940000000 1.0
C      1  0.4873610000000  0.4469930000000  0.5049330000000 1.0
C      1  0.4988260000000  0.4784480000000  0.4791500000000 1.0
C      1  0.5116680000000  0.5054560000000  0.5858480000000 1.0
C      1  0.5543990000000  0.5113610000000  0.4341750000000 1.0
C      1  0.4954160000000  0.5437440000000  0.5616280000000 1.0
C      1  0.5497150000000  0.4345260000000  0.5419870000000 1.0
C      1  0.4864060000000  0.4745950000000  0.5089670000000 1.0
END
