TITL C-20229-1212-8 -0.170755632200267 125000 -862.863912956529 0 0 124 (C1) n - 1
REM
REM in /rds/project/t2_vol4/rds-t2-cs072/BORA/CARBON/from-Arr/AIRSS/Generating-Clusters/GAP-ML-2020/Only-C1/SD-CG/HFTN-CG
REM
REM
REM
REM
REM
REM ./C.cell (11c1c37f851c82e70ff6c80c92926a4b)
REM AIRSS Version 0.9.1 bugfix July 2018 build 013d7b7c2542+ Fri, 06 Jul 2018 19:26:36 +0100
REM compiler GCC version 9.3.0
REM options -cpp -mtune=generic -march=x86-64 -g -O0
REM seed -701467753 797148098 943074090 1730345743 -1216823773 -1952556865 1882962395 -99423359 1094549387 1978823135 536849140 341355101 -629547025 -654730561 -211932603 -1821156294 178548008 690131971 1478557103 -1013184688 1819009036 -983097886 -1776106334 -1607023101 1165748230 -1019598278 1212944342 289918457 -1916743950 764905113 -1442497191 -1531226049 1587703436
REM
CELL 1.54180   50.00000   50.00000   50.00000   90.00000   90.00000   90.00000
LATT -1
SFAC C  
C      1  0.5371300000000  0.4361380000000  0.4365900000000 1.0
C      1  0.5141280000000  0.4206380000000  0.4983050000000 1.0
C      1  0.5161740000000  0.4435350000000  0.4186690000000 1.0
C      1  0.5871680000000  0.4525410000000  0.4918800000000 1.0
C      1  0.4078630000000  0.5065180000000  0.5337800000000 1.0
C      1  0.4486960000000  0.4777010000000  0.4574260000000 1.0
C      1  0.4461470000000  0.4863410000000  0.5155470000000 1.0
C      1  0.4984050000000  0.5152960000000  0.5362690000000 1.0
C      1  0.4259970000000  0.5617280000000  0.5322800000000 1.0
C      1  0.5703200000000  0.5012160000000  0.5806200000000 1.0
C      1  0.4570500000000  0.5150040000000  0.5141770000000 1.0
C      1  0.4881020000000  0.4011790000000  0.4554530000000 1.0
C      1  0.4609110000000  0.5731410000000  0.5026110000000 1.0
C      1  0.5011810000000  0.4263410000000  0.5231110000000 1.0
C      1  0.4991120000000  0.4347190000000  0.5690940000000 1.0
C      1  0.5751620000000  0.5558730000000  0.5134940000000 1.0
C      1  0.5769780000000  0.5249210000000  0.4471010000000 1.0
C      1  0.5695840000000  0.4992300000000  0.4888840000000 1.0
C      1  0.5693440000000  0.4779000000000  0.5354730000000 1.0
C      1  0.5120670000000  0.5474910000000  0.4225940000000 1.0
C      1  0.5828300000000  0.4750490000000  0.4750510000000 1.0
C      1  0.4268500000000  0.5536240000000  0.4824600000000 1.0
C      1  0.4748140000000  0.5317920000000  0.5293490000000 1.0
C      1  0.5884830000000  0.4525210000000  0.5362920000000 1.0
C      1  0.5333330000000  0.5194940000000  0.4626370000000 1.0
C      1  0.5485850000000  0.4633410000000  0.4383190000000 1.0
C      1  0.4949690000000  0.5530670000000  0.5824020000000 1.0
C      1  0.5138810000000  0.4741700000000  0.5426500000000 1.0
C      1  0.4578990000000  0.5019930000000  0.4127070000000 1.0
C      1  0.6042440000000  0.4520070000000  0.5138200000000 1.0
C      1  0.5448860000000  0.5343690000000  0.5542050000000 1.0
C      1  0.5317140000000  0.4731520000000  0.4611090000000 1.0
C      1  0.5327480000000  0.4215130000000  0.4603210000000 1.0
C      1  0.4906030000000  0.5013120000000  0.4495040000000 1.0
C      1  0.4719220000000  0.4788590000000  0.4018460000000 1.0
C      1  0.4490970000000  0.5710090000000  0.4778770000000 1.0
C      1  0.5202880000000  0.5170130000000  0.5594930000000 1.0
C      1  0.5576210000000  0.5253590000000  0.5822590000000 1.0
C      1  0.5307300000000  0.5599510000000  0.5507420000000 1.0
C      1  0.4515600000000  0.4303660000000  0.5104240000000 1.0
C      1  0.5664150000000  0.4307280000000  0.5331720000000 1.0
C      1  0.4715960000000  0.4625130000000  0.4733020000000 1.0
C      1  0.5173530000000  0.5653270000000  0.4452400000000 1.0
C      1  0.5443770000000  0.4249960000000  0.5482040000000 1.0
C      1  0.4319940000000  0.5100100000000  0.5747520000000 1.0
C      1  0.4768340000000  0.5211730000000  0.4022650000000 1.0
C      1  0.5371250000000  0.5360990000000  0.5088670000000 1.0
C      1  0.5115700000000  0.4481720000000  0.5893400000000 1.0
C      1  0.5510300000000  0.4617930000000  0.5180310000000 1.0
C      1  0.4932610000000  0.4983960000000  0.3955520000000 1.0
C      1  0.4929760000000  0.4506260000000  0.4565480000000 1.0
C      1  0.5039570000000  0.4212640000000  0.4694990000000 1.0
C      1  0.5396120000000  0.5834700000000  0.4839850000000 1.0
C      1  0.4731610000000  0.4728010000000  0.5190540000000 1.0
C      1  0.4839480000000  0.5432040000000  0.4178400000000 1.0
C      1  0.4839280000000  0.4859370000000  0.5887370000000 1.0
C      1  0.5373390000000  0.5302910000000  0.6003660000000 1.0
C      1  0.5748870000000  0.5012110000000  0.4355660000000 1.0
C      1  0.5618410000000  0.4380070000000  0.5029600000000 1.0
C      1  0.4744520000000  0.4454630000000  0.5584130000000 1.0
C      1  0.4638970000000  0.4705240000000  0.5726210000000 1.0
C      1  0.4247930000000  0.4810940000000  0.5386230000000 1.0
C      1  0.5247100000000  0.4699420000000  0.5171830000000 1.0
C      1  0.4516050000000  0.4395820000000  0.4812250000000 1.0
C      1  0.4585050000000  0.5021290000000  0.4425530000000 1.0
C      1  0.5198960000000  0.4985940000000  0.4048620000000 1.0
C      1  0.4671150000000  0.4558490000000  0.4160590000000 1.0
C      1  0.5039370000000  0.5228080000000  0.4624250000000 1.0
C      1  0.5710920000000  0.5029710000000  0.5185820000000 1.0
C      1  0.4847690000000  0.4819850000000  0.4928870000000 1.0
C      1  0.5311080000000  0.5645770000000  0.5223530000000 1.0
C      1  0.5172120000000  0.4896000000000  0.4980430000000 1.0
C      1  0.4397920000000  0.4845690000000  0.5655620000000 1.0
C      1  0.4715560000000  0.4150370000000  0.4392650000000 1.0
C      1  0.4970360000000  0.5779230000000  0.4615020000000 1.0
C      1  0.4127010000000  0.5218930000000  0.5557640000000 1.0
C      1  0.4504400000000  0.4297260000000  0.4518690000000 1.0
C      1  0.4662930000000  0.5927130000000  0.5421860000000 1.0
C      1  0.4839080000000  0.5538960000000  0.5083480000000 1.0
C      1  0.5065490000000  0.4760560000000  0.4470390000000 1.0
C      1  0.4082370000000  0.5200140000000  0.5085700000000 1.0
C      1  0.5408150000000  0.5647880000000  0.4632840000000 1.0
C      1  0.4692400000000  0.5702430000000  0.4570040000000 1.0
C      1  0.4251320000000  0.5474410000000  0.5569590000000 1.0
C      1  0.4258540000000  0.4534460000000  0.4879610000000 1.0
C      1  0.5410310000000  0.4233610000000  0.4882680000000 1.0
C      1  0.4458710000000  0.5283650000000  0.4465720000000 1.0
C      1  0.4875550000000  0.4375650000000  0.4253100000000 1.0
C      1  0.4921620000000  0.5856150000000  0.5420640000000 1.0
C      1  0.4153740000000  0.5082090000000  0.4832120000000 1.0
C      1  0.4941920000000  0.5298650000000  0.4897050000000 1.0
C      1  0.4746380000000  0.4413690000000  0.5276380000000 1.0
C      1  0.4160620000000  0.5479680000000  0.5086820000000 1.0
C      1  0.5463020000000  0.5391670000000  0.4788810000000 1.0
C      1  0.4476220000000  0.5801010000000  0.5266050000000 1.0
C      1  0.5582240000000  0.4839680000000  0.5630980000000 1.0
C      1  0.4436920000000  0.5368160000000  0.5784880000000 1.0
C      1  0.4303310000000  0.4820260000000  0.4840470000000 1.0
C      1  0.5239550000000  0.4726920000000  0.4202180000000 1.0
C      1  0.5897560000000  0.5458750000000  0.4933570000000 1.0
C      1  0.4890530000000  0.4875950000000  0.5392790000000 1.0
C      1  0.5137900000000  0.5176200000000  0.5099040000000 1.0
C      1  0.5388410000000  0.4947050000000  0.4777070000000 1.0
C      1  0.4145560000000  0.4540730000000  0.5346950000000 1.0
C      1  0.5750680000000  0.4751190000000  0.4459880000000 1.0
C      1  0.5280780000000  0.4876870000000  0.5647880000000 1.0
C      1  0.5168470000000  0.4246370000000  0.5471830000000 1.0
C      1  0.4466160000000  0.4541120000000  0.4376170000000 1.0
C      1  0.5750360000000  0.5278720000000  0.4765630000000 1.0
C      1  0.5603320000000  0.5296440000000  0.5272710000000 1.0
C      1  0.5112080000000  0.4753250000000  0.5875060000000 1.0
C      1  0.5540730000000  0.5758390000000  0.5084430000000 1.0
C      1  0.5118510000000  0.5287510000000  0.5877080000000 1.0
C      1  0.4854950000000  0.5133920000000  0.5937920000000 1.0
C      1  0.5061570000000  0.5697370000000  0.5621320000000 1.0
C      1  0.4257300000000  0.5299340000000  0.4667590000000 1.0
C      1  0.5495610000000  0.5208570000000  0.4365290000000 1.0
C      1  0.5111970000000  0.5856800000000  0.4863180000000 1.0
C      1  0.4705240000000  0.5379910000000  0.5881470000000 1.0
C      1  0.5300340000000  0.5243110000000  0.4156520000000 1.0
C      1  0.4251070000000  0.4407800000000  0.5144520000000 1.0
C      1  0.4732790000000  0.5101210000000  0.4916070000000 1.0
C      1  0.4641920000000  0.5497210000000  0.4382110000000 1.0
C      1  0.5041890000000  0.5752470000000  0.5143630000000 1.0
END
