TITL C-20277-281-5 -0.210282417575917 125000 -575.334549962398 0 0 84 (C1) n - 1
REM
REM in /rds/project/t2_vol4/rds-t2-cs072/BORA/CARBON/from-Arr/AIRSS/Generating-Clusters/GAP-ML-2020/Only-C1/SD-CG/HFTN-CG
REM
REM
REM
REM
REM
REM ./C.cell (11c1c37f851c82e70ff6c80c92926a4b)
REM AIRSS Version 0.9.1 bugfix July 2018 build 013d7b7c2542+ Fri, 06 Jul 2018 19:26:36 +0100
REM compiler GCC version 9.3.0
REM options -cpp -mtune=generic -march=x86-64 -g -O0
REM seed 1301888149 21527823 -489051272 88957919 1826297603 -1193515797 595772083 -247629416 -447238824 -2038306412 -44960974 -137894512 195569059 -1746282005 -159336272 581618313 -1010895564 -1822203582 -1385192862 -645603971 541333183 -1835694110 2011319642 1349118247 -500892576 2092349665 1307047973 -1752232435 2078752364 1437974525 899524287 1757717075 -1813888154
REM
CELL 1.54180   50.00000   50.00000   50.00000   90.00000   90.00000   90.00000
LATT -1
SFAC C  
C      1  0.5527510000000  0.4960260000000  0.5625700000000 1.0
C      1  0.4344730000000  0.4442230000000  0.5139840000000 1.0
C      1  0.5119150000000  0.4835820000000  0.5133970000000 1.0
C      1  0.5315730000000  0.4401860000000  0.5278830000000 1.0
C      1  0.4303630000000  0.5663950000000  0.5244490000000 1.0
C      1  0.4346900000000  0.4907000000000  0.5102980000000 1.0
C      1  0.5054810000000  0.5609370000000  0.4286360000000 1.0
C      1  0.4660860000000  0.4854410000000  0.5044280000000 1.0
C      1  0.4873530000000  0.4871370000000  0.5729350000000 1.0
C      1  0.4273850000000  0.4784560000000  0.4826850000000 1.0
C      1  0.5787880000000  0.5223590000000  0.5308560000000 1.0
C      1  0.5651870000000  0.5073260000000  0.4354250000000 1.0
C      1  0.5229220000000  0.5529470000000  0.5078810000000 1.0
C      1  0.4678590000000  0.4709240000000  0.4318950000000 1.0
C      1  0.4350470000000  0.4902280000000  0.4573880000000 1.0
C      1  0.4853740000000  0.5121670000000  0.5551270000000 1.0
C      1  0.5278500000000  0.5302920000000  0.4490090000000 1.0
C      1  0.5289640000000  0.5419100000000  0.5625370000000 1.0
C      1  0.4558470000000  0.5128270000000  0.5638660000000 1.0
C      1  0.5030390000000  0.4612780000000  0.4946530000000 1.0
C      1  0.4740260000000  0.4575380000000  0.4988030000000 1.0
C      1  0.4859620000000  0.4989180000000  0.5238270000000 1.0
C      1  0.5036050000000  0.5362720000000  0.5513350000000 1.0
C      1  0.4610590000000  0.4337580000000  0.5206360000000 1.0
C      1  0.4920520000000  0.4278740000000  0.4571940000000 1.0
C      1  0.5721570000000  0.4620860000000  0.4999160000000 1.0
C      1  0.5656520000000  0.5640820000000  0.5047000000000 1.0
C      1  0.5148870000000  0.4678560000000  0.4618200000000 1.0
C      1  0.4504130000000  0.5369250000000  0.4711690000000 1.0
C      1  0.5245320000000  0.5032410000000  0.4938520000000 1.0
C      1  0.5327420000000  0.4757910000000  0.5598290000000 1.0
C      1  0.4587560000000  0.4841960000000  0.5707820000000 1.0
C      1  0.4490050000000  0.4640410000000  0.5531520000000 1.0
C      1  0.5373190000000  0.4848170000000  0.4717370000000 1.0
C      1  0.5390370000000  0.5272180000000  0.5014610000000 1.0
C      1  0.4710080000000  0.4475670000000  0.4480060000000 1.0
C      1  0.4756840000000  0.4973880000000  0.4788430000000 1.0
C      1  0.5785360000000  0.5221860000000  0.4521400000000 1.0
C      1  0.5546220000000  0.4605550000000  0.4793780000000 1.0
C      1  0.5504980000000  0.5237100000000  0.5694440000000 1.0
C      1  0.5387530000000  0.5693190000000  0.4639130000000 1.0
C      1  0.5775210000000  0.5365000000000  0.4753700000000 1.0
C      1  0.5349870000000  0.4686400000000  0.5316510000000 1.0
C      1  0.4645860000000  0.5777500000000  0.4829880000000 1.0
C      1  0.4628730000000  0.5589940000000  0.4602240000000 1.0
C      1  0.5713030000000  0.4956070000000  0.5393010000000 1.0
C      1  0.4344780000000  0.5291580000000  0.5601130000000 1.0
C      1  0.5367590000000  0.5027870000000  0.4443780000000 1.0
C      1  0.4736930000000  0.5182140000000  0.4360540000000 1.0
C      1  0.4545680000000  0.5349800000000  0.5005050000000 1.0
C      1  0.5067260000000  0.4674230000000  0.5694590000000 1.0
C      1  0.5105980000000  0.4265550000000  0.5404150000000 1.0
C      1  0.4490540000000  0.5657350000000  0.5056560000000 1.0
C      1  0.5223910000000  0.4341550000000  0.5006250000000 1.0
C      1  0.5046420000000  0.5369080000000  0.4654300000000 1.0
C      1  0.5692470000000  0.5319310000000  0.5042900000000 1.0
C      1  0.4773020000000  0.4138780000000  0.5059830000000 1.0
C      1  0.5119470000000  0.4861950000000  0.4382680000000 1.0
C      1  0.5039620000000  0.4155200000000  0.5145350000000 1.0
C      1  0.5009970000000  0.5441710000000  0.5242820000000 1.0
C      1  0.4266040000000  0.5388490000000  0.5355760000000 1.0
C      1  0.4982420000000  0.5156940000000  0.4838940000000 1.0
C      1  0.5485620000000  0.5591840000000  0.5482170000000 1.0
C      1  0.4318460000000  0.4505250000000  0.4861920000000 1.0
C      1  0.5444600000000  0.5684920000000  0.5222570000000 1.0
C      1  0.4847970000000  0.5458580000000  0.4430470000000 1.0
C      1  0.5308550000000  0.5579820000000  0.4381010000000 1.0
C      1  0.5641950000000  0.4738870000000  0.5229620000000 1.0
C      1  0.4907710000000  0.5807650000000  0.4810320000000 1.0
C      1  0.4554430000000  0.5120920000000  0.4586300000000 1.0
C      1  0.4333670000000  0.5196620000000  0.5146060000000 1.0
C      1  0.5387550000000  0.4357580000000  0.4774920000000 1.0
C      1  0.4845790000000  0.5260930000000  0.5086250000000 1.0
C      1  0.5180280000000  0.4386730000000  0.4580000000000 1.0
C      1  0.4948000000000  0.4431910000000  0.5570840000000 1.0
C      1  0.4315350000000  0.4671130000000  0.5299780000000 1.0
C      1  0.4865840000000  0.4938800000000  0.4286300000000 1.0
C      1  0.5134780000000  0.5631470000000  0.4806580000000 1.0
C      1  0.4404050000000  0.4763450000000  0.4346810000000 1.0
C      1  0.5629030000000  0.5631090000000  0.4766960000000 1.0
C      1  0.5697330000000  0.5394780000000  0.5529300000000 1.0
C      1  0.4676260000000  0.4433490000000  0.5475450000000 1.0
C      1  0.4571770000000  0.4427160000000  0.4738120000000 1.0
C      1  0.4743720000000  0.4183780000000  0.4779870000000 1.0
END
