TITL C-20230-5424-3 0.07179383724924 125000 -546.319807577258 0 0 79 (C1) n - 1
REM
REM in /rds/project/t2_vol4/rds-t2-cs072/BORA/CARBON/from-Arr/AIRSS/Generating-Clusters/GAP-ML-2020/Only-C1/SD-CG/HFTN-CG
REM
REM
REM
REM
REM
REM ./C.cell (11c1c37f851c82e70ff6c80c92926a4b)
REM AIRSS Version 0.9.1 bugfix July 2018 build 013d7b7c2542+ Fri, 06 Jul 2018 19:26:36 +0100
REM compiler GCC version 9.3.0
REM options -cpp -mtune=generic -march=x86-64 -g -O0
REM seed 1633264324 1523322022 1639190644 -2002966920 1625543061 2061560406 -462437917 411201703 -1358177375 974331959 1213258464 1426759004 293631041 -351242772 -2021785120 -662830904 1583570564 1288253264 -955966099 -737175674 877966738 1310207453 -2138848636 1505646549 -1047560784 478425249 -1740866260 1265125788 692088997 1164462470 -1639710630 -966842892 537990169
REM
CELL 1.54180   50.00000   50.00000   50.00000   90.00000   90.00000   90.00000
LATT -1
SFAC C  
C      1  0.4537900000000  0.4866040000000  0.5557320000000 1.0
C      1  0.5245170000000  0.4453700000000  0.5468060000000 1.0
C      1  0.5668320000000  0.5042350000000  0.5329200000000 1.0
C      1  0.4756910000000  0.5105830000000  0.4382440000000 1.0
C      1  0.4600550000000  0.4863120000000  0.4392040000000 1.0
C      1  0.5106680000000  0.4308130000000  0.5022140000000 1.0
C      1  0.4228090000000  0.5243300000000  0.5078960000000 1.0
C      1  0.5088590000000  0.5007340000000  0.5750160000000 1.0
C      1  0.5379880000000  0.4379020000000  0.4942980000000 1.0
C      1  0.4786980000000  0.5101990000000  0.5170360000000 1.0
C      1  0.5573890000000  0.4521100000000  0.5100240000000 1.0
C      1  0.5070010000000  0.4812970000000  0.4564870000000 1.0
C      1  0.5276230000000  0.5289790000000  0.5409710000000 1.0
C      1  0.5816070000000  0.4952900000000  0.5114910000000 1.0
C      1  0.5055350000000  0.5073170000000  0.4422640000000 1.0
C      1  0.4383850000000  0.4587060000000  0.5185450000000 1.0
C      1  0.5549610000000  0.4946960000000  0.4533770000000 1.0
C      1  0.4711990000000  0.5537770000000  0.4673950000000 1.0
C      1  0.4801460000000  0.4725710000000  0.5513770000000 1.0
C      1  0.4524500000000  0.4380610000000  0.5310220000000 1.0
C      1  0.5116840000000  0.5378270000000  0.5128880000000 1.0
C      1  0.4941790000000  0.5654920000000  0.4568350000000 1.0
C      1  0.4437650000000  0.5581650000000  0.5366820000000 1.0
C      1  0.4359640000000  0.4914140000000  0.4510260000000 1.0
C      1  0.4337970000000  0.4824570000000  0.5360510000000 1.0
C      1  0.5484510000000  0.4859230000000  0.5441650000000 1.0
C      1  0.5487550000000  0.5251950000000  0.4583600000000 1.0
C      1  0.4601190000000  0.5313500000000  0.4513000000000 1.0
C      1  0.4773910000000  0.4444660000000  0.5390880000000 1.0
C      1  0.5228700000000  0.5005560000000  0.5489120000000 1.0
C      1  0.5455000000000  0.4839770000000  0.4265940000000 1.0
C      1  0.5172070000000  0.5547150000000  0.4500550000000 1.0
C      1  0.4685140000000  0.4607950000000  0.4464450000000 1.0
C      1  0.4635170000000  0.5525200000000  0.4959180000000 1.0
C      1  0.5178260000000  0.4537280000000  0.5724510000000 1.0
C      1  0.5263990000000  0.5050780000000  0.4193310000000 1.0
C      1  0.4512130000000  0.5131580000000  0.5663390000000 1.0
C      1  0.5144000000000  0.5457410000000  0.5615750000000 1.0
C      1  0.5089430000000  0.4775760000000  0.5065240000000 1.0
C      1  0.4693480000000  0.4551020000000  0.4762310000000 1.0
C      1  0.4814820000000  0.5397680000000  0.5185130000000 1.0
C      1  0.5641690000000  0.5327690000000  0.4827810000000 1.0
C      1  0.5363360000000  0.5295770000000  0.4136150000000 1.0
C      1  0.4730650000000  0.5531940000000  0.5445930000000 1.0
C      1  0.5407260000000  0.5459360000000  0.4349160000000 1.0
C      1  0.5168430000000  0.5777340000000  0.5287380000000 1.0
C      1  0.5297190000000  0.4935780000000  0.4946560000000 1.0
C      1  0.5127430000000  0.5184560000000  0.4898710000000 1.0
C      1  0.4722130000000  0.5325800000000  0.5677110000000 1.0
C      1  0.5342410000000  0.4793000000000  0.4678920000000 1.0
C      1  0.4955910000000  0.4584910000000  0.4409840000000 1.0
C      1  0.4843460000000  0.5061960000000  0.4893970000000 1.0
C      1  0.5338610000000  0.4379510000000  0.4436400000000 1.0
C      1  0.5768500000000  0.4873220000000  0.4720320000000 1.0
C      1  0.4997250000000  0.5680220000000  0.5491610000000 1.0
C      1  0.4385560000000  0.5500540000000  0.5091080000000 1.0
C      1  0.4993100000000  0.4733330000000  0.5751880000000 1.0
C      1  0.4900500000000  0.4785500000000  0.4821360000000 1.0
C      1  0.5185110000000  0.5263410000000  0.4621640000000 1.0
C      1  0.4224720000000  0.5110040000000  0.4838430000000 1.0
C      1  0.4932900000000  0.4349820000000  0.4788510000000 1.0
C      1  0.5816390000000  0.5110460000000  0.4875850000000 1.0
C      1  0.5554340000000  0.5303060000000  0.5305860000000 1.0
C      1  0.4353970000000  0.5192380000000  0.4592140000000 1.0
C      1  0.5408590000000  0.4576260000000  0.4252640000000 1.0
C      1  0.4212110000000  0.5083850000000  0.5319840000000 1.0
C      1  0.5034470000000  0.4348600000000  0.5296730000000 1.0
C      1  0.5073540000000  0.4363680000000  0.4540520000000 1.0
C      1  0.5746510000000  0.4708210000000  0.4971270000000 1.0
C      1  0.4973010000000  0.4900220000000  0.5311710000000 1.0
C      1  0.4243150000000  0.5512910000000  0.5538140000000 1.0
C      1  0.4978850000000  0.5266770000000  0.5765550000000 1.0
C      1  0.5396290000000  0.4494100000000  0.4686840000000 1.0
C      1  0.5299490000000  0.5617130000000  0.5112570000000 1.0
C      1  0.4421970000000  0.4604260000000  0.4897190000000 1.0
C      1  0.5554160000000  0.5460180000000  0.5070010000000 1.0
C      1  0.4277510000000  0.5245730000000  0.5547950000000 1.0
C      1  0.5473440000000  0.4589040000000  0.5356860000000 1.0
C      1  0.4280740000000  0.4820580000000  0.4769550000000 1.0
END
