TITL C-200308-9686-1 22.0039513621915 125000 -431.396472019764 0 0 61 (C1) n - 1
REM
REM in /rds/project/t2_vol4/rds-t2-cs072/BORA/CARBON/from-Arr/AIRSS/Generating-Clusters/GAP-ML-2020/Only-C1/SD-CG/HFTN-CG
REM
REM
REM
REM
REM
REM ./C.cell (11c1c37f851c82e70ff6c80c92926a4b)
REM AIRSS Version 0.9.1 bugfix July 2018 build 013d7b7c2542+ Fri, 06 Jul 2018 19:26:36 +0100
REM compiler GCC version 9.3.0
REM options -cpp -mtune=generic -march=x86-64 -g -O0
REM seed 1931664789 -1201793952 -1697679038 1678813691 -1726674483 -1343959028 1267130499 -406150676 -1562690772 -1957648814 -1877196029 973100960 862263196 1770851636 -962451216 21206586 459283221 -977841282 -187164548 106633210 -2082670136 418241415 1251128830 1518629459 159316979 1306916109 -1474018627 -527969477 -1419472769 -1611449909 -629223993 -751333407 -1235071384
REM
CELL 1.54180   50.00000   50.00000   50.00000   90.00000   90.00000   90.00000
LATT -1
SFAC C  
C      1  0.5536930000000  0.4552280000000  0.5031180000000 1.0
C      1  0.4907350000000  0.5092730000000  0.5174950000000 1.0
C      1  0.5016680000000  0.4920440000000  0.4740750000000 1.0
C      1  0.5290990000000  0.5582070000000  0.5369380000000 1.0
C      1  0.4768930000000  0.4457990000000  0.4676930000000 1.0
C      1  0.4581450000000  0.4860710000000  0.4496500000000 1.0
C      1  0.4428670000000  0.4889200000000  0.5202870000000 1.0
C      1  0.5461010000000  0.4831720000000  0.5439310000000 1.0
C      1  0.5053970000000  0.4386430000000  0.4695080000000 1.0
C      1  0.5423420000000  0.5322540000000  0.5390520000000 1.0
C      1  0.4339110000000  0.5365080000000  0.5290030000000 1.0
C      1  0.4574190000000  0.5303100000000  0.4629080000000 1.0
C      1  0.4425260000000  0.4884450000000  0.4736740000000 1.0
C      1  0.5427840000000  0.4733250000000  0.4551000000000 1.0
C      1  0.4742880000000  0.4634340000000  0.4458980000000 1.0
C      1  0.4887770000000  0.5354830000000  0.5184010000000 1.0
C      1  0.4941020000000  0.5205510000000  0.4350150000000 1.0
C      1  0.4600300000000  0.4477500000000  0.4919610000000 1.0
C      1  0.5100170000000  0.5041240000000  0.5655310000000 1.0
C      1  0.4444520000000  0.4716070000000  0.4965530000000 1.0
C      1  0.4892490000000  0.5225050000000  0.5639260000000 1.0
C      1  0.5027770000000  0.5702290000000  0.5414880000000 1.0
C      1  0.5270970000000  0.4632390000000  0.5522470000000 1.0
C      1  0.5574500000000  0.5192950000000  0.4880700000000 1.0
C      1  0.4926600000000  0.4172890000000  0.5120110000000 1.0
C      1  0.5525630000000  0.5351270000000  0.5112170000000 1.0
C      1  0.5020690000000  0.4946410000000  0.4995910000000 1.0
C      1  0.5003210000000  0.4659260000000  0.4331900000000 1.0
C      1  0.5205070000000  0.5622880000000  0.4880520000000 1.0
C      1  0.4682900000000  0.4323760000000  0.5142540000000 1.0
C      1  0.4542580000000  0.5371830000000  0.5462330000000 1.0
C      1  0.4920260000000  0.5499680000000  0.4945660000000 1.0
C      1  0.5202450000000  0.4546300000000  0.4507610000000 1.0
C      1  0.4677790000000  0.5121100000000  0.4435310000000 1.0
C      1  0.5006990000000  0.5433550000000  0.4495680000000 1.0
C      1  0.4842630000000  0.5466840000000  0.5454680000000 1.0
C      1  0.5360110000000  0.5087760000000  0.5528690000000 1.0
C      1  0.5652860000000  0.4933040000000  0.4947930000000 1.0
C      1  0.4350740000000  0.5153250000000  0.5105230000000 1.0
C      1  0.4778130000000  0.5515540000000  0.4665120000000 1.0
C      1  0.5379880000000  0.5012720000000  0.4458820000000 1.0
C      1  0.5031880000000  0.5875770000000  0.4930380000000 1.0
C      1  0.5000260000000  0.5884550000000  0.5214710000000 1.0
C      1  0.5080170000000  0.4800620000000  0.4115130000000 1.0
C      1  0.5249440000000  0.4386300000000  0.5385710000000 1.0
C      1  0.5033080000000  0.4759960000000  0.5628350000000 1.0
C      1  0.5579000000000  0.4705340000000  0.4784310000000 1.0
C      1  0.4764500000000  0.4415920000000  0.5418930000000 1.0
C      1  0.5435660000000  0.5241550000000  0.4628210000000 1.0
C      1  0.5603500000000  0.4782910000000  0.5197230000000 1.0
C      1  0.5389490000000  0.5600430000000  0.5094550000000 1.0
C      1  0.5130280000000  0.4269380000000  0.4943600000000 1.0
C      1  0.4568770000000  0.4872620000000  0.5467220000000 1.0
C      1  0.4789140000000  0.5758920000000  0.4830790000000 1.0
C      1  0.5255950000000  0.5467020000000  0.4629570000000 1.0
C      1  0.4766540000000  0.4672580000000  0.5538860000000 1.0
C      1  0.4403690000000  0.5156530000000  0.4816540000000 1.0
C      1  0.4628370000000  0.5124810000000  0.5581450000000 1.0
C      1  0.5347720000000  0.4368480000000  0.5111570000000 1.0
C      1  0.5145060000000  0.5016330000000  0.4280750000000 1.0
C      1  0.5000760000000  0.4257730000000  0.5396670000000 1.0
END
