TITL C-20665-1363-3 -95.7647580794465 125000 -745.289170089907 0 0 107 (C1) n - 1
REM
REM in /rds/project/t2_vol4/rds-t2-cs072/BORA/CARBON/from-Arr/AIRSS/Generating-Clusters/GAP-ML-2020/Only-C1/SD-CG/HFTN-CG
REM
REM
REM
REM
REM
REM ./C.cell (11c1c37f851c82e70ff6c80c92926a4b)
REM AIRSS Version 0.9.1 bugfix July 2018 build 013d7b7c2542+ Fri, 06 Jul 2018 19:26:36 +0100
REM compiler GCC version 9.3.0
REM options -cpp -mtune=generic -march=x86-64 -g -O0
REM seed 734592081 -2142791747 -155815334 -542504050 -91417716 -195490874 -446093715 -1185674129 -1814556540 -2002057596 1396904889 -767188056 2014766797 -569986206 799889159 -889241934 -1279429889 1638051733 1226201321 591817471 2022180594 13580595 1667463012 -1234938960 213706169 288439732 -1679356241 1463131107 -1306209363 -2020263619 -532007969 23165449 -685975685
REM
CELL 1.54180   50.00000   50.00000   50.00000   90.00000   90.00000   90.00000
LATT -1
SFAC C  
C      1  0.4330530000000  0.4510910000000  0.5335200000000 1.0
C      1  0.4791570000000  0.4868620000000  0.4624500000000 1.0
C      1  0.5164840000000  0.5705360000000  0.4787780000000 1.0
C      1  0.4993490000000  0.5661480000000  0.4542050000000 1.0
C      1  0.5398180000000  0.5125700000000  0.5683770000000 1.0
C      1  0.5649630000000  0.5105540000000  0.5049770000000 1.0
C      1  0.5640490000000  0.5676940000000  0.4591890000000 1.0
C      1  0.5261570000000  0.5261670000000  0.4300750000000 1.0
C      1  0.4361490000000  0.5583420000000  0.4924030000000 1.0
C      1  0.5711580000000  0.4726030000000  0.4480070000000 1.0
C      1  0.4559340000000  0.4893170000000  0.4810860000000 1.0
C      1  0.4677260000000  0.5090810000000  0.5004760000000 1.0
C      1  0.5075640000000  0.5298110000000  0.5028170000000 1.0
C      1  0.4762720000000  0.5247270000000  0.4313440000000 1.0
C      1  0.4774370000000  0.4679520000000  0.5211050000000 1.0
C      1  0.5393170000000  0.4845830000000  0.5779680000000 1.0
C      1  0.4761880000000  0.5305540000000  0.5419350000000 1.0
C      1  0.5574240000000  0.5489280000000  0.5465300000000 1.0
C      1  0.4894090000000  0.4161130000000  0.5168510000000 1.0
C      1  0.5393180000000  0.4372990000000  0.5256320000000 1.0
C      1  0.5581650000000  0.4709070000000  0.5639380000000 1.0
C      1  0.5095310000000  0.4225340000000  0.4525830000000 1.0
C      1  0.4226070000000  0.4698990000000  0.4580660000000 1.0
C      1  0.5198290000000  0.5183590000000  0.4612530000000 1.0
C      1  0.5348070000000  0.4209970000000  0.5021900000000 1.0
C      1  0.4834590000000  0.5274650000000  0.4864060000000 1.0
C      1  0.5491300000000  0.5576320000000  0.5209760000000 1.0
C      1  0.5196560000000  0.5679390000000  0.5270790000000 1.0
C      1  0.5045550000000  0.4511120000000  0.4903450000000 1.0
C      1  0.4244520000000  0.4650930000000  0.5082970000000 1.0
C      1  0.4346580000000  0.5007260000000  0.5343710000000 1.0
C      1  0.4897080000000  0.5153880000000  0.4594960000000 1.0
C      1  0.5683210000000  0.4750280000000  0.5390180000000 1.0
C      1  0.4426490000000  0.5510050000000  0.5187890000000 1.0
C      1  0.5359340000000  0.4765760000000  0.4196040000000 1.0
C      1  0.5023150000000  0.5391330000000  0.5872280000000 1.0
C      1  0.4308620000000  0.4973340000000  0.4663280000000 1.0
C      1  0.5132690000000  0.4732500000000  0.5833930000000 1.0
C      1  0.4434420000000  0.4273620000000  0.5247490000000 1.0
C      1  0.5275790000000  0.5405870000000  0.4833350000000 1.0
C      1  0.4556850000000  0.5157310000000  0.5830900000000 1.0
C      1  0.5260120000000  0.4925370000000  0.4755810000000 1.0
C      1  0.5152810000000  0.5134470000000  0.5451780000000 1.0
C      1  0.4539440000000  0.4674060000000  0.5001760000000 1.0
C      1  0.5560640000000  0.5399020000000  0.4971960000000 1.0
C      1  0.4957840000000  0.4446620000000  0.5189730000000 1.0
C      1  0.5305540000000  0.5366410000000  0.5827820000000 1.0
C      1  0.5041620000000  0.5797080000000  0.5047780000000 1.0
C      1  0.5704540000000  0.5006220000000  0.4391070000000 1.0
C      1  0.4593800000000  0.5724900000000  0.4825800000000 1.0
C      1  0.4563450000000  0.5421100000000  0.4434160000000 1.0
C      1  0.5490430000000  0.4325550000000  0.4799540000000 1.0
C      1  0.5397430000000  0.5584290000000  0.5670350000000 1.0
C      1  0.5090540000000  0.4734110000000  0.4101670000000 1.0
C      1  0.4365950000000  0.4451990000000  0.4590020000000 1.0
C      1  0.4352450000000  0.5272900000000  0.4557950000000 1.0
C      1  0.5725170000000  0.5444250000000  0.4721780000000 1.0
C      1  0.4614340000000  0.5686300000000  0.5298680000000 1.0
C      1  0.5486550000000  0.4571410000000  0.4379350000000 1.0
C      1  0.5016500000000  0.5227660000000  0.4147060000000 1.0
C      1  0.4862770000000  0.4337640000000  0.4395530000000 1.0
C      1  0.5024930000000  0.4601960000000  0.5609600000000 1.0
C      1  0.5472740000000  0.5038150000000  0.4226760000000 1.0
C      1  0.5010980000000  0.4772520000000  0.4811290000000 1.0
C      1  0.5820340000000  0.4998230000000  0.4828550000000 1.0
C      1  0.4449300000000  0.4775330000000  0.5508380000000 1.0
C      1  0.4937760000000  0.5613220000000  0.5716900000000 1.0
C      1  0.5614890000000  0.4542530000000  0.5197120000000 1.0
C      1  0.4724610000000  0.4769840000000  0.4341400000000 1.0
C      1  0.4615940000000  0.4310010000000  0.4564880000000 1.0
C      1  0.5173950000000  0.5717780000000  0.5566440000000 1.0
C      1  0.4178070000000  0.4931780000000  0.5127450000000 1.0
C      1  0.4910010000000  0.4896310000000  0.5080130000000 1.0
C      1  0.4982740000000  0.4087530000000  0.4747670000000 1.0
C      1  0.4703130000000  0.4158810000000  0.4788660000000 1.0
C      1  0.4956770000000  0.4980870000000  0.4027340000000 1.0
C      1  0.4759040000000  0.5785000000000  0.5065380000000 1.0
C      1  0.4889050000000  0.4567980000000  0.4234870000000 1.0
C      1  0.5043750000000  0.5386910000000  0.5309070000000 1.0
C      1  0.4773410000000  0.4772930000000  0.5500110000000 1.0
C      1  0.5432140000000  0.5730660000000  0.4409180000000 1.0
C      1  0.4683280000000  0.5560380000000  0.5573310000000 1.0
C      1  0.4622120000000  0.4159440000000  0.5077970000000 1.0
C      1  0.4493310000000  0.5393050000000  0.5712970000000 1.0
C      1  0.5672050000000  0.4520810000000  0.4913360000000 1.0
C      1  0.5369830000000  0.4352050000000  0.4539200000000 1.0
C      1  0.5413620000000  0.5825870000000  0.4673000000000 1.0
C      1  0.5207540000000  0.5563980000000  0.4353840000000 1.0
C      1  0.5387720000000  0.4951900000000  0.5009150000000 1.0
C      1  0.4205150000000  0.4540050000000  0.4805720000000 1.0
C      1  0.5155650000000  0.4455200000000  0.5404460000000 1.0
C      1  0.4915710000000  0.4866080000000  0.5974340000000 1.0
C      1  0.4160870000000  0.5096740000000  0.4899440000000 1.0
C      1  0.4667780000000  0.4748080000000  0.5963400000000 1.0
C      1  0.4860510000000  0.5138830000000  0.5863650000000 1.0
C      1  0.4232460000000  0.5362380000000  0.4800910000000 1.0
C      1  0.4531430000000  0.5226070000000  0.5245650000000 1.0
C      1  0.5793340000000  0.4720230000000  0.4749170000000 1.0
C      1  0.4484330000000  0.4870230000000  0.5794620000000 1.0
C      1  0.5162640000000  0.5033820000000  0.5174460000000 1.0
C      1  0.5105920000000  0.4063990000000  0.4997820000000 1.0
C      1  0.4712930000000  0.4993920000000  0.4169840000000 1.0
C      1  0.4878910000000  0.5064720000000  0.5565640000000 1.0
C      1  0.5798810000000  0.5179520000000  0.4615390000000 1.0
C      1  0.5630140000000  0.5213450000000  0.5519080000000 1.0
C      1  0.4700810000000  0.5647290000000  0.4570750000000 1.0
C      1  0.5722310000000  0.5032340000000  0.5329480000000 1.0
END
