TITL C-20643-1309-10 186.056482163708 125000 -730.323713984451 0 0 104 (C1) n - 1
REM
REM in /rds/project/t2_vol4/rds-t2-cs072/BORA/CARBON/from-Arr/AIRSS/Generating-Clusters/GAP-ML-2020/Only-C1/SD-CG/HFTN-CG
REM
REM
REM
REM
REM
REM ./C.cell (11c1c37f851c82e70ff6c80c92926a4b)
REM AIRSS Version 0.9.1 bugfix July 2018 build 013d7b7c2542+ Fri, 06 Jul 2018 19:26:36 +0100
REM compiler GCC version 9.3.0
REM options -cpp -mtune=generic -march=x86-64 -g -O0
REM seed -384049200 -202311757 504673843 662874079 1025278548 827461890 490777032 984620224 1459401061 -17351090 -254668061 -380333765 1648348262 1198008622 2110166432 -1580365787 1129675723 2081913376 573127051 41379327 1527546426 -1796247555 -125228506 -974109980 1238305577 -64783990 1396060561 315151024 2092470912 -1294301939 -2007676846 282522434 -2095583271
REM
CELL 1.54180   50.00000   50.00000   50.00000   90.00000   90.00000   90.00000
LATT -1
SFAC C  
C      1  0.5592060000000  0.5070760000000  0.5880140000000 1.0
C      1  0.4037550000000  0.5131410000000  0.5047980000000 1.0
C      1  0.4806720000000  0.4870140000000  0.5301680000000 1.0
C      1  0.4668200000000  0.4830970000000  0.5601020000000 1.0
C      1  0.4654510000000  0.5560610000000  0.4475210000000 1.0
C      1  0.4731040000000  0.4304880000000  0.4712940000000 1.0
C      1  0.4739830000000  0.5126500000000  0.4878730000000 1.0
C      1  0.5464580000000  0.5445180000000  0.5532430000000 1.0
C      1  0.4970800000000  0.4246700000000  0.4563770000000 1.0
C      1  0.4900440000000  0.4613260000000  0.5204440000000 1.0
C      1  0.4922510000000  0.5691970000000  0.4494300000000 1.0
C      1  0.5360090000000  0.4739040000000  0.4186350000000 1.0
C      1  0.5798110000000  0.5019280000000  0.5015420000000 1.0
C      1  0.5252050000000  0.4540010000000  0.5708920000000 1.0
C      1  0.5215940000000  0.4995150000000  0.5569100000000 1.0
C      1  0.4016730000000  0.4980820000000  0.4804290000000 1.0
C      1  0.4244480000000  0.4774260000000  0.5404550000000 1.0
C      1  0.5256550000000  0.4075260000000  0.5135070000000 1.0
C      1  0.5620860000000  0.5498200000000  0.4694180000000 1.0
C      1  0.5378930000000  0.4175380000000  0.4889290000000 1.0
C      1  0.4747060000000  0.5404660000000  0.5836230000000 1.0
C      1  0.5252530000000  0.5352060000000  0.5065260000000 1.0
C      1  0.5706340000000  0.5038110000000  0.5617320000000 1.0
C      1  0.4738180000000  0.4860560000000  0.4180890000000 1.0
C      1  0.4936650000000  0.5002170000000  0.4693330000000 1.0
C      1  0.5356500000000  0.5189540000000  0.4183310000000 1.0
C      1  0.5150150000000  0.4348490000000  0.5531890000000 1.0
C      1  0.5679240000000  0.5267050000000  0.5437760000000 1.0
C      1  0.5800880000000  0.4740680000000  0.5079420000000 1.0
C      1  0.5731750000000  0.4607990000000  0.5327780000000 1.0
C      1  0.4765520000000  0.4601630000000  0.4324120000000 1.0
C      1  0.5597370000000  0.5115590000000  0.4330490000000 1.0
C      1  0.4952960000000  0.4938850000000  0.4030860000000 1.0
C      1  0.4794530000000  0.5414050000000  0.4967960000000 1.0
C      1  0.4495080000000  0.5320510000000  0.4381490000000 1.0
C      1  0.4566260000000  0.5518480000000  0.5396670000000 1.0
C      1  0.4959650000000  0.5781180000000  0.5200860000000 1.0
C      1  0.4807520000000  0.4166800000000  0.5199640000000 1.0
C      1  0.4633780000000  0.4988480000000  0.5115040000000 1.0
C      1  0.5076670000000  0.5312390000000  0.5315360000000 1.0
C      1  0.4498840000000  0.4974710000000  0.4886450000000 1.0
C      1  0.5572930000000  0.4833570000000  0.4358920000000 1.0
C      1  0.4476120000000  0.5650520000000  0.4697890000000 1.0
C      1  0.4400310000000  0.4531400000000  0.5350690000000 1.0
C      1  0.5229910000000  0.4282700000000  0.4680510000000 1.0
C      1  0.5145520000000  0.4809470000000  0.5793580000000 1.0
C      1  0.4543640000000  0.5403370000000  0.5660050000000 1.0
C      1  0.4634170000000  0.5693140000000  0.4914540000000 1.0
C      1  0.5705290000000  0.4578190000000  0.4856140000000 1.0
C      1  0.5223980000000  0.5829440000000  0.5257380000000 1.0
C      1  0.5236090000000  0.4897040000000  0.5092810000000 1.0
C      1  0.5693680000000  0.4744230000000  0.5572410000000 1.0
C      1  0.4998450000000  0.4716500000000  0.4727310000000 1.0
C      1  0.5445580000000  0.5678760000000  0.5381130000000 1.0
C      1  0.5609660000000  0.5025390000000  0.4782060000000 1.0
C      1  0.5074400000000  0.5010600000000  0.5311100000000 1.0
C      1  0.5201300000000  0.5326010000000  0.4372650000000 1.0
C      1  0.4272670000000  0.4575700000000  0.4878630000000 1.0
C      1  0.4340340000000  0.5229020000000  0.5540910000000 1.0
C      1  0.4245490000000  0.5314100000000  0.4547340000000 1.0
C      1  0.4058950000000  0.4736860000000  0.4951240000000 1.0
C      1  0.5416120000000  0.4865180000000  0.5926900000000 1.0
C      1  0.5387400000000  0.5880060000000  0.5019760000000 1.0
C      1  0.4838450000000  0.5506090000000  0.5261600000000 1.0
C      1  0.4630540000000  0.4262520000000  0.4985520000000 1.0
C      1  0.5187980000000  0.5598410000000  0.4413700000000 1.0
C      1  0.4993250000000  0.5876710000000  0.4713820000000 1.0
C      1  0.4526860000000  0.5032460000000  0.4299370000000 1.0
C      1  0.4394320000000  0.4948390000000  0.5572110000000 1.0
C      1  0.4888080000000  0.4948300000000  0.5784590000000 1.0
C      1  0.5518520000000  0.4630970000000  0.5767820000000 1.0
C      1  0.4973760000000  0.4409220000000  0.4316510000000 1.0
C      1  0.5594930000000  0.5714020000000  0.5130840000000 1.0
C      1  0.4320890000000  0.5401340000000  0.5297510000000 1.0
C      1  0.5598460000000  0.4339280000000  0.4971570000000 1.0
C      1  0.4454470000000  0.4727700000000  0.4687820000000 1.0
C      1  0.4999390000000  0.3986920000000  0.5142750000000 1.0
C      1  0.4844020000000  0.5872520000000  0.4953110000000 1.0
C      1  0.5334830000000  0.5100410000000  0.4906030000000 1.0
C      1  0.5286330000000  0.5868380000000  0.4762700000000 1.0
C      1  0.5090080000000  0.4672180000000  0.5005280000000 1.0
C      1  0.5222470000000  0.4539700000000  0.4317170000000 1.0
C      1  0.5408200000000  0.5679500000000  0.4591670000000 1.0
C      1  0.5065640000000  0.5430750000000  0.4858260000000 1.0
C      1  0.4409140000000  0.4419640000000  0.5074610000000 1.0
C      1  0.5201560000000  0.5291480000000  0.5600440000000 1.0
C      1  0.4624690000000  0.4528010000000  0.5528050000000 1.0
C      1  0.5658490000000  0.5242980000000  0.4579510000000 1.0
C      1  0.5591660000000  0.4365810000000  0.5255830000000 1.0
C      1  0.4068030000000  0.4877770000000  0.5207850000000 1.0
C      1  0.5559910000000  0.4735490000000  0.4644960000000 1.0
C      1  0.5222330000000  0.4960030000000  0.4064350000000 1.0
C      1  0.5144140000000  0.5191640000000  0.4663230000000 1.0
C      1  0.5351350000000  0.4231080000000  0.5356140000000 1.0
C      1  0.4339840000000  0.4885210000000  0.4459360000000 1.0
C      1  0.5772700000000  0.5271290000000  0.5157760000000 1.0
C      1  0.4961470000000  0.5243920000000  0.5789330000000 1.0
C      1  0.4136200000000  0.5055260000000  0.4567770000000 1.0
C      1  0.4872160000000  0.4384830000000  0.5407450000000 1.0
C      1  0.4702360000000  0.4584980000000  0.4615490000000 1.0
C      1  0.4254400000000  0.5480440000000  0.4773850000000 1.0
C      1  0.4185420000000  0.5376370000000  0.5046850000000 1.0
C      1  0.5274170000000  0.4579060000000  0.4606470000000 1.0
C      1  0.5707000000000  0.5503970000000  0.4985060000000 1.0
END
