TITL C-20219-1353-4 -5.14975544330763 125000 -244.040471552471 0 0 37 (C1) n - 1
REM
REM in /rds/project/t2_vol4/rds-t2-cs072/BORA/CARBON/from-Arr/AIRSS/Generating-Clusters/GAP-ML-2020/Only-C1/SD-CG/HFTN-CG
REM
REM
REM
REM
REM
REM ./C.cell (11c1c37f851c82e70ff6c80c92926a4b)
REM AIRSS Version 0.9.1 bugfix July 2018 build 013d7b7c2542+ Fri, 06 Jul 2018 19:26:36 +0100
REM compiler GCC version 9.3.0
REM options -cpp -mtune=generic -march=x86-64 -g -O0
REM seed 723228285 1267632065 562708490 -1194556760 -1042377018 556281199 -74998406 346026713 -1661493389 -1415691927 -1368936753 37374493 1644090767 1770167719 -2122940828 591065924 -905296070 1167331756 -456377747 1149896762 1904027836 -723130680 -590340316 983492238 788978724 1295523081 424613338 1831618380 -1376827743 -91230632 877149220 -1990933798 -1550681936
REM
CELL 1.54180   50.00000   50.00000   50.00000   90.00000   90.00000   90.00000
LATT -1
SFAC C  
C      1  0.4878610000000  0.5648640000000  0.5263190000000 1.0
C      1  0.5655130000000  0.4531040000000  0.4714010000000 1.0
C      1  0.4763870000000  0.4849030000000  0.4486220000000 1.0
C      1  0.5047730000000  0.5065960000000  0.4632870000000 1.0
C      1  0.5048790000000  0.4525600000000  0.4890810000000 1.0
C      1  0.4731300000000  0.5310320000000  0.5568780000000 1.0
C      1  0.5395530000000  0.4512670000000  0.4576940000000 1.0
C      1  0.5273760000000  0.4698170000000  0.4412950000000 1.0
C      1  0.5590690000000  0.4661840000000  0.4925220000000 1.0
C      1  0.5496470000000  0.5097630000000  0.5125920000000 1.0
C      1  0.5279260000000  0.5245720000000  0.5270730000000 1.0
C      1  0.4558870000000  0.4897510000000  0.5481400000000 1.0
C      1  0.5584370000000  0.5255320000000  0.4912510000000 1.0
C      1  0.4554370000000  0.5172920000000  0.4858360000000 1.0
C      1  0.4869710000000  0.5475830000000  0.5054410000000 1.0
C      1  0.5192640000000  0.4378030000000  0.4726760000000 1.0
C      1  0.4567040000000  0.4960760000000  0.4668000000000 1.0
C      1  0.4695600000000  0.4636000000000  0.5145800000000 1.0
C      1  0.4533200000000  0.5176950000000  0.5402300000000 1.0
C      1  0.5012620000000  0.5006790000000  0.4922000000000 1.0
C      1  0.4934400000000  0.4710170000000  0.5293000000000 1.0
C      1  0.4480660000000  0.4803000000000  0.5217120000000 1.0
C      1  0.5475810000000  0.5428090000000  0.4746150000000 1.0
C      1  0.5437590000000  0.4812260000000  0.5087510000000 1.0
C      1  0.4469980000000  0.5086170000000  0.5122960000000 1.0
C      1  0.4972080000000  0.5347010000000  0.4628370000000 1.0
C      1  0.4746320000000  0.5384700000000  0.4814100000000 1.0
C      1  0.4947150000000  0.5107920000000  0.5617120000000 1.0
C      1  0.5089270000000  0.5271420000000  0.5049300000000 1.0
C      1  0.4762300000000  0.4558940000000  0.4889380000000 1.0
C      1  0.5137840000000  0.4761690000000  0.5065350000000 1.0
C      1  0.4927950000000  0.5502460000000  0.5484550000000 1.0
C      1  0.4845650000000  0.4861470000000  0.5517140000000 1.0
C      1  0.5053880000000  0.4852600000000  0.4446190000000 1.0
C      1  0.5154410000000  0.5295210000000  0.5515180000000 1.0
C      1  0.5208980000000  0.5417490000000  0.4782100000000 1.0
C      1  0.4626170000000  0.4692680000000  0.4685290000000 1.0
END
