TITL C-21912-1640-7 -49.7049140686118 125000 -769.478772137064 0 0 110 (C1) n - 1
REM
REM in /rds/project/t2_vol4/rds-t2-cs072/BORA/CARBON/from-Arr/AIRSS/Generating-Clusters/GAP-ML-2020/Only-C1/SD-CG/HFTN-CG
REM
REM
REM
REM
REM
REM ./C.cell (11c1c37f851c82e70ff6c80c92926a4b)
REM AIRSS Version 0.9.1 bugfix July 2018 build 013d7b7c2542+ Fri, 06 Jul 2018 19:26:36 +0100
REM compiler GCC version 9.3.0
REM options -cpp -mtune=generic -march=x86-64 -g -O0
REM seed -1364565953 1500833389 -1213677470 -427977194 2108222490 -1979781720 1563714910 -1793809389 -818602552 488396767 1240088639 -1582640447 1461536464 -749383879 777229068 -448130630 1568977217 -203891129 1072565995 -868950510 -1016632557 157899414 1630337844 -1167243554 -1264485113 904591293 -61154154 1719994814 -1166636158 -1083679818 190274193 -1817517941 926407919
REM
CELL 1.54180   50.00000   50.00000   50.00000   90.00000   90.00000   90.00000
LATT -1
SFAC C  
C      1  0.5052760000000  0.4035630000000  0.5256560000000 1.0
C      1  0.4259880000000  0.4744500000000  0.5038760000000 1.0
C      1  0.5014320000000  0.5161640000000  0.4782180000000 1.0
C      1  0.5267030000000  0.5206890000000  0.4917140000000 1.0
C      1  0.5776120000000  0.4885350000000  0.5502840000000 1.0
C      1  0.4967280000000  0.5109750000000  0.4060180000000 1.0
C      1  0.5205330000000  0.5929970000000  0.5142860000000 1.0
C      1  0.5237560000000  0.5028890000000  0.4081630000000 1.0
C      1  0.5023120000000  0.4265160000000  0.4583590000000 1.0
C      1  0.5468040000000  0.4531330000000  0.5153570000000 1.0
C      1  0.5168840000000  0.4561830000000  0.5039880000000 1.0
C      1  0.5236020000000  0.4340160000000  0.5546580000000 1.0
C      1  0.5807330000000  0.5287640000000  0.4875310000000 1.0
C      1  0.4582310000000  0.5744860000000  0.5183280000000 1.0
C      1  0.4618320000000  0.5534210000000  0.5598350000000 1.0
C      1  0.5036920000000  0.4740440000000  0.5883410000000 1.0
C      1  0.5087630000000  0.5863610000000  0.4687850000000 1.0
C      1  0.4509480000000  0.5057180000000  0.4296780000000 1.0
C      1  0.5792720000000  0.4950320000000  0.5232610000000 1.0
C      1  0.4717810000000  0.5598440000000  0.4741580000000 1.0
C      1  0.4779270000000  0.4831850000000  0.5142230000000 1.0
C      1  0.5248120000000  0.5002590000000  0.5282200000000 1.0
C      1  0.5077260000000  0.5494770000000  0.4378040000000 1.0
C      1  0.4134510000000  0.5056460000000  0.4671340000000 1.0
C      1  0.4726930000000  0.5818860000000  0.4954810000000 1.0
C      1  0.4872310000000  0.5395890000000  0.4933290000000 1.0
C      1  0.5119520000000  0.5383540000000  0.5095960000000 1.0
C      1  0.5065730000000  0.5256760000000  0.5654660000000 1.0
C      1  0.5081950000000  0.4009920000000  0.4970840000000 1.0
C      1  0.5706850000000  0.5527400000000  0.4741680000000 1.0
C      1  0.5761290000000  0.5073120000000  0.4681560000000 1.0
C      1  0.5255220000000  0.4810680000000  0.4265860000000 1.0
C      1  0.4429060000000  0.4386600000000  0.5224220000000 1.0
C      1  0.5339120000000  0.4109440000000  0.4888840000000 1.0
C      1  0.4823530000000  0.4590150000000  0.5754590000000 1.0
C      1  0.4633780000000  0.4154310000000  0.4906100000000 1.0
C      1  0.5405430000000  0.4576020000000  0.5467730000000 1.0
C      1  0.4992380000000  0.5936950000000  0.4942310000000 1.0
C      1  0.5059500000000  0.4537590000000  0.4781650000000 1.0
C      1  0.5628030000000  0.4674250000000  0.5636100000000 1.0
C      1  0.5202020000000  0.4796350000000  0.5455970000000 1.0
C      1  0.4135280000000  0.4984210000000  0.5158110000000 1.0
C      1  0.5573490000000  0.5306210000000  0.5613970000000 1.0
C      1  0.4272880000000  0.5423200000000  0.4914780000000 1.0
C      1  0.5495470000000  0.4395040000000  0.4497610000000 1.0
C      1  0.5471050000000  0.5822060000000  0.5097540000000 1.0
C      1  0.4613030000000  0.4402590000000  0.4310370000000 1.0
C      1  0.5125620000000  0.4953370000000  0.5702580000000 1.0
C      1  0.5459710000000  0.4230350000000  0.5122830000000 1.0
C      1  0.5362140000000  0.5097390000000  0.4332820000000 1.0
C      1  0.5805070000000  0.5233470000000  0.5162900000000 1.0
C      1  0.5592750000000  0.5449750000000  0.4487950000000 1.0
C      1  0.5617510000000  0.5175060000000  0.4443320000000 1.0
C      1  0.4349290000000  0.5181060000000  0.5590700000000 1.0
C      1  0.4497030000000  0.4680360000000  0.5242510000000 1.0
C      1  0.4831700000000  0.4167350000000  0.5386570000000 1.0
C      1  0.5294640000000  0.4148500000000  0.5348940000000 1.0
C      1  0.4565700000000  0.5097660000000  0.4822220000000 1.0
C      1  0.4884290000000  0.4356620000000  0.4328800000000 1.0
C      1  0.4882590000000  0.4085540000000  0.4786080000000 1.0
C      1  0.4430260000000  0.5491030000000  0.5163070000000 1.0
C      1  0.5351980000000  0.5798140000000  0.4630240000000 1.0
C      1  0.5356250000000  0.5596670000000  0.4428860000000 1.0
C      1  0.4690240000000  0.5777210000000  0.5450300000000 1.0
C      1  0.4519140000000  0.5335810000000  0.4371190000000 1.0
C      1  0.4769880000000  0.4592200000000  0.4186850000000 1.0
C      1  0.5463310000000  0.4621470000000  0.4337540000000 1.0
C      1  0.4596840000000  0.4785770000000  0.5710550000000 1.0
C      1  0.4620730000000  0.4187520000000  0.5196590000000 1.0
C      1  0.4914750000000  0.4741440000000  0.4667760000000 1.0
C      1  0.4935890000000  0.4357140000000  0.5594180000000 1.0
C      1  0.4266680000000  0.4437530000000  0.4997790000000 1.0
C      1  0.4224470000000  0.4982160000000  0.5439570000000 1.0
C      1  0.4584260000000  0.5088430000000  0.5737310000000 1.0
C      1  0.5319050000000  0.5440260000000  0.5673840000000 1.0
C      1  0.4773370000000  0.4907200000000  0.4205470000000 1.0
C      1  0.5553670000000  0.5758540000000  0.4830990000000 1.0
C      1  0.4109190000000  0.5190860000000  0.4927110000000 1.0
C      1  0.5540510000000  0.4841820000000  0.5856200000000 1.0
C      1  0.5142610000000  0.5880220000000  0.5420670000000 1.0
C      1  0.5087610000000  0.5168830000000  0.4497930000000 1.0
C      1  0.5318410000000  0.4208810000000  0.4620790000000 1.0
C      1  0.4410710000000  0.4432670000000  0.4522630000000 1.0
C      1  0.4815760000000  0.4938950000000  0.4841470000000 1.0
C      1  0.5551700000000  0.5670620000000  0.5332050000000 1.0
C      1  0.5022430000000  0.4705370000000  0.5224730000000 1.0
C      1  0.5283110000000  0.4826040000000  0.5963790000000 1.0
C      1  0.5647230000000  0.4628290000000  0.4551910000000 1.0
C      1  0.4918530000000  0.5384280000000  0.4141060000000 1.0
C      1  0.4336020000000  0.4871540000000  0.4790430000000 1.0
C      1  0.5674060000000  0.5064640000000  0.5714810000000 1.0
C      1  0.4920470000000  0.5686700000000  0.4544870000000 1.0
C      1  0.4391920000000  0.5434230000000  0.5468330000000 1.0
C      1  0.4893920000000  0.5948040000000  0.5517790000000 1.0
C      1  0.5693540000000  0.5414790000000  0.5368010000000 1.0
C      1  0.5051710000000  0.5210840000000  0.5328960000000 1.0
C      1  0.4776610000000  0.5099070000000  0.5268650000000 1.0
C      1  0.4398010000000  0.4764080000000  0.5502370000000 1.0
C      1  0.4662850000000  0.5473580000000  0.4184290000000 1.0
C      1  0.4418370000000  0.4315130000000  0.4787230000000 1.0
C      1  0.5727430000000  0.4802640000000  0.4759740000000 1.0
C      1  0.4277800000000  0.4941670000000  0.4410460000000 1.0
C      1  0.5624990000000  0.4782110000000  0.5039580000000 1.0
C      1  0.4642010000000  0.5266910000000  0.5076930000000 1.0
C      1  0.5341370000000  0.5689530000000  0.5523820000000 1.0
C      1  0.4989060000000  0.4874670000000  0.4417370000000 1.0
C      1  0.4313380000000  0.4693660000000  0.4540580000000 1.0
C      1  0.5379540000000  0.4984010000000  0.5039760000000 1.0
C      1  0.4771920000000  0.5320060000000  0.5732600000000 1.0
C      1  0.4496620000000  0.5395670000000  0.4675430000000 1.0
END
