TITL C-211908-510-1 -14.6959713750779 125000 -120.773944015043 0 0 19 (C1) n - 1
REM
REM in /rds/project/t2_vol4/rds-t2-cs072/BORA/CARBON/from-Arr/AIRSS/Generating-Clusters/GAP-ML-2020/Only-C1/SD-CG/HFTN-CG
REM
REM
REM
REM
REM
REM ./C.cell (11c1c37f851c82e70ff6c80c92926a4b)
REM AIRSS Version 0.9.1 bugfix July 2018 build 013d7b7c2542+ Fri, 06 Jul 2018 19:26:36 +0100
REM compiler GCC version 9.3.0
REM options -cpp -mtune=generic -march=x86-64 -g -O0
REM seed -1599778244 -405940744 1868367273 221876285 -134020199 1724467427 -649973440 686659842 1230389933 -997102563 -1391361508 -2098459146 -1595782644 982557747 -861444675 1826019245 1928684826 -452933570 559815132 864921630 1893453861 1213402620 432121776 1500806967 -164012540 -1051774884 -1615245845 888717071 -715595329 75778266 619849713 -690231625 -302342317
REM
CELL 1.54180   50.00000   50.00000   50.00000   90.00000   90.00000   90.00000
LATT -1
SFAC C  
C      1  0.4708910000000  0.5235370000000  0.5156740000000 1.0
C      1  0.4581480000000  0.5337640000000  0.4953420000000 1.0
C      1  0.4973760000000  0.5280470000000  0.5202100000000 1.0
C      1  0.4905980000000  0.4548220000000  0.4656980000000 1.0
C      1  0.4460830000000  0.4613850000000  0.4966850000000 1.0
C      1  0.5166340000000  0.5082280000000  0.5281160000000 1.0
C      1  0.5114230000000  0.4804490000000  0.5260360000000 1.0
C      1  0.5368680000000  0.5197080000000  0.5098290000000 1.0
C      1  0.5353790000000  0.4659770000000  0.5184560000000 1.0
C      1  0.4865400000000  0.5581830000000  0.4683380000000 1.0
C      1  0.4626890000000  0.5489770000000  0.4747500000000 1.0
C      1  0.5107550000000  0.4380870000000  0.4786950000000 1.0
C      1  0.4957230000000  0.4557990000000  0.4933750000000 1.0
C      1  0.4610840000000  0.4737810000000  0.5133060000000 1.0
C      1  0.5473620000000  0.4804010000000  0.5008670000000 1.0
C      1  0.5569300000000  0.5051800000000  0.4978480000000 1.0
C      1  0.4884080000000  0.4686850000000  0.5160330000000 1.0
C      1  0.5170070000000  0.5405230000000  0.5017770000000 1.0
C      1  0.5101000000000  0.5544680000000  0.4789630000000 1.0
END
