TITL C-216151-3328-5 -378.577859657506 125000 -883.534449133964 0 0 123 (C1) n - 1
REM
REM in /rds/project/t2_vol4/rds-t2-cs072/BORA/CARBON/from-Arr/AIRSS/Generating-Clusters/GAP-ML-2020/Only-C1/SD-CG/HFTN-CG
REM
REM
REM
REM
REM
REM ./C.cell (11c1c37f851c82e70ff6c80c92926a4b)
REM AIRSS Version 0.9.1 bugfix July 2018 build 013d7b7c2542+ Fri, 06 Jul 2018 19:26:36 +0100
REM compiler GCC version 9.3.0
REM options -cpp -mtune=generic -march=x86-64 -g -O0
REM seed -1256611113 410749692 -993374468 1974548907 173878182 -1260320972 -976354229 -806687763 1041014299 629137247 -324652682 1584746499 708841458 -1236738538 714259659 -427128029 1649001331 1374880829 -995731527 -706170065 -1154100165 435593089 -1925812753 -1622245625 1028521348 -1801040442 -40838425 -109163621 -1376657087 1364919462 605764369 246697662 2118637293
REM
CELL 1.54180   50.00000   50.00000   50.00000   90.00000   90.00000   90.00000
LATT -1
SFAC C  
C      1  0.4873580000000  0.4690690000000  0.4973680000000 1.0
C      1  0.5089870000000  0.5374900000000  0.5705760000000 1.0
C      1  0.5183880000000  0.5248020000000  0.5259670000000 1.0
C      1  0.4525910000000  0.5725490000000  0.4768900000000 1.0
C      1  0.4617050000000  0.4791980000000  0.5047570000000 1.0
C      1  0.5226950000000  0.4962560000000  0.4142840000000 1.0
C      1  0.4615080000000  0.4473720000000  0.4284500000000 1.0
C      1  0.5384640000000  0.4968920000000  0.5569650000000 1.0
C      1  0.4797330000000  0.4339980000000  0.5628220000000 1.0
C      1  0.4245400000000  0.4959600000000  0.5631940000000 1.0
C      1  0.4782710000000  0.5852760000000  0.4743660000000 1.0
C      1  0.4291640000000  0.4451970000000  0.4842520000000 1.0
C      1  0.4806500000000  0.4522230000000  0.5848840000000 1.0
C      1  0.5008840000000  0.4930560000000  0.5874260000000 1.0
C      1  0.4359370000000  0.4520430000000  0.5493290000000 1.0
C      1  0.5605820000000  0.5340760000000  0.5569150000000 1.0
C      1  0.4811650000000  0.5340510000000  0.5601720000000 1.0
C      1  0.4572510000000  0.4330120000000  0.5441350000000 1.0
C      1  0.5164570000000  0.4754360000000  0.5465470000000 1.0
C      1  0.5888340000000  0.5053500000000  0.4700010000000 1.0
C      1  0.5096430000000  0.5363220000000  0.5026150000000 1.0
C      1  0.4473390000000  0.5609220000000  0.5321500000000 1.0
C      1  0.4945310000000  0.4108630000000  0.4857880000000 1.0
C      1  0.4385220000000  0.4718210000000  0.5703120000000 1.0
C      1  0.4754620000000  0.4277820000000  0.4445260000000 1.0
C      1  0.5222220000000  0.5223660000000  0.4798340000000 1.0
C      1  0.5820730000000  0.4799520000000  0.4590360000000 1.0
C      1  0.4443590000000  0.5568060000000  0.4528380000000 1.0
C      1  0.5886570000000  0.5455660000000  0.5283660000000 1.0
C      1  0.4574450000000  0.5390640000000  0.4318020000000 1.0
C      1  0.5697980000000  0.5252510000000  0.4626250000000 1.0
C      1  0.5199280000000  0.6029920000000  0.4856530000000 1.0
C      1  0.5668220000000  0.5655820000000  0.5304500000000 1.0
C      1  0.5233650000000  0.4895640000000  0.4757070000000 1.0
C      1  0.4629370000000  0.4214170000000  0.5181640000000 1.0
C      1  0.4043840000000  0.5400010000000  0.4787710000000 1.0
C      1  0.5545690000000  0.5294360000000  0.4382460000000 1.0
C      1  0.5395300000000  0.4224940000000  0.5193910000000 1.0
C      1  0.4390000000000  0.5162860000000  0.4294270000000 1.0
C      1  0.5483470000000  0.4377770000000  0.4477650000000 1.0
C      1  0.5554000000000  0.5781150000000  0.5074690000000 1.0
C      1  0.4160990000000  0.5190120000000  0.4457770000000 1.0
C      1  0.5817320000000  0.4572780000000  0.4774280000000 1.0
C      1  0.4601760000000  0.4725330000000  0.5882830000000 1.0
C      1  0.4968250000000  0.4803610000000  0.4707640000000 1.0
C      1  0.5485960000000  0.5048820000000  0.4259550000000 1.0
C      1  0.5068760000000  0.4634910000000  0.5878510000000 1.0
C      1  0.6013240000000  0.5092470000000  0.4964360000000 1.0
C      1  0.4124590000000  0.4926650000000  0.4933180000000 1.0
C      1  0.4031490000000  0.5115770000000  0.4713780000000 1.0
C      1  0.5432080000000  0.5187580000000  0.5370320000000 1.0
C      1  0.4421600000000  0.4662630000000  0.4364400000000 1.0
C      1  0.4182590000000  0.5465850000000  0.4547710000000 1.0
C      1  0.5638530000000  0.4812300000000  0.5561990000000 1.0
C      1  0.4418640000000  0.4875030000000  0.4816670000000 1.0
C      1  0.4488450000000  0.4912720000000  0.4226630000000 1.0
C      1  0.5066150000000  0.4293620000000  0.5547660000000 1.0
C      1  0.4381360000000  0.5671620000000  0.5034340000000 1.0
C      1  0.5555060000000  0.5623290000000  0.4834370000000 1.0
C      1  0.5229950000000  0.5893030000000  0.4618620000000 1.0
C      1  0.5208000000000  0.5122720000000  0.5785940000000 1.0
C      1  0.5520760000000  0.5326700000000  0.4853490000000 1.0
C      1  0.4766070000000  0.5563810000000  0.5389030000000 1.0
C      1  0.5532540000000  0.4540040000000  0.5570240000000 1.0
C      1  0.5131500000000  0.4175580000000  0.5301120000000 1.0
C      1  0.4589650000000  0.5120960000000  0.4753880000000 1.0
C      1  0.4910240000000  0.4849640000000  0.5580870000000 1.0
C      1  0.5330670000000  0.5962070000000  0.5098210000000 1.0
C      1  0.4710070000000  0.4192410000000  0.4715370000000 1.0
C      1  0.4850990000000  0.5357650000000  0.4224260000000 1.0
C      1  0.4954180000000  0.5089820000000  0.4117400000000 1.0
C      1  0.5597530000000  0.4367530000000  0.5349150000000 1.0
C      1  0.4505810000000  0.4265350000000  0.4913200000000 1.0
C      1  0.5859530000000  0.5241830000000  0.5485870000000 1.0
C      1  0.5022540000000  0.4287670000000  0.4342440000000 1.0
C      1  0.4058160000000  0.5066840000000  0.5191400000000 1.0
C      1  0.4609960000000  0.5223270000000  0.5794590000000 1.0
C      1  0.5442400000000  0.5710750000000  0.4586650000000 1.0
C      1  0.5434470000000  0.4220000000000  0.4912570000000 1.0
C      1  0.5241820000000  0.4232680000000  0.4497320000000 1.0
C      1  0.5617580000000  0.4371150000000  0.4730090000000 1.0
C      1  0.5048580000000  0.5506860000000  0.4403210000000 1.0
C      1  0.4800200000000  0.5061740000000  0.5429000000000 1.0
C      1  0.5061820000000  0.5933010000000  0.5229640000000 1.0
C      1  0.4296410000000  0.5417090000000  0.5451810000000 1.0
C      1  0.5098370000000  0.4759950000000  0.5169160000000 1.0
C      1  0.4161850000000  0.4627750000000  0.5308170000000 1.0
C      1  0.4986560000000  0.5775430000000  0.4542090000000 1.0
C      1  0.4823170000000  0.5442550000000  0.5071880000000 1.0
C      1  0.4833910000000  0.5051470000000  0.4628420000000 1.0
C      1  0.5001850000000  0.5753670000000  0.5439790000000 1.0
C      1  0.5238890000000  0.4514030000000  0.5656500000000 1.0
C      1  0.4745600000000  0.4890570000000  0.4098540000000 1.0
C      1  0.5046100000000  0.4498090000000  0.4149220000000 1.0
C      1  0.5999120000000  0.5348390000000  0.5063020000000 1.0
C      1  0.4642960000000  0.5033030000000  0.5197910000000 1.0
C      1  0.5504470000000  0.5603260000000  0.5538330000000 1.0
C      1  0.4344100000000  0.4649490000000  0.4634560000000 1.0
C      1  0.5210930000000  0.5615720000000  0.5590950000000 1.0
C      1  0.4722020000000  0.4990030000000  0.5921070000000 1.0
C      1  0.5925520000000  0.4614950000000  0.5050310000000 1.0
C      1  0.5365100000000  0.5517530000000  0.4397290000000 1.0
C      1  0.5029490000000  0.5268480000000  0.4590310000000 1.0
C      1  0.5258470000000  0.4674600000000  0.4151030000000 1.0
C      1  0.5206400000000  0.4144290000000  0.4760470000000 1.0
C      1  0.5556900000000  0.5157080000000  0.5108080000000 1.0
C      1  0.5008350000000  0.5032860000000  0.5237190000000 1.0
C      1  0.4136770000000  0.4618290000000  0.5026790000000 1.0
C      1  0.4934250000000  0.5987080000000  0.4958490000000 1.0
C      1  0.5489890000000  0.4592360000000  0.4298000000000 1.0
C      1  0.4096530000000  0.4889800000000  0.5401430000000 1.0
C      1  0.4900830000000  0.4124410000000  0.5135480000000 1.0
C      1  0.5558160000000  0.4885710000000  0.5057400000000 1.0
C      1  0.4113740000000  0.5339060000000  0.5245690000000 1.0
C      1  0.4631150000000  0.5246570000000  0.5002920000000 1.0
C      1  0.5331060000000  0.4767930000000  0.4987200000000 1.0
C      1  0.5826450000000  0.4433470000000  0.5221290000000 1.0
C      1  0.4795620000000  0.4611620000000  0.4111390000000 1.0
C      1  0.5986900000000  0.4878640000000  0.5165440000000 1.0
C      1  0.4145870000000  0.5511580000000  0.5020340000000 1.0
C      1  0.5638610000000  0.4818610000000  0.4364100000000 1.0
C      1  0.5865200000000  0.4954720000000  0.5432020000000 1.0
C      1  0.4355620000000  0.5224820000000  0.5663990000000 1.0
END
