TITL C-2114523-4113-32 257.456653540586 125000 -740.597350442729 0 0 106 (C1) n - 1
REM
REM in /nfs/bkarasulu/CARBON/AIRSS/Generating-Clusters/GAP-ML-2020/Only-C1/SD-CG/HFTN-CG
REM
REM
REM
REM
REM
REM ./C.cell (11c1c37f851c82e70ff6c80c92926a4b)
REM
REM compiler GCC version 9.2.1 20190827 (Red Hat 9.2.1-1)
REM options -cpp -mtune=generic -march=x86-64 -g -O0 -fpre-include=/usr/include/finclude/math-vector-fortran.h
REM seed -1777675512 -1953011776 914786011 1906816084 2024874328 -497172295 1336810399 -1861326544 -1936425787 -1164634460 261721149 -1782008907 -930543548 -1712932488 -651955584 -848089351 -1958544507 -1357399164 -268758852 76367867 580158046 1447348533 -46222610 1718739950 1498165368 1041863616 1748239804 -1538357033 1897532648 -1915273259 185882259 -348108815 21142924
REM
CELL 1.54180   50.00000   50.00000   50.00000   90.00000   90.00000   90.00000
LATT -1
SFAC C  
C      1  0.5157700000000  0.5701190000000  0.4567130000000 1.0
C      1  0.4781910000000  0.4925510000000  0.4256200000000 1.0
C      1  0.4273150000000  0.5577730000000  0.5330980000000 1.0
C      1  0.4308680000000  0.4410310000000  0.4942840000000 1.0
C      1  0.4760400000000  0.4657090000000  0.5383030000000 1.0
C      1  0.4915890000000  0.4885100000000  0.4545270000000 1.0
C      1  0.4592830000000  0.4265400000000  0.4519170000000 1.0
C      1  0.5410320000000  0.5691410000000  0.5300480000000 1.0
C      1  0.5314010000000  0.4187090000000  0.5378640000000 1.0
C      1  0.5205160000000  0.5755000000000  0.5123480000000 1.0
C      1  0.5170930000000  0.4552970000000  0.5771120000000 1.0
C      1  0.5623710000000  0.5595150000000  0.5152420000000 1.0
C      1  0.5556610000000  0.4716590000000  0.5443210000000 1.0
C      1  0.4912040000000  0.4973350000000  0.4978670000000 1.0
C      1  0.4590840000000  0.4493130000000  0.4327430000000 1.0
C      1  0.4190290000000  0.5625390000000  0.5061240000000 1.0
C      1  0.5038020000000  0.4199770000000  0.5413110000000 1.0
C      1  0.5501810000000  0.4540990000000  0.4642800000000 1.0
C      1  0.5835780000000  0.4855690000000  0.4722630000000 1.0
C      1  0.4830880000000  0.5470650000000  0.5709590000000 1.0
C      1  0.5466880000000  0.5350990000000  0.4319630000000 1.0
C      1  0.5219050000000  0.4226710000000  0.4921280000000 1.0
C      1  0.4837270000000  0.4616760000000  0.4702480000000 1.0
C      1  0.5227740000000  0.5002510000000  0.4102020000000 1.0
C      1  0.5681870000000  0.4971640000000  0.4520500000000 1.0
C      1  0.4587960000000  0.5384690000000  0.4475840000000 1.0
C      1  0.4575060000000  0.5897740000000  0.4973170000000 1.0
C      1  0.4734410000000  0.5021870000000  0.4752870000000 1.0
C      1  0.4531830000000  0.5386650000000  0.4943480000000 1.0
C      1  0.5280740000000  0.5103050000000  0.5684670000000 1.0
C      1  0.5636460000000  0.4456800000000  0.5271370000000 1.0
C      1  0.5016520000000  0.4773210000000  0.5893630000000 1.0
C      1  0.4643670000000  0.4196950000000  0.5046240000000 1.0
C      1  0.5228240000000  0.5511000000000  0.4358430000000 1.0
C      1  0.4309730000000  0.4694800000000  0.4886740000000 1.0
C      1  0.4718010000000  0.5316880000000  0.4742420000000 1.0
C      1  0.4973840000000  0.4373220000000  0.5646880000000 1.0
C      1  0.5148420000000  0.4955320000000  0.5468460000000 1.0
C      1  0.4686810000000  0.5827320000000  0.5241420000000 1.0
C      1  0.4216790000000  0.5189980000000  0.4709900000000 1.0
C      1  0.4951860000000  0.5683540000000  0.5271260000000 1.0
C      1  0.5558720000000  0.5596950000000  0.4875620000000 1.0
C      1  0.4419910000000  0.5327340000000  0.5444790000000 1.0
C      1  0.4377480000000  0.5192240000000  0.4454440000000 1.0
C      1  0.5784060000000  0.5371790000000  0.5223540000000 1.0
C      1  0.5091380000000  0.4541930000000  0.4229380000000 1.0
C      1  0.5037630000000  0.5598200000000  0.5552190000000 1.0
C      1  0.4502290000000  0.4250290000000  0.4789220000000 1.0
C      1  0.5080480000000  0.5057890000000  0.5882000000000 1.0
C      1  0.5110430000000  0.4344300000000  0.4437480000000 1.0
C      1  0.4730720000000  0.4527230000000  0.5646320000000 1.0
C      1  0.4288590000000  0.5878610000000  0.4992650000000 1.0
C      1  0.5905270000000  0.4840740000000  0.5179620000000 1.0
C      1  0.5768510000000  0.4926400000000  0.5418440000000 1.0
C      1  0.5371040000000  0.5039630000000  0.5060810000000 1.0
C      1  0.4154620000000  0.4948950000000  0.4864060000000 1.0
C      1  0.5523620000000  0.4301420000000  0.5521450000000 1.0
C      1  0.5180480000000  0.5104950000000  0.4862360000000 1.0
C      1  0.5704630000000  0.5209130000000  0.5447790000000 1.0
C      1  0.4551050000000  0.4741550000000  0.4716460000000 1.0
C      1  0.4444450000000  0.4361850000000  0.5192850000000 1.0
C      1  0.4655350000000  0.4999880000000  0.5708190000000 1.0
C      1  0.5661590000000  0.5259830000000  0.4514400000000 1.0
C      1  0.5431250000000  0.4793950000000  0.4487660000000 1.0
C      1  0.4448610000000  0.4709320000000  0.4436750000000 1.0
C      1  0.4259060000000  0.5418450000000  0.4870460000000 1.0
C      1  0.5811520000000  0.4579440000000  0.5086990000000 1.0
C      1  0.4720760000000  0.5870260000000  0.4736660000000 1.0
C      1  0.4830280000000  0.5134240000000  0.5214860000000 1.0
C      1  0.4928840000000  0.4520810000000  0.5187860000000 1.0
C      1  0.5376060000000  0.4343580000000  0.5132390000000 1.0
C      1  0.4572560000000  0.5528820000000  0.5614610000000 1.0
C      1  0.4483660000000  0.4586690000000  0.5381390000000 1.0
C      1  0.5465090000000  0.5299870000000  0.5593480000000 1.0
C      1  0.5323400000000  0.5549630000000  0.5534580000000 1.0
C      1  0.5869940000000  0.5269520000000  0.4968190000000 1.0
C      1  0.4839820000000  0.5206310000000  0.5823930000000 1.0
C      1  0.4973600000000  0.5126710000000  0.4141340000000 1.0
C      1  0.4925020000000  0.4227840000000  0.5130870000000 1.0
C      1  0.4769450000000  0.5550640000000  0.4348060000000 1.0
C      1  0.5037110000000  0.5376600000000  0.4872080000000 1.0
C      1  0.4485370000000  0.4961390000000  0.4319410000000 1.0
C      1  0.5731030000000  0.5399380000000  0.4752860000000 1.0
C      1  0.4398490000000  0.5047660000000  0.5556730000000 1.0
C      1  0.5284060000000  0.4745220000000  0.4221650000000 1.0
C      1  0.4857260000000  0.4344080000000  0.4567320000000 1.0
C      1  0.4857920000000  0.4942930000000  0.5434650000000 1.0
C      1  0.4492450000000  0.5740700000000  0.5433310000000 1.0
C      1  0.5735780000000  0.4600420000000  0.4803480000000 1.0
C      1  0.4591280000000  0.5282740000000  0.5192480000000 1.0
C      1  0.4742680000000  0.4740910000000  0.5834860000000 1.0
C      1  0.4206070000000  0.4852930000000  0.5117210000000 1.0
C      1  0.4990070000000  0.5401330000000  0.4237600000000 1.0
C      1  0.4809340000000  0.4628590000000  0.4194060000000 1.0
C      1  0.5939830000000  0.5001230000000  0.4948010000000 1.0
C      1  0.5313670000000  0.4838810000000  0.5264980000000 1.0
C      1  0.4871220000000  0.5763120000000  0.4538970000000 1.0
C      1  0.5438340000000  0.4537840000000  0.5661560000000 1.0
C      1  0.4959870000000  0.5396440000000  0.5152230000000 1.0
C      1  0.4323830000000  0.4831240000000  0.5378710000000 1.0
C      1  0.5435850000000  0.5173940000000  0.4110000000000 1.0
C      1  0.4968020000000  0.4683680000000  0.4953230000000 1.0
C      1  0.5265110000000  0.5651430000000  0.4844470000000 1.0
C      1  0.5297910000000  0.4328920000000  0.4655990000000 1.0
C      1  0.5190910000000  0.4965180000000  0.4606300000000 1.0
C      1  0.5201190000000  0.4604940000000  0.5141600000000 1.0
END
