TITL C-2114521-4255-35 0.141375981638782 125000 -110.23700482878 0 0 17 (C1) n - 1
REM
REM in /nfs/bkarasulu/CARBON/AIRSS/Generating-Clusters/GAP-ML-2020/Only-C1/SD-CG/HFTN-CG
REM
REM
REM
REM
REM
REM ./C.cell (11c1c37f851c82e70ff6c80c92926a4b)
REM
REM compiler GCC version 9.2.1 20190827 (Red Hat 9.2.1-1)
REM options -cpp -mtune=generic -march=x86-64 -g -O0 -fpre-include=/usr/include/finclude/math-vector-fortran.h
REM seed -1907435186 -502738443 -811335737 2078334848 -210276917 303075337 -355288646 -950495940 1982957479 107362288 1468910536 -1966497488 1799799110 -1871529365 623433014 90829996 1926213911 -1184500013 -28841255 1490494707 111818341 -528492929 -947249622 -2051128538 1584838856 615733206 -1792171943 -1154668334 1657769253 2115647235 -1500483812 46709562 -676006505
REM
CELL 1.54180   50.00000   50.00000   50.00000   90.00000   90.00000   90.00000
LATT -1
SFAC C  
C      1  0.4782210000000  0.5447390000000  0.5165590000000 1.0
C      1  0.5076170000000  0.5380540000000  0.4748470000000 1.0
C      1  0.4791520000000  0.4570740000000  0.5118540000000 1.0
C      1  0.5129330000000  0.5103430000000  0.4758250000000 1.0
C      1  0.4677460000000  0.4983760000000  0.5335780000000 1.0
C      1  0.5195570000000  0.4391190000000  0.5126810000000 1.0
C      1  0.4921390000000  0.5535620000000  0.4950030000000 1.0
C      1  0.4672850000000  0.4731970000000  0.5315730000000 1.0
C      1  0.4827570000000  0.4697330000000  0.4861550000000 1.0
C      1  0.5155440000000  0.5626280000000  0.4639490000000 1.0
C      1  0.5010560000000  0.5771610000000  0.4820210000000 1.0
C      1  0.5415900000000  0.4767340000000  0.4980070000000 1.0
C      1  0.4926160000000  0.4907410000000  0.4780830000000 1.0
C      1  0.5355200000000  0.4986080000000  0.4874150000000 1.0
C      1  0.4946230000000  0.4340650000000  0.5169910000000 1.0
C      1  0.4705250000000  0.5238750000000  0.5288770000000 1.0
C      1  0.5411200000000  0.4519920000000  0.5065830000000 1.0
END
