TITL C-214945-2893-9 79.8779625132623 125000 -260.046538580544 0 0 40 (C1) n - 1
REM
REM in /rds/project/t2_vol4/rds-t2-cs072/BORA/CARBON/from-Arr/AIRSS/Generating-Clusters/GAP-ML-2020/Only-C1/SD-CG/HFTN-CG
REM
REM
REM
REM
REM
REM ./C.cell (11c1c37f851c82e70ff6c80c92926a4b)
REM AIRSS Version 0.9.1 bugfix July 2018 build 013d7b7c2542+ Fri, 06 Jul 2018 19:26:36 +0100
REM compiler GCC version 9.3.0
REM options -cpp -mtune=generic -march=x86-64 -g -O0
REM seed 520825959 2084743282 -601615518 -877417922 433976656 424172007 -1370935419 410410666 -752092661 1165477104 660709661 -900875024 559527402 -1264495172 -868955627 -1350671037 1089686774 -771942055 1960500032 1800890616 1016281203 -1756353246 1712969909 1874745085 -1455975659 -848429904 863527232 -1426543033 2096082645 -1077587059 813199748 1183482490 1995954791
REM
CELL 1.54180   50.00000   50.00000   50.00000   90.00000   90.00000   90.00000
LATT -1
SFAC C  
C      1  0.5386190000000  0.5029870000000  0.5365580000000 1.0
C      1  0.5183380000000  0.5411830000000  0.4505140000000 1.0
C      1  0.5214880000000  0.5199520000000  0.5524820000000 1.0
C      1  0.4482200000000  0.5014250000000  0.5047640000000 1.0
C      1  0.4557790000000  0.4842220000000  0.5268130000000 1.0
C      1  0.5011550000000  0.4725000000000  0.5450150000000 1.0
C      1  0.5282450000000  0.5453110000000  0.4760910000000 1.0
C      1  0.5399560000000  0.4654200000000  0.5100640000000 1.0
C      1  0.4686550000000  0.4769300000000  0.4758410000000 1.0
C      1  0.5377090000000  0.4616120000000  0.4840300000000 1.0
C      1  0.5393040000000  0.5222600000000  0.5151900000000 1.0
C      1  0.5285320000000  0.4775280000000  0.5314460000000 1.0
C      1  0.4879110000000  0.5026780000000  0.5135230000000 1.0
C      1  0.5070430000000  0.5034830000000  0.4772950000000 1.0
C      1  0.4867910000000  0.4499320000000  0.5292630000000 1.0
C      1  0.4797290000000  0.5168110000000  0.5584620000000 1.0
C      1  0.5223100000000  0.5398750000000  0.5321700000000 1.0
C      1  0.5080230000000  0.4533960000000  0.4878970000000 1.0
C      1  0.5375530000000  0.4946980000000  0.4433470000000 1.0
C      1  0.4798530000000  0.4941700000000  0.5395330000000 1.0
C      1  0.5128960000000  0.5618890000000  0.4930710000000 1.0
C      1  0.4898450000000  0.5362100000000  0.4498170000000 1.0
C      1  0.4700320000000  0.5225030000000  0.5012050000000 1.0
C      1  0.4992300000000  0.4367080000000  0.5084560000000 1.0
C      1  0.5305730000000  0.5190640000000  0.4885690000000 1.0
C      1  0.5045490000000  0.5101490000000  0.5725390000000 1.0
C      1  0.4951650000000  0.5135860000000  0.4299550000000 1.0
C      1  0.4608450000000  0.4573620000000  0.5244520000000 1.0
C      1  0.5325850000000  0.4713250000000  0.4566310000000 1.0
C      1  0.5242050000000  0.5171000000000  0.4359110000000 1.0
C      1  0.5045160000000  0.4803170000000  0.5727500000000 1.0
C      1  0.4745360000000  0.5443040000000  0.5214470000000 1.0
C      1  0.4828520000000  0.4707420000000  0.4507290000000 1.0
C      1  0.5065320000000  0.4573550000000  0.4581930000000 1.0
C      1  0.4847460000000  0.4892900000000  0.4313050000000 1.0
C      1  0.5024830000000  0.5538410000000  0.5171740000000 1.0
C      1  0.4833830000000  0.5236900000000  0.4741430000000 1.0
C      1  0.4932120000000  0.4828770000000  0.4930190000000 1.0
C      1  0.4436440000000  0.4859530000000  0.4824510000000 1.0
C      1  0.4689570000000  0.5393610000000  0.5478830000000 1.0
END
