TITL C-2114533-4398-29 -54.4148695364426 125000 -1344.40345913463 0 0 192 (C1) n - 1
REM
REM in /nfs/bkarasulu/CARBON/AIRSS/Generating-Clusters/GAP-ML-2020/Only-C1/SD-CG/HFTN-CG
REM
REM
REM
REM
REM
REM ./C.cell (11c1c37f851c82e70ff6c80c92926a4b)
REM
REM compiler GCC version 9.2.1 20190827 (Red Hat 9.2.1-1)
REM options -cpp -mtune=generic -march=x86-64 -g -O0 -fpre-include=/usr/include/finclude/math-vector-fortran.h
REM seed -1142914509 1014333347 -2121176975 2074842239 1408421798 -1232754935 1103490561 832207095 1851521730 964605630 1086030710 -827680452 222889301 2039973098 -2056088006 -48361821 -2101622846 1339444305 876451369 1570229685 -1910084688 963379825 472830545 -226383606 1055172324 -1032342242 -1120531604 959640793 -1933449045 -1306773160 -169717063 -505949294 -1121732536
REM
CELL 1.54180   50.00000   50.00000   50.00000   90.00000   90.00000   90.00000
LATT -1
SFAC C  
C      1  0.4555640000000  0.4635060000000  0.4759630000000 1.0
C      1  0.5238940000000  0.4067290000000  0.4829920000000 1.0
C      1  0.5678520000000  0.4238280000000  0.5485140000000 1.0
C      1  0.5533540000000  0.4909350000000  0.3917330000000 1.0
C      1  0.5399520000000  0.5104000000000  0.4086610000000 1.0
C      1  0.4135160000000  0.5434930000000  0.5624470000000 1.0
C      1  0.3981830000000  0.4529260000000  0.4657140000000 1.0
C      1  0.5836490000000  0.4397490000000  0.4712730000000 1.0
C      1  0.5305280000000  0.4982570000000  0.6054250000000 1.0
C      1  0.4398910000000  0.5118090000000  0.4958670000000 1.0
C      1  0.4533660000000  0.5571150000000  0.5843280000000 1.0
C      1  0.4783320000000  0.4154680000000  0.5319990000000 1.0
C      1  0.4146920000000  0.4704150000000  0.5630100000000 1.0
C      1  0.5740340000000  0.5610230000000  0.4597060000000 1.0
C      1  0.4065510000000  0.4678160000000  0.5351300000000 1.0
C      1  0.4318770000000  0.5382440000000  0.5840880000000 1.0
C      1  0.5007000000000  0.5120270000000  0.5492650000000 1.0
C      1  0.5345830000000  0.4421480000000  0.4246910000000 1.0
C      1  0.4337680000000  0.4477480000000  0.5710290000000 1.0
C      1  0.3843840000000  0.5257280000000  0.5058570000000 1.0
C      1  0.4045110000000  0.5199190000000  0.4329710000000 1.0
C      1  0.5970780000000  0.5227290000000  0.5200290000000 1.0
C      1  0.4910730000000  0.5985570000000  0.4971770000000 1.0
C      1  0.5074370000000  0.4665530000000  0.3932900000000 1.0
C      1  0.5072070000000  0.4488190000000  0.5161500000000 1.0
C      1  0.4683130000000  0.4758310000000  0.5003400000000 1.0
C      1  0.6081030000000  0.4973770000000  0.4802920000000 1.0
C      1  0.4403220000000  0.5547800000000  0.4336910000000 1.0
C      1  0.5464880000000  0.4178530000000  0.5009720000000 1.0
C      1  0.5028750000000  0.5904330000000  0.4470840000000 1.0
C      1  0.4354870000000  0.5248720000000  0.5204350000000 1.0
C      1  0.4637620000000  0.4309710000000  0.5084770000000 1.0
C      1  0.5898800000000  0.5386940000000  0.4707330000000 1.0
C      1  0.5099370000000  0.4951700000000  0.5256450000000 1.0
C      1  0.5131410000000  0.4791420000000  0.4797800000000 1.0
C      1  0.4542210000000  0.5131990000000  0.5382650000000 1.0
C      1  0.4362740000000  0.5866500000000  0.5478700000000 1.0
C      1  0.4461810000000  0.5135590000000  0.4043380000000 1.0
C      1  0.4480860000000  0.4088680000000  0.5398690000000 1.0
C      1  0.5882970000000  0.5701290000000  0.5152730000000 1.0
C      1  0.5281440000000  0.4549770000000  0.4742130000000 1.0
C      1  0.4399700000000  0.4093480000000  0.5102310000000 1.0
C      1  0.5281600000000  0.4708890000000  0.5961720000000 1.0
C      1  0.5037390000000  0.5091840000000  0.6015610000000 1.0
C      1  0.4185040000000  0.4279980000000  0.5019150000000 1.0
C      1  0.5014280000000  0.5665770000000  0.4063130000000 1.0
C      1  0.4539270000000  0.6011740000000  0.5280970000000 1.0
C      1  0.4184230000000  0.5099700000000  0.4121140000000 1.0
C      1  0.4090480000000  0.4794280000000  0.4633810000000 1.0
C      1  0.5749590000000  0.5026560000000  0.5276390000000 1.0
C      1  0.4590000000000  0.4677360000000  0.4258470000000 1.0
C      1  0.4537280000000  0.5725060000000  0.4548200000000 1.0
C      1  0.4002630000000  0.5185920000000  0.5564440000000 1.0
C      1  0.5473980000000  0.5988420000000  0.5084910000000 1.0
C      1  0.4607420000000  0.5918250000000  0.5006730000000 1.0
C      1  0.3951310000000  0.5049770000000  0.4554170000000 1.0
C      1  0.4759270000000  0.5845290000000  0.4386340000000 1.0
C      1  0.4761150000000  0.5939330000000  0.5663870000000 1.0
C      1  0.4749020000000  0.5747210000000  0.4123100000000 1.0
C      1  0.4954040000000  0.5725520000000  0.5662130000000 1.0
C      1  0.4865590000000  0.5254240000000  0.4467890000000 1.0
C      1  0.5024860000000  0.5959350000000  0.5249650000000 1.0
C      1  0.4629180000000  0.4366220000000  0.4775430000000 1.0
C      1  0.4636160000000  0.4882990000000  0.4033650000000 1.0
C      1  0.5758250000000  0.5032510000000  0.5872870000000 1.0
C      1  0.5647120000000  0.4183370000000  0.4767990000000 1.0
C      1  0.4827030000000  0.4105360000000  0.4395060000000 1.0
C      1  0.4869660000000  0.4597330000000  0.4393030000000 1.0
C      1  0.5336800000000  0.4826990000000  0.5400860000000 1.0
C      1  0.5350250000000  0.4467950000000  0.5048160000000 1.0
C      1  0.5784390000000  0.4884330000000  0.4775870000000 1.0
C      1  0.5091490000000  0.5961050000000  0.4749600000000 1.0
C      1  0.5249410000000  0.4222280000000  0.5633110000000 1.0
C      1  0.4851530000000  0.4470330000000  0.5896130000000 1.0
C      1  0.4527860000000  0.4604760000000  0.5210550000000 1.0
C      1  0.4254080000000  0.4139640000000  0.4538120000000 1.0
C      1  0.4630350000000  0.5510600000000  0.4760100000000 1.0
C      1  0.5414540000000  0.5154830000000  0.4621220000000 1.0
C      1  0.5607230000000  0.4888720000000  0.5024160000000 1.0
C      1  0.5029990000000  0.3900490000000  0.4967240000000 1.0
C      1  0.4706270000000  0.3899760000000  0.4546020000000 1.0
C      1  0.4199310000000  0.5670640000000  0.4883130000000 1.0
C      1  0.5734350000000  0.5913530000000  0.5088560000000 1.0
C      1  0.5737570000000  0.4657780000000  0.4559160000000 1.0
C      1  0.5719000000000  0.4733860000000  0.4070040000000 1.0
C      1  0.5511490000000  0.4079880000000  0.5294780000000 1.0
C      1  0.5462390000000  0.5653860000000  0.4203160000000 1.0
C      1  0.6136430000000  0.4771230000000  0.5222320000000 1.0
C      1  0.5709790000000  0.5138940000000  0.4626670000000 1.0
C      1  0.5277790000000  0.5524400000000  0.5397900000000 1.0
C      1  0.4345710000000  0.4240730000000  0.5571450000000 1.0
C      1  0.5416550000000  0.5776900000000  0.5544210000000 1.0
C      1  0.5349660000000  0.4684810000000  0.3858480000000 1.0
C      1  0.4943840000000  0.5401330000000  0.4710480000000 1.0
C      1  0.4135660000000  0.5449720000000  0.4707810000000 1.0
C      1  0.5715090000000  0.5500460000000  0.5822500000000 1.0
C      1  0.4131100000000  0.4973150000000  0.5726050000000 1.0
C      1  0.5914800000000  0.5058200000000  0.4402870000000 1.0
C      1  0.5903260000000  0.4411790000000  0.5439620000000 1.0
C      1  0.3956630000000  0.5219330000000  0.4806080000000 1.0
C      1  0.5017410000000  0.5374070000000  0.5964920000000 1.0
C      1  0.6047300000000  0.4497600000000  0.5183390000000 1.0
C      1  0.4601920000000  0.5607610000000  0.5059420000000 1.0
C      1  0.5049480000000  0.4430930000000  0.5660380000000 1.0
C      1  0.5058760000000  0.5053420000000  0.4343500000000 1.0
C      1  0.4207170000000  0.5639510000000  0.5416920000000 1.0
C      1  0.5397810000000  0.5412160000000  0.4049220000000 1.0
C      1  0.4574780000000  0.5271940000000  0.4318210000000 1.0
C      1  0.4675910000000  0.4815030000000  0.5687150000000 1.0
C      1  0.5317820000000  0.5981080000000  0.5323030000000 1.0
C      1  0.4342220000000  0.4255710000000  0.4302020000000 1.0
C      1  0.4854880000000  0.4346460000000  0.4583930000000 1.0
C      1  0.4417010000000  0.4789980000000  0.4526400000000 1.0
C      1  0.4810430000000  0.5477740000000  0.5769330000000 1.0
C      1  0.5871230000000  0.5274480000000  0.5736950000000 1.0
C      1  0.4772400000000  0.5299090000000  0.5461790000000 1.0
C      1  0.5429170000000  0.4653220000000  0.4488140000000 1.0
C      1  0.5693890000000  0.5701130000000  0.4346260000000 1.0
C      1  0.5394790000000  0.5343010000000  0.5194590000000 1.0
C      1  0.4695980000000  0.5045420000000  0.4932520000000 1.0
C      1  0.5694510000000  0.5704380000000  0.5622520000000 1.0
C      1  0.5123330000000  0.5414620000000  0.3971710000000 1.0
C      1  0.4781040000000  0.6065000000000  0.5411270000000 1.0
C      1  0.4124810000000  0.4956290000000  0.4920520000000 1.0
C      1  0.5467850000000  0.5612560000000  0.4778340000000 1.0
C      1  0.4483410000000  0.5391980000000  0.3901210000000 1.0
C      1  0.5034600000000  0.4472020000000  0.4154660000000 1.0
C      1  0.5182190000000  0.4715130000000  0.5664370000000 1.0
C      1  0.5192750000000  0.5784530000000  0.4251690000000 1.0
C      1  0.5015670000000  0.5661940000000  0.5349490000000 1.0
C      1  0.3886030000000  0.5124030000000  0.5300730000000 1.0
C      1  0.5527870000000  0.4566530000000  0.5871190000000 1.0
C      1  0.4561230000000  0.4853190000000  0.5425470000000 1.0
C      1  0.5114950000000  0.4311420000000  0.4701490000000 1.0
C      1  0.4787880000000  0.3847550000000  0.4827050000000 1.0
C      1  0.4426140000000  0.3932840000000  0.4633800000000 1.0
C      1  0.3987820000000  0.4884060000000  0.5184980000000 1.0
C      1  0.5484000000000  0.4678270000000  0.5187640000000 1.0
C      1  0.4748840000000  0.5030940000000  0.4636650000000 1.0
C      1  0.4093350000000  0.4294100000000  0.4743110000000 1.0
C      1  0.6097410000000  0.5171710000000  0.4593360000000 1.0
C      1  0.5580570000000  0.5468430000000  0.5009130000000 1.0
C      1  0.5484470000000  0.5095000000000  0.5422720000000 1.0
C      1  0.5751790000000  0.4741310000000  0.5824660000000 1.0
C      1  0.4927450000000  0.5277360000000  0.4992900000000 1.0
C      1  0.4935910000000  0.4390290000000  0.5399990000000 1.0
C      1  0.5343900000000  0.5001300000000  0.4870700000000 1.0
C      1  0.4233740000000  0.4518080000000  0.5186480000000 1.0
C      1  0.5521910000000  0.4522940000000  0.4022760000000 1.0
C      1  0.5353510000000  0.5880530000000  0.4845170000000 1.0
C      1  0.4827210000000  0.5473250000000  0.5217520000000 1.0
C      1  0.5081930000000  0.5121180000000  0.4032660000000 1.0
C      1  0.4957490000000  0.4839050000000  0.4543140000000 1.0
C      1  0.4398050000000  0.5850970000000  0.4782850000000 1.0
C      1  0.4592140000000  0.4567840000000  0.5818800000000 1.0
C      1  0.4407990000000  0.5293620000000  0.4729590000000 1.0
C      1  0.5261940000000  0.5266160000000  0.5552690000000 1.0
C      1  0.4506250000000  0.3899900000000  0.4908290000000 1.0
C      1  0.5252690000000  0.5539300000000  0.5961250000000 1.0
C      1  0.5911210000000  0.4643170000000  0.5610720000000 1.0
C      1  0.5535010000000  0.5134590000000  0.6021560000000 1.0
C      1  0.4909050000000  0.4902530000000  0.3932420000000 1.0
C      1  0.4571740000000  0.4926960000000  0.5947690000000 1.0
C      1  0.4978880000000  0.4652490000000  0.6064330000000 1.0
C      1  0.5895050000000  0.5628510000000  0.5431570000000 1.0
C      1  0.6003610000000  0.4427880000000  0.4925410000000 1.0
C      1  0.5857280000000  0.4797490000000  0.4308300000000 1.0
C      1  0.5507140000000  0.4327510000000  0.5698260000000 1.0
C      1  0.4964580000000  0.4922750000000  0.5699710000000 1.0
C      1  0.4484440000000  0.5087380000000  0.4527230000000 1.0
C      1  0.5394740000000  0.4157670000000  0.4354450000000 1.0
C      1  0.6157960000000  0.5008910000000  0.5068970000000 1.0
C      1  0.5505770000000  0.5418340000000  0.5992430000000 1.0
C      1  0.4814800000000  0.4244390000000  0.4147820000000 1.0
C      1  0.5878650000000  0.5439540000000  0.5004680000000 1.0
C      1  0.4305560000000  0.5544420000000  0.5151790000000 1.0
C      1  0.5252490000000  0.4035930000000  0.5406870000000 1.0
C      1  0.4544780000000  0.4376930000000  0.4179000000000 1.0
C      1  0.5968620000000  0.4849490000000  0.5432330000000 1.0
C      1  0.5980270000000  0.5363400000000  0.5473260000000 1.0
C      1  0.4836900000000  0.4900860000000  0.6099090000000 1.0
C      1  0.5344940000000  0.4980800000000  0.4387950000000 1.0
C      1  0.4334230000000  0.5093350000000  0.5900980000000 1.0
C      1  0.5016600000000  0.3978370000000  0.5252300000000 1.0
C      1  0.5452290000000  0.4063470000000  0.4597780000000 1.0
C      1  0.4504000000000  0.5830460000000  0.5719560000000 1.0
C      1  0.5264920000000  0.5420370000000  0.4649400000000 1.0
C      1  0.5223090000000  0.5748430000000  0.5771030000000 1.0
C      1  0.4977370000000  0.4740580000000  0.5061700000000 1.0
C      1  0.5193620000000  0.5164400000000  0.5067110000000 1.0
C      1  0.4143420000000  0.5455990000000  0.4416720000000 1.0
C      1  0.4507020000000  0.5610950000000  0.4062540000000 1.0
END
