TITL C-21776-3093-9 -0.0386436791059967 125000 -660.599511782411 0 0 95 (C1) n - 1
REM
REM in /rds/project/t2_vol4/rds-t2-cs072/BORA/CARBON/from-Arr/AIRSS/Generating-Clusters/GAP-ML-2020/Only-C1/SD-CG/HFTN-CG
REM
REM
REM
REM
REM
REM ./C.cell (11c1c37f851c82e70ff6c80c92926a4b)
REM AIRSS Version 0.9.1 bugfix July 2018 build 013d7b7c2542+ Fri, 06 Jul 2018 19:26:36 +0100
REM compiler GCC version 9.3.0
REM options -cpp -mtune=generic -march=x86-64 -g -O0
REM seed 623074393 -1214335286 507768316 1109042501 831976136 764740601 1215175018 -1484500616 539130425 812296140 -33708765 395275893 -1421247935 -1665686819 524191278 1713365966 -57237401 494196793 -1548754147 2063687680 1098617548 523689490 1023940652 1546413384 1482578868 1178191215 526410402 1135276647 -67580259 -1551513822 1982421286 851510375 -1600329943
REM
CELL 1.54180   50.00000   50.00000   50.00000   90.00000   90.00000   90.00000
LATT -1
SFAC C  
C      1  0.5169560000000  0.4708780000000  0.5713440000000 1.0
C      1  0.4553050000000  0.5016670000000  0.4831720000000 1.0
C      1  0.5659720000000  0.5417240000000  0.5326390000000 1.0
C      1  0.4412720000000  0.4889090000000  0.5702050000000 1.0
C      1  0.4935950000000  0.5507430000000  0.5109710000000 1.0
C      1  0.4436120000000  0.5075230000000  0.4389320000000 1.0
C      1  0.4378710000000  0.4733420000000  0.5463870000000 1.0
C      1  0.5457950000000  0.5023610000000  0.5370370000000 1.0
C      1  0.5339060000000  0.4968990000000  0.4853640000000 1.0
C      1  0.5292890000000  0.5829240000000  0.5027080000000 1.0
C      1  0.4955770000000  0.4227000000000  0.5305410000000 1.0
C      1  0.5017240000000  0.5786820000000  0.5039950000000 1.0
C      1  0.5457430000000  0.5430950000000  0.4707290000000 1.0
C      1  0.4269860000000  0.4930500000000  0.5271970000000 1.0
C      1  0.4935860000000  0.4699510000000  0.4848620000000 1.0
C      1  0.4850060000000  0.5439660000000  0.5378960000000 1.0
C      1  0.5781580000000  0.5011790000000  0.4715670000000 1.0
C      1  0.5242560000000  0.4213930000000  0.5300290000000 1.0
C      1  0.4475120000000  0.5356660000000  0.4428860000000 1.0
C      1  0.4447950000000  0.5127470000000  0.5791260000000 1.0
C      1  0.5424370000000  0.5135690000000  0.5645850000000 1.0
C      1  0.5307380000000  0.5290490000000  0.4249750000000 1.0
C      1  0.5511700000000  0.5672080000000  0.4894850000000 1.0
C      1  0.5771250000000  0.4640980000000  0.5318950000000 1.0
C      1  0.5823960000000  0.5012450000000  0.5000180000000 1.0
C      1  0.4798750000000  0.4420510000000  0.5465450000000 1.0
C      1  0.5444890000000  0.5053890000000  0.4407050000000 1.0
C      1  0.4878450000000  0.5183470000000  0.4277380000000 1.0
C      1  0.5036250000000  0.5201070000000  0.4574370000000 1.0
C      1  0.4125050000000  0.5046170000000  0.4801140000000 1.0
C      1  0.5206400000000  0.5444320000000  0.4506550000000 1.0
C      1  0.5098560000000  0.4609890000000  0.5042360000000 1.0
C      1  0.4779780000000  0.5776270000000  0.4647480000000 1.0
C      1  0.4793710000000  0.4940470000000  0.4942990000000 1.0
C      1  0.5611660000000  0.5649400000000  0.5175630000000 1.0
C      1  0.5209570000000  0.4993050000000  0.5782150000000 1.0
C      1  0.4173930000000  0.4854260000000  0.5021280000000 1.0
C      1  0.5610820000000  0.4330830000000  0.5007950000000 1.0
C      1  0.4807520000000  0.5906300000000  0.4909300000000 1.0
C      1  0.4877860000000  0.4160600000000  0.5040340000000 1.0
C      1  0.5346700000000  0.4186000000000  0.5028140000000 1.0
C      1  0.5409780000000  0.4591040000000  0.5604540000000 1.0
C      1  0.4587020000000  0.5358760000000  0.5717370000000 1.0
C      1  0.5623230000000  0.5207190000000  0.4578560000000 1.0
C      1  0.5666220000000  0.4382960000000  0.5281990000000 1.0
C      1  0.5158200000000  0.5058910000000  0.5259550000000 1.0
C      1  0.4916190000000  0.5194890000000  0.4844000000000 1.0
C      1  0.4551950000000  0.5642080000000  0.4774450000000 1.0
C      1  0.5381590000000  0.5768110000000  0.5301210000000 1.0
C      1  0.4344280000000  0.5480680000000  0.4643040000000 1.0
C      1  0.5402870000000  0.5245820000000  0.4934880000000 1.0
C      1  0.4711480000000  0.5413720000000  0.4922720000000 1.0
C      1  0.4739250000000  0.5432680000000  0.4348490000000 1.0
C      1  0.5043540000000  0.4718750000000  0.4548420000000 1.0
C      1  0.4287980000000  0.4930680000000  0.4589040000000 1.0
C      1  0.5096890000000  0.5240290000000  0.4091350000000 1.0
C      1  0.4464290000000  0.4434460000000  0.5081920000000 1.0
C      1  0.5291480000000  0.4562510000000  0.4423660000000 1.0
C      1  0.4531870000000  0.4504200000000  0.5356750000000 1.0
C      1  0.5133120000000  0.5273390000000  0.5050510000000 1.0
C      1  0.4546220000000  0.5436710000000  0.5426970000000 1.0
C      1  0.4683270000000  0.4964110000000  0.4305340000000 1.0
C      1  0.4461000000000  0.5164020000000  0.5262390000000 1.0
C      1  0.5079760000000  0.4148410000000  0.4583450000000 1.0
C      1  0.5717280000000  0.4740770000000  0.4625650000000 1.0
C      1  0.5113300000000  0.4128730000000  0.4872000000000 1.0
C      1  0.5625380000000  0.5176840000000  0.5160110000000 1.0
C      1  0.4816150000000  0.4117920000000  0.4501430000000 1.0
C      1  0.5235890000000  0.4833550000000  0.5081930000000 1.0
C      1  0.5253750000000  0.4297440000000  0.4420600000000 1.0
C      1  0.4971760000000  0.5128540000000  0.5737040000000 1.0
C      1  0.4340690000000  0.4653140000000  0.4638920000000 1.0
C      1  0.4730590000000  0.5002890000000  0.5247020000000 1.0
C      1  0.4463180000000  0.5254050000000  0.4988970000000 1.0
C      1  0.5746870000000  0.4560230000000  0.4862010000000 1.0
C      1  0.5438430000000  0.4344450000000  0.5457220000000 1.0
C      1  0.4765060000000  0.4717970000000  0.4407770000000 1.0
C      1  0.4631090000000  0.4250070000000  0.4931230000000 1.0
C      1  0.5479570000000  0.5401780000000  0.5558560000000 1.0
C      1  0.4942280000000  0.4570950000000  0.5646350000000 1.0
C      1  0.4220900000000  0.5311660000000  0.4838980000000 1.0
C      1  0.5590510000000  0.4779540000000  0.5486910000000 1.0
C      1  0.4480700000000  0.5696720000000  0.5279160000000 1.0
C      1  0.4564340000000  0.4537440000000  0.4522470000000 1.0
C      1  0.4920840000000  0.5126570000000  0.5420760000000 1.0
C      1  0.5847830000000  0.4740400000000  0.5066520000000 1.0
C      1  0.4868970000000  0.5388640000000  0.5799940000000 1.0
C      1  0.5002370000000  0.5554400000000  0.5600880000000 1.0
C      1  0.4644320000000  0.4280760000000  0.4637740000000 1.0
C      1  0.4548310000000  0.5790350000000  0.5039440000000 1.0
C      1  0.5211010000000  0.4972160000000  0.4587410000000 1.0
C      1  0.5517700000000  0.4754010000000  0.4419840000000 1.0
C      1  0.5274660000000  0.5605500000000  0.5526190000000 1.0
C      1  0.4286440000000  0.4607450000000  0.4923720000000 1.0
C      1  0.4930570000000  0.5618520000000  0.4467610000000 1.0
END
