TITL C-21794-2082-7 466.810699489311 125000 -875.633969880533 0 0 126 (C1) n - 1
REM
REM in /rds/project/t2_vol4/rds-t2-cs072/BORA/CARBON/from-Arr/AIRSS/Generating-Clusters/GAP-ML-2020/Only-C1/SD-CG/HFTN-CG
REM
REM
REM
REM
REM
REM ./C.cell (11c1c37f851c82e70ff6c80c92926a4b)
REM AIRSS Version 0.9.1 bugfix July 2018 build 013d7b7c2542+ Fri, 06 Jul 2018 19:26:36 +0100
REM compiler GCC version 9.3.0
REM options -cpp -mtune=generic -march=x86-64 -g -O0
REM seed -1740407552 -66979721 -479849365 -2050674679 1038666950 -1135954988 -1916034742 -1041518937 -1434777005 -862259394 -1328994697 38670512 -70147036 -1559058500 -495495537 -1969519302 741427130 2116181904 -1575458529 -1595677062 -1686111134 1281219580 -650975322 -711402620 423469040 1663377356 1993298882 156209052 622090354 -1299059159 1512130359 -2029047702 1811416718
REM
CELL 1.54180   50.00000   50.00000   50.00000   90.00000   90.00000   90.00000
LATT -1
SFAC C  
C      1  0.5222920000000  0.5906720000000  0.4675770000000 1.0
C      1  0.5569900000000  0.5019920000000  0.4576000000000 1.0
C      1  0.5276870000000  0.5493150000000  0.4255330000000 1.0
C      1  0.5093800000000  0.4876160000000  0.6063920000000 1.0
C      1  0.4705000000000  0.4277240000000  0.5491690000000 1.0
C      1  0.5454660000000  0.5805540000000  0.5428120000000 1.0
C      1  0.4358420000000  0.4776250000000  0.5020290000000 1.0
C      1  0.5250570000000  0.5953850000000  0.4956170000000 1.0
C      1  0.4150840000000  0.4814410000000  0.5404620000000 1.0
C      1  0.5188070000000  0.5856210000000  0.5493670000000 1.0
C      1  0.5320680000000  0.4387600000000  0.4626040000000 1.0
C      1  0.4323480000000  0.4253990000000  0.5177640000000 1.0
C      1  0.5814500000000  0.4883220000000  0.4658510000000 1.0
C      1  0.5360080000000  0.5443450000000  0.4545040000000 1.0
C      1  0.4445050000000  0.4420180000000  0.5393210000000 1.0
C      1  0.5133430000000  0.4050100000000  0.4940790000000 1.0
C      1  0.5092170000000  0.4104890000000  0.5217210000000 1.0
C      1  0.4323880000000  0.5319230000000  0.4306580000000 1.0
C      1  0.4992820000000  0.5875760000000  0.5068570000000 1.0
C      1  0.4838710000000  0.5407510000000  0.5452670000000 1.0
C      1  0.5054140000000  0.5050530000000  0.4091790000000 1.0
C      1  0.5036320000000  0.4658270000000  0.5272860000000 1.0
C      1  0.5470180000000  0.4844170000000  0.5204940000000 1.0
C      1  0.4398060000000  0.4233120000000  0.4920020000000 1.0
C      1  0.5324400000000  0.4987780000000  0.4765900000000 1.0
C      1  0.4986910000000  0.4778030000000  0.4151790000000 1.0
C      1  0.5615640000000  0.5305970000000  0.4530830000000 1.0
C      1  0.4802730000000  0.4923180000000  0.4828450000000 1.0
C      1  0.5217860000000  0.4680530000000  0.4823730000000 1.0
C      1  0.5967620000000  0.5233490000000  0.4270980000000 1.0
C      1  0.4863500000000  0.5266280000000  0.4136630000000 1.0
C      1  0.5275290000000  0.5046590000000  0.5962300000000 1.0
C      1  0.5330530000000  0.5097990000000  0.5670360000000 1.0
C      1  0.4899040000000  0.4294280000000  0.5698490000000 1.0
C      1  0.5545280000000  0.4267780000000  0.5293250000000 1.0
C      1  0.5587100000000  0.5623350000000  0.5222960000000 1.0
C      1  0.4857230000000  0.5176900000000  0.5015400000000 1.0
C      1  0.4503130000000  0.4905270000000  0.4809510000000 1.0
C      1  0.5187540000000  0.4280170000000  0.5638490000000 1.0
C      1  0.4892670000000  0.3998350000000  0.4804210000000 1.0
C      1  0.4803520000000  0.4921840000000  0.6051120000000 1.0
C      1  0.5722850000000  0.5342900000000  0.4273130000000 1.0
C      1  0.5746490000000  0.5114750000000  0.5383320000000 1.0
C      1  0.5613510000000  0.5370490000000  0.5373730000000 1.0
C      1  0.5887050000000  0.4947120000000  0.5177260000000 1.0
C      1  0.4905070000000  0.5067520000000  0.4595100000000 1.0
C      1  0.4453340000000  0.5106860000000  0.5330500000000 1.0
C      1  0.5187130000000  0.4587420000000  0.4223900000000 1.0
C      1  0.4777170000000  0.5509810000000  0.4670560000000 1.0
C      1  0.5152780000000  0.5212390000000  0.4671840000000 1.0
C      1  0.4536450000000  0.4891170000000  0.4278470000000 1.0
C      1  0.4564230000000  0.5729900000000  0.4323890000000 1.0
C      1  0.5329540000000  0.5656740000000  0.5629030000000 1.0
C      1  0.5131930000000  0.5565040000000  0.5071040000000 1.0
C      1  0.4750850000000  0.4708800000000  0.4289930000000 1.0
C      1  0.4820580000000  0.4519000000000  0.5106350000000 1.0
C      1  0.4941140000000  0.4933780000000  0.5337770000000 1.0
C      1  0.5343600000000  0.5054750000000  0.5047760000000 1.0
C      1  0.4691780000000  0.5138160000000  0.5899300000000 1.0
C      1  0.4428940000000  0.5063850000000  0.5808200000000 1.0
C      1  0.5580410000000  0.4268020000000  0.5008820000000 1.0
C      1  0.4826360000000  0.4508660000000  0.4510080000000 1.0
C      1  0.5092820000000  0.5133730000000  0.5179450000000 1.0
C      1  0.4994260000000  0.5394790000000  0.4858660000000 1.0
C      1  0.4876900000000  0.4499110000000  0.5900630000000 1.0
C      1  0.4671090000000  0.5251530000000  0.4552790000000 1.0
C      1  0.4465690000000  0.5659530000000  0.5381830000000 1.0
C      1  0.4666640000000  0.4690230000000  0.5948790000000 1.0
C      1  0.4346800000000  0.5232980000000  0.5591600000000 1.0
C      1  0.4655100000000  0.5301170000000  0.5212220000000 1.0
C      1  0.5056250000000  0.4692810000000  0.5596870000000 1.0
C      1  0.4073170000000  0.5181880000000  0.4953030000000 1.0
C      1  0.5495990000000  0.4921290000000  0.4287140000000 1.0
C      1  0.5953270000000  0.5009210000000  0.4905320000000 1.0
C      1  0.5116680000000  0.5393070000000  0.5321300000000 1.0
C      1  0.5554620000000  0.4499380000000  0.4501120000000 1.0
C      1  0.4744000000000  0.5695450000000  0.5449160000000 1.0
C      1  0.4914980000000  0.4641650000000  0.4825700000000 1.0
C      1  0.4587980000000  0.5680490000000  0.4843270000000 1.0
C      1  0.4487200000000  0.5526950000000  0.5093790000000 1.0
C      1  0.5458580000000  0.4647530000000  0.4278330000000 1.0
C      1  0.4290460000000  0.4647840000000  0.5558740000000 1.0
C      1  0.5402540000000  0.5684830000000  0.4695870000000 1.0
C      1  0.5468240000000  0.5351420000000  0.4109200000000 1.0
C      1  0.5367730000000  0.4184490000000  0.4833460000000 1.0
C      1  0.4992310000000  0.5506910000000  0.4221230000000 1.0
C      1  0.4340150000000  0.5611590000000  0.4698870000000 1.0
C      1  0.5550080000000  0.4646580000000  0.5610780000000 1.0
C      1  0.4951050000000  0.5893610000000  0.4602870000000 1.0
C      1  0.5045730000000  0.4995310000000  0.5610680000000 1.0
C      1  0.5354500000000  0.5369880000000  0.5530260000000 1.0
C      1  0.5747500000000  0.4679760000000  0.5171910000000 1.0
C      1  0.5298640000000  0.4544670000000  0.5728430000000 1.0
C      1  0.4611030000000  0.4306570000000  0.4564900000000 1.0
C      1  0.5135220000000  0.4604400000000  0.5977820000000 1.0
C      1  0.5335470000000  0.5102180000000  0.4126670000000 1.0
C      1  0.4641900000000  0.4881970000000  0.5355520000000 1.0
C      1  0.4836570000000  0.5690990000000  0.4410550000000 1.0
C      1  0.4844750000000  0.4244520000000  0.5246910000000 1.0
C      1  0.4333100000000  0.4694450000000  0.4674770000000 1.0
C      1  0.4558680000000  0.4639110000000  0.5197320000000 1.0
C      1  0.4376960000000  0.4415220000000  0.4689800000000 1.0
C      1  0.4799500000000  0.5891060000000  0.4850210000000 1.0
C      1  0.4430210000000  0.5177280000000  0.4708580000000 1.0
C      1  0.5758070000000  0.4595470000000  0.4676170000000 1.0
C      1  0.4205230000000  0.5124710000000  0.4497870000000 1.0
C      1  0.4941240000000  0.5880480000000  0.5360100000000 1.0
C      1  0.5295820000000  0.4168310000000  0.5402580000000 1.0
C      1  0.5669660000000  0.4498810000000  0.5400480000000 1.0
C      1  0.4347620000000  0.5501340000000  0.5568560000000 1.0
C      1  0.4355550000000  0.5583540000000  0.4414300000000 1.0
C      1  0.4651070000000  0.4101740000000  0.4763840000000 1.0
C      1  0.5535880000000  0.4929650000000  0.5511640000000 1.0
C      1  0.4860910000000  0.5222280000000  0.5687640000000 1.0
C      1  0.4428430000000  0.4775300000000  0.5791550000000 1.0
C      1  0.4291870000000  0.5393550000000  0.4892520000000 1.0
C      1  0.4595250000000  0.5188390000000  0.4259230000000 1.0
C      1  0.5739550000000  0.4494350000000  0.4940150000000 1.0
C      1  0.4307690000000  0.4854590000000  0.4433560000000 1.0
C      1  0.5097880000000  0.4423210000000  0.4428940000000 1.0
C      1  0.6142470000000  0.5127720000000  0.4733690000000 1.0
C      1  0.4210970000000  0.4981020000000  0.5167730000000 1.0
C      1  0.3996720000000  0.5138280000000  0.4694590000000 1.0
C      1  0.6031740000000  0.5071890000000  0.4483990000000 1.0
C      1  0.5410460000000  0.5679940000000  0.4993550000000 1.0
C      1  0.5275760000000  0.4651680000000  0.5115150000000 1.0
END
