TITL C-21688-8431-1 -21.9813874657072 125000 -273.813843663041 0 0 41 (C1) n - 1
REM
REM in /rds/project/t2_vol4/rds-t2-cs072/BORA/CARBON/from-Arr/AIRSS/Generating-Clusters/GAP-ML-2020/Only-C1/SD-CG/HFTN-CG
REM
REM
REM
REM
REM
REM ./C.cell (11c1c37f851c82e70ff6c80c92926a4b)
REM AIRSS Version 0.9.1 bugfix July 2018 build 013d7b7c2542+ Fri, 06 Jul 2018 19:26:36 +0100
REM compiler GCC version 9.3.0
REM options -cpp -mtune=generic -march=x86-64 -g -O0
REM seed -1005031057 434492491 1548599177 694623998 -454417144 885103314 -370338997 1319671269 -726949559 161743503 1712248807 -1926666644 2089384742 812709411 469122294 -1955914049 2016739307 1541326212 -571633325 -146532936 -1174049024 -706997734 358612218 493623703 1612190927 -110020399 -150919714 868039967 -974527393 1698954534 -1104279204 -1646732641 1546446088
REM
CELL 1.54180   50.00000   50.00000   50.00000   90.00000   90.00000   90.00000
LATT -1
SFAC C  
C      1  0.4801260000000  0.5411390000000  0.5031770000000 1.0
C      1  0.5656830000000  0.5095550000000  0.4868220000000 1.0
C      1  0.5510780000000  0.5338930000000  0.5162850000000 1.0
C      1  0.4564190000000  0.5308280000000  0.4860400000000 1.0
C      1  0.4831800000000  0.5152820000000  0.5440640000000 1.0
C      1  0.5108510000000  0.4643280000000  0.5410920000000 1.0
C      1  0.5212060000000  0.4422330000000  0.5274050000000 1.0
C      1  0.4411330000000  0.4873840000000  0.5348040000000 1.0
C      1  0.4436030000000  0.4654080000000  0.5148730000000 1.0
C      1  0.4566960000000  0.5008710000000  0.4788100000000 1.0
C      1  0.5229230000000  0.5334870000000  0.5224050000000 1.0
C      1  0.5263830000000  0.4893450000000  0.5434830000000 1.0
C      1  0.5029630000000  0.4530890000000  0.4847850000000 1.0
C      1  0.5620590000000  0.4589660000000  0.4681290000000 1.0
C      1  0.4820870000000  0.4426990000000  0.4986860000000 1.0
C      1  0.4361580000000  0.5305900000000  0.5093440000000 1.0
C      1  0.5024660000000  0.4766840000000  0.4681090000000 1.0
C      1  0.4675090000000  0.4509460000000  0.5197800000000 1.0
C      1  0.5515720000000  0.4388580000000  0.4811940000000 1.0
C      1  0.5254300000000  0.4924510000000  0.4617450000000 1.0
C      1  0.4706280000000  0.5349500000000  0.4394920000000 1.0
C      1  0.4567180000000  0.5432330000000  0.4590810000000 1.0
C      1  0.5432530000000  0.4737270000000  0.5032180000000 1.0
C      1  0.5504070000000  0.4861200000000  0.4766040000000 1.0
C      1  0.5254350000000  0.5430070000000  0.4738630000000 1.0
C      1  0.5072840000000  0.5405020000000  0.5002710000000 1.0
C      1  0.5301910000000  0.5692600000000  0.4628880000000 1.0
C      1  0.5526080000000  0.5340680000000  0.4872160000000 1.0
C      1  0.4440990000000  0.5456270000000  0.5307840000000 1.0
C      1  0.5655480000000  0.5095500000000  0.5175020000000 1.0
C      1  0.5288800000000  0.4486260000000  0.4997850000000 1.0
C      1  0.4705400000000  0.5373850000000  0.5301400000000 1.0
C      1  0.4895750000000  0.5158760000000  0.4479190000000 1.0
C      1  0.5167860000000  0.5186350000000  0.4542110000000 1.0
C      1  0.5497770000000  0.4874150000000  0.5259210000000 1.0
C      1  0.4825140000000  0.4661030000000  0.5408200000000 1.0
C      1  0.4683790000000  0.4904920000000  0.5454700000000 1.0
C      1  0.4386810000000  0.4855900000000  0.4948240000000 1.0
C      1  0.4284440000000  0.5045020000000  0.5153490000000 1.0
C      1  0.5115990000000  0.5139140000000  0.5406380000000 1.0
C      1  0.4791280000000  0.4933820000000  0.4629700000000 1.0
END
