TITL C-21835-6217-2 0.225514406780597 125000 -501.167922732039 0 0 73 (C1) n - 1
REM
REM in /rds/project/t2_vol4/rds-t2-cs072/BORA/CARBON/from-Arr/AIRSS/Generating-Clusters/GAP-ML-2020/Only-C1/SD-CG/HFTN-CG
REM
REM
REM
REM
REM
REM ./C.cell (11c1c37f851c82e70ff6c80c92926a4b)
REM AIRSS Version 0.9.1 bugfix July 2018 build 013d7b7c2542+ Fri, 06 Jul 2018 19:26:36 +0100
REM compiler GCC version 9.3.0
REM options -cpp -mtune=generic -march=x86-64 -g -O0
REM seed -1760548646 1780254424 -1306555260 414121094 -729288570 1742314628 -447712107 -1980412318 -367407639 1331070923 1097383428 1132966719 -140936757 1510085101 536606758 2024846806 1872875116 -168486780 -737928167 1700721331 -568014116 -1305793675 765538281 -930919216 -725650506 -1541165570 773984371 652838215 -325404944 400408050 1173870108 842270168 1227696209
REM
CELL 1.54180   50.00000   50.00000   50.00000   90.00000   90.00000   90.00000
LATT -1
SFAC C  
C      1  0.5124590000000  0.5252560000000  0.4771180000000 1.0
C      1  0.4451070000000  0.4527820000000  0.5384900000000 1.0
C      1  0.4729720000000  0.5651960000000  0.4937720000000 1.0
C      1  0.5662600000000  0.5427770000000  0.4501540000000 1.0
C      1  0.4786060000000  0.4852210000000  0.5178590000000 1.0
C      1  0.5249620000000  0.4988280000000  0.4738360000000 1.0
C      1  0.4878410000000  0.4486870000000  0.5578700000000 1.0
C      1  0.5097340000000  0.4327820000000  0.4771110000000 1.0
C      1  0.4891860000000  0.4958820000000  0.5715130000000 1.0
C      1  0.4749880000000  0.4737120000000  0.5661740000000 1.0
C      1  0.4767890000000  0.5595850000000  0.5424360000000 1.0
C      1  0.5665180000000  0.5220030000000  0.4679720000000 1.0
C      1  0.4352950000000  0.5014340000000  0.4869490000000 1.0
C      1  0.5223250000000  0.5591580000000  0.4484520000000 1.0
C      1  0.4206410000000  0.5453010000000  0.5004740000000 1.0
C      1  0.4843240000000  0.5198880000000  0.4836590000000 1.0
C      1  0.4666900000000  0.5366700000000  0.5563090000000 1.0
C      1  0.4434160000000  0.5260720000000  0.5427550000000 1.0
C      1  0.5301560000000  0.4813780000000  0.4982770000000 1.0
C      1  0.5077680000000  0.4616400000000  0.4896810000000 1.0
C      1  0.4766970000000  0.5432250000000  0.4465750000000 1.0
C      1  0.5073410000000  0.5049140000000  0.4249660000000 1.0
C      1  0.5020780000000  0.4795200000000  0.4646080000000 1.0
C      1  0.5029890000000  0.4778500000000  0.4212620000000 1.0
C      1  0.5052770000000  0.5604620000000  0.5421650000000 1.0
C      1  0.4856010000000  0.5111010000000  0.5116180000000 1.0
C      1  0.5447010000000  0.4954260000000  0.5476980000000 1.0
C      1  0.5690180000000  0.4862120000000  0.5333500000000 1.0
C      1  0.5412840000000  0.5408550000000  0.4370820000000 1.0
C      1  0.5338720000000  0.4704990000000  0.5599040000000 1.0
C      1  0.4647450000000  0.5425740000000  0.4749060000000 1.0
C      1  0.5603550000000  0.4597320000000  0.5231560000000 1.0
C      1  0.4676730000000  0.4349040000000  0.5416750000000 1.0
C      1  0.5587540000000  0.4726460000000  0.4957290000000 1.0
C      1  0.5471780000000  0.4497180000000  0.4540160000000 1.0
C      1  0.4778420000000  0.4984590000000  0.4624450000000 1.0
C      1  0.4609990000000  0.5636870000000  0.5194910000000 1.0
C      1  0.4376050000000  0.5304810000000  0.4842140000000 1.0
C      1  0.4830150000000  0.4255510000000  0.4729320000000 1.0
C      1  0.5596630000000  0.4700880000000  0.4652870000000 1.0
C      1  0.5495730000000  0.4993310000000  0.4568560000000 1.0
C      1  0.5731520000000  0.4970300000000  0.5071670000000 1.0
C      1  0.4895350000000  0.5219510000000  0.5662050000000 1.0
C      1  0.4876440000000  0.4633040000000  0.5088560000000 1.0
C      1  0.4959540000000  0.5608460000000  0.4397280000000 1.0
C      1  0.5264060000000  0.4953580000000  0.5234880000000 1.0
C      1  0.5163040000000  0.5699190000000  0.5177910000000 1.0
C      1  0.5700300000000  0.5222710000000  0.4964640000000 1.0
C      1  0.5000400000000  0.5706370000000  0.4940720000000 1.0
C      1  0.5215780000000  0.5546950000000  0.4788500000000 1.0
C      1  0.4998110000000  0.4591360000000  0.4423500000000 1.0
C      1  0.4341660000000  0.4594050000000  0.5130450000000 1.0
C      1  0.5405410000000  0.4502050000000  0.5393300000000 1.0
C      1  0.4384550000000  0.5451050000000  0.5212380000000 1.0
C      1  0.4706720000000  0.4177830000000  0.5205650000000 1.0
C      1  0.4529350000000  0.4591060000000  0.4678580000000 1.0
C      1  0.5390890000000  0.5603160000000  0.5027990000000 1.0
C      1  0.4368600000000  0.4985490000000  0.5392350000000 1.0
C      1  0.5226170000000  0.4394990000000  0.4520580000000 1.0
C      1  0.4640280000000  0.4232550000000  0.4950050000000 1.0
C      1  0.5101930000000  0.5175590000000  0.5233440000000 1.0
C      1  0.4297230000000  0.4880610000000  0.5121710000000 1.0
C      1  0.5589570000000  0.5397320000000  0.5407950000000 1.0
C      1  0.5593810000000  0.5435600000000  0.5132870000000 1.0
C      1  0.4842170000000  0.5156280000000  0.4388440000000 1.0
C      1  0.5418480000000  0.5246680000000  0.5554040000000 1.0
C      1  0.4483540000000  0.4762080000000  0.5536410000000 1.0
C      1  0.5163940000000  0.4494930000000  0.5548870000000 1.0
C      1  0.5136990000000  0.5337820000000  0.5522190000000 1.0
C      1  0.5344910000000  0.5135040000000  0.4335810000000 1.0
C      1  0.4446860000000  0.4448030000000  0.4911900000000 1.0
C      1  0.4511000000000  0.4871400000000  0.4683470000000 1.0
C      1  0.4748410000000  0.4460040000000  0.4553900000000 1.0
END
