TITL C-2114531-1652-6 440.681345719363 125000 -756.475592707975 0 0 110 (C1) n - 1
REM
REM in /nfs/bkarasulu/CARBON/AIRSS/Generating-Clusters/GAP-ML-2020/Only-C1/SD-CG/HFTN-CG
REM
REM
REM
REM
REM
REM ./C.cell (11c1c37f851c82e70ff6c80c92926a4b)
REM
REM compiler GCC version 9.2.1 20190827 (Red Hat 9.2.1-1)
REM options -cpp -mtune=generic -march=x86-64 -g -O0 -fpre-include=/usr/include/finclude/math-vector-fortran.h
REM seed 1482072213 -1956243011 -1016369791 1590973087 1136156779 -153678133 -647137163 -1905119581 629835444 1187735921 -15743244 1423191131 1442262083 476463442 1645656043 316002319 -748837617 -2054295722 1783488957 -1426493740 1758714975 -937816443 2009693839 -254662434 -1529821122 -1326679361 1967187448 1125775076 -1383996488 -34516582 36479289 1649769969 -75489070
REM
CELL 1.54180   50.00000   50.00000   50.00000   90.00000   90.00000   90.00000
LATT -1
SFAC C  
C      1  0.4831780000000  0.4552980000000  0.5621340000000 1.0
C      1  0.4153950000000  0.5256450000000  0.5247890000000 1.0
C      1  0.5326510000000  0.5633790000000  0.4526950000000 1.0
C      1  0.5268780000000  0.5170330000000  0.5857020000000 1.0
C      1  0.4340750000000  0.4338710000000  0.4980660000000 1.0
C      1  0.5711340000000  0.4758540000000  0.5203930000000 1.0
C      1  0.5103630000000  0.5285260000000  0.4191890000000 1.0
C      1  0.4418430000000  0.5045280000000  0.4248600000000 1.0
C      1  0.5245120000000  0.4686620000000  0.5250050000000 1.0
C      1  0.5330670000000  0.5548190000000  0.5532000000000 1.0
C      1  0.5816890000000  0.4999420000000  0.5372840000000 1.0
C      1  0.5772390000000  0.5286900000000  0.5292200000000 1.0
C      1  0.5827820000000  0.5470460000000  0.5100720000000 1.0
C      1  0.5618580000000  0.4506600000000  0.5341610000000 1.0
C      1  0.4368460000000  0.5307560000000  0.5445660000000 1.0
C      1  0.4451130000000  0.4808630000000  0.4113270000000 1.0
C      1  0.4549660000000  0.5512420000000  0.5373670000000 1.0
C      1  0.4943690000000  0.4841520000000  0.4169300000000 1.0
C      1  0.4617220000000  0.5235220000000  0.4191710000000 1.0
C      1  0.5610910000000  0.5572760000000  0.4913150000000 1.0
C      1  0.4685710000000  0.4169720000000  0.4781910000000 1.0
C      1  0.5077940000000  0.5951950000000  0.5599800000000 1.0
C      1  0.5064850000000  0.5253190000000  0.4675260000000 1.0
C      1  0.5065590000000  0.4858460000000  0.4906280000000 1.0
C      1  0.4391230000000  0.4589970000000  0.4537340000000 1.0
C      1  0.4927430000000  0.4685290000000  0.5333830000000 1.0
C      1  0.5555200000000  0.4703430000000  0.4443470000000 1.0
C      1  0.4681400000000  0.4620090000000  0.4882280000000 1.0
C      1  0.4828240000000  0.4489960000000  0.5125000000000 1.0
C      1  0.5383380000000  0.4611180000000  0.4218950000000 1.0
C      1  0.5282640000000  0.5881400000000  0.5170020000000 1.0
C      1  0.5262320000000  0.5835210000000  0.4711930000000 1.0
C      1  0.5194300000000  0.4588120000000  0.4978210000000 1.0
C      1  0.4780590000000  0.5111340000000  0.4700900000000 1.0
C      1  0.4726970000000  0.5599170000000  0.5584360000000 1.0
C      1  0.4552430000000  0.4147450000000  0.5051570000000 1.0
C      1  0.5408690000000  0.5366230000000  0.5033420000000 1.0
C      1  0.5001690000000  0.5131870000000  0.5082610000000 1.0
C      1  0.4671270000000  0.4281240000000  0.5287990000000 1.0
C      1  0.4181370000000  0.5407450000000  0.5020000000000 1.0
C      1  0.4334380000000  0.4836230000000  0.4678100000000 1.0
C      1  0.4470610000000  0.4579800000000  0.4265760000000 1.0
C      1  0.4695550000000  0.4680600000000  0.4103540000000 1.0
C      1  0.5157910000000  0.4453930000000  0.4333800000000 1.0
C      1  0.5014540000000  0.5857440000000  0.5063320000000 1.0
C      1  0.5022810000000  0.4724440000000  0.4449720000000 1.0
C      1  0.4808960000000  0.5594410000000  0.4453980000000 1.0
C      1  0.5239290000000  0.4161620000000  0.5213140000000 1.0
C      1  0.4949630000000  0.5585150000000  0.5091170000000 1.0
C      1  0.5702650000000  0.5071700000000  0.4723190000000 1.0
C      1  0.4889550000000  0.4286870000000  0.5517080000000 1.0
C      1  0.5162380000000  0.5405840000000  0.5727470000000 1.0
C      1  0.5240250000000  0.4832090000000  0.4088220000000 1.0
C      1  0.4908480000000  0.4946240000000  0.5882290000000 1.0
C      1  0.5058520000000  0.4324310000000  0.5012240000000 1.0
C      1  0.5306110000000  0.4779110000000  0.4572850000000 1.0
C      1  0.4320880000000  0.5502430000000  0.4804290000000 1.0
C      1  0.5556150000000  0.5164460000000  0.4274960000000 1.0
C      1  0.5592720000000  0.4307630000000  0.5142040000000 1.0
C      1  0.5606760000000  0.4435920000000  0.4884890000000 1.0
C      1  0.4359640000000  0.4836330000000  0.5578860000000 1.0
C      1  0.5716620000000  0.4954950000000  0.5628920000000 1.0
C      1  0.5649730000000  0.5259880000000  0.4511680000000 1.0
C      1  0.5258770000000  0.5011890000000  0.4740290000000 1.0
C      1  0.5017560000000  0.4696280000000  0.5792090000000 1.0
C      1  0.4170430000000  0.4794630000000  0.5360900000000 1.0
C      1  0.5346160000000  0.5086290000000  0.5403440000000 1.0
C      1  0.5329030000000  0.5105130000000  0.4139710000000 1.0
C      1  0.5353670000000  0.4522040000000  0.5487930000000 1.0
C      1  0.5770760000000  0.4662340000000  0.4906110000000 1.0
C      1  0.5093550000000  0.5072940000000  0.6036750000000 1.0
C      1  0.5764940000000  0.4803850000000  0.4661070000000 1.0
C      1  0.5468140000000  0.5353670000000  0.5338020000000 1.0
C      1  0.5291380000000  0.4699560000000  0.5710360000000 1.0
C      1  0.5085730000000  0.5458580000000  0.4435400000000 1.0
C      1  0.5351200000000  0.4512590000000  0.4734910000000 1.0
C      1  0.4500650000000  0.4405460000000  0.4739800000000 1.0
C      1  0.4868900000000  0.5385100000000  0.5699810000000 1.0
C      1  0.4582250000000  0.5442120000000  0.4379430000000 1.0
C      1  0.4580390000000  0.4996450000000  0.5158550000000 1.0
C      1  0.4458630000000  0.4789460000000  0.4980800000000 1.0
C      1  0.5436070000000  0.5819120000000  0.4943730000000 1.0
C      1  0.5054930000000  0.5125460000000  0.5354800000000 1.0
C      1  0.4460910000000  0.4457620000000  0.5381340000000 1.0
C      1  0.4535140000000  0.4611880000000  0.5595250000000 1.0
C      1  0.4673980000000  0.5502730000000  0.5095990000000 1.0
C      1  0.4738930000000  0.5108100000000  0.5691780000000 1.0
C      1  0.4450300000000  0.5101340000000  0.5630470000000 1.0
C      1  0.4023760000000  0.5004210000000  0.5285370000000 1.0
C      1  0.4309260000000  0.4580170000000  0.5164790000000 1.0
C      1  0.4873350000000  0.5137050000000  0.4132940000000 1.0
C      1  0.5427190000000  0.4970180000000  0.5681070000000 1.0
C      1  0.5452760000000  0.4912950000000  0.5189250000000 1.0
C      1  0.4846920000000  0.4812370000000  0.4703050000000 1.0
C      1  0.5474530000000  0.5092040000000  0.4929570000000 1.0
C      1  0.4712690000000  0.5185350000000  0.4989790000000 1.0
C      1  0.5165740000000  0.4311960000000  0.4573230000000 1.0
C      1  0.4820420000000  0.4959350000000  0.5389580000000 1.0
C      1  0.4845490000000  0.5850980000000  0.5613470000000 1.0
C      1  0.4987920000000  0.5885940000000  0.4787540000000 1.0
C      1  0.4563850000000  0.5651320000000  0.4869610000000 1.0
C      1  0.4323430000000  0.5073650000000  0.4515490000000 1.0
C      1  0.4761650000000  0.5751940000000  0.4681950000000 1.0
C      1  0.5118650000000  0.5378960000000  0.4962240000000 1.0
C      1  0.4370760000000  0.5358010000000  0.4561630000000 1.0
C      1  0.5163250000000  0.4275350000000  0.5462040000000 1.0
C      1  0.5575800000000  0.5516170000000  0.4615560000000 1.0
C      1  0.4966810000000  0.4208100000000  0.4749950000000 1.0
C      1  0.5493710000000  0.4057200000000  0.5190250000000 1.0
C      1  0.5284600000000  0.5820370000000  0.5451810000000 1.0
END
