TITL C-21785-2998-6 -0.141794937568555 125000 -252.360242189618 0 0 38 (C1) n - 1
REM
REM in /rds/project/t2_vol4/rds-t2-cs072/BORA/CARBON/from-Arr/AIRSS/Generating-Clusters/GAP-ML-2020/Only-C1/SD-CG/HFTN-CG
REM
REM
REM
REM
REM
REM ./C.cell (11c1c37f851c82e70ff6c80c92926a4b)
REM AIRSS Version 0.9.1 bugfix July 2018 build 013d7b7c2542+ Fri, 06 Jul 2018 19:26:36 +0100
REM compiler GCC version 9.3.0
REM options -cpp -mtune=generic -march=x86-64 -g -O0
REM seed 267595941 -1266899375 -1513888947 -408196048 -1402266924 -133290704 110463723 -1573187908 2001334245 -413874000 1049977390 -668545145 -1731538586 -95734166 -2136081873 -996096415 -959672888 -1955064194 -1497359092 -2035398220 -125631939 2077294534 633362884 1208490367 -781535125 -116900067 1314786325 -546074677 -1070752404 460663060 1782914890 1625787215 1536050298
REM
CELL 1.54180   50.00000   50.00000   50.00000   90.00000   90.00000   90.00000
LATT -1
SFAC C  
C      1  0.5050580000000  0.4433030000000  0.5061490000000 1.0
C      1  0.5075020000000  0.4486260000000  0.4777820000000 1.0
C      1  0.5033470000000  0.5612330000000  0.4950410000000 1.0
C      1  0.4367610000000  0.5213180000000  0.4798990000000 1.0
C      1  0.5313190000000  0.5478740000000  0.5326830000000 1.0
C      1  0.5164960000000  0.5184280000000  0.4837330000000 1.0
C      1  0.5412510000000  0.4682540000000  0.5011440000000 1.0
C      1  0.4629370000000  0.4527120000000  0.4881700000000 1.0
C      1  0.4426240000000  0.4946470000000  0.4706790000000 1.0
C      1  0.4989410000000  0.5180250000000  0.5144720000000 1.0
C      1  0.5541010000000  0.4993490000000  0.5392470000000 1.0
C      1  0.5283380000000  0.4524830000000  0.5197630000000 1.0
C      1  0.4792160000000  0.4714390000000  0.4465410000000 1.0
C      1  0.5528740000000  0.5390930000000  0.5131280000000 1.0
C      1  0.5060670000000  0.5470570000000  0.5196480000000 1.0
C      1  0.5269630000000  0.4693960000000  0.4757530000000 1.0
C      1  0.4788200000000  0.5125030000000  0.4425260000000 1.0
C      1  0.5678910000000  0.5169330000000  0.5220690000000 1.0
C      1  0.4575020000000  0.4875050000000  0.5161710000000 1.0
C      1  0.4467010000000  0.4755930000000  0.4921070000000 1.0
C      1  0.5330530000000  0.5148940000000  0.5534540000000 1.0
C      1  0.4737130000000  0.4684800000000  0.5605650000000 1.0
C      1  0.4522680000000  0.5305640000000  0.4981520000000 1.0
C      1  0.5399210000000  0.5385630000000  0.4881280000000 1.0
C      1  0.4693920000000  0.4670060000000  0.5322050000000 1.0
C      1  0.5115130000000  0.4991390000000  0.5369640000000 1.0
C      1  0.4938230000000  0.4834320000000  0.5546030000000 1.0
C      1  0.5351340000000  0.4798380000000  0.5278990000000 1.0
C      1  0.4582540000000  0.4919900000000  0.4476270000000 1.0
C      1  0.4817460000000  0.5367650000000  0.4528750000000 1.0
C      1  0.5247230000000  0.5612770000000  0.4785200000000 1.0
C      1  0.4694370000000  0.5139390000000  0.5135370000000 1.0
C      1  0.4778130000000  0.4472930000000  0.5130520000000 1.0
C      1  0.4811950000000  0.4519020000000  0.4661300000000 1.0
C      1  0.5344020000000  0.5407420000000  0.5595790000000 1.0
C      1  0.5000050000000  0.4916250000000  0.4435030000000 1.0
C      1  0.5188540000000  0.4943250000000  0.4648640000000 1.0
C      1  0.5000450000000  0.5424560000000  0.4716360000000 1.0
END
