TITL C-21830-6176-7 0.0401544000620378 125000 -97.8625035816358 0 0 15 (C1) n - 1
REM
REM in /rds/project/t2_vol4/rds-t2-cs072/BORA/CARBON/from-Arr/AIRSS/Generating-Clusters/GAP-ML-2020/Only-C1/SD-CG/HFTN-CG
REM
REM
REM
REM
REM
REM ./C.cell (11c1c37f851c82e70ff6c80c92926a4b)
REM AIRSS Version 0.9.1 bugfix July 2018 build 013d7b7c2542+ Fri, 06 Jul 2018 19:26:36 +0100
REM compiler GCC version 9.3.0
REM options -cpp -mtune=generic -march=x86-64 -g -O0
REM seed -1025976619 1745060089 -1811754364 -2123871176 1227236327 -421852583 614327992 -1139167393 -468294794 -411377597 -2021447364 -1078921271 -516709205 -292078642 2240594 -1770885400 258166641 -561657134 213505475 1182905608 67916123 -598516120 -747923633 -1234260164 1770244420 -1231063402 -732881160 450160239 -1098572120 909146209 -1302916221 2068927667 -1396397533
REM
CELL 1.54180   50.00000   50.00000   50.00000   90.00000   90.00000   90.00000
LATT -1
SFAC C  
C      1  0.5383870000000  0.4866360000000  0.4684600000000 1.0
C      1  0.4699130000000  0.5070390000000  0.4589150000000 1.0
C      1  0.4715130000000  0.4916200000000  0.5311620000000 1.0
C      1  0.4901070000000  0.4709460000000  0.5342470000000 1.0
C      1  0.4949260000000  0.5065550000000  0.4515650000000 1.0
C      1  0.5321840000000  0.4598560000000  0.5112070000000 1.0
C      1  0.4589890000000  0.5019800000000  0.4828010000000 1.0
C      1  0.5414930000000  0.4708980000000  0.4895850000000 1.0
C      1  0.4567500000000  0.4955830000000  0.5072750000000 1.0
C      1  0.4952460000000  0.5339860000000  0.5303960000000 1.0
C      1  0.5294130000000  0.5544000000000  0.4979740000000 1.0
C      1  0.5198790000000  0.4992900000000  0.4551060000000 1.0
C      1  0.5117880000000  0.4584210000000  0.5283420000000 1.0
C      1  0.4801250000000  0.5169900000000  0.5416270000000 1.0
C      1  0.5092860000000  0.5458010000000  0.5113380000000 1.0
END
