TITL C-21899-2425-9 0.195625298673407 125000 -286.119467599162 0 0 43 (C1) n - 1
REM
REM in /rds/project/t2_vol4/rds-t2-cs072/BORA/CARBON/from-Arr/AIRSS/Generating-Clusters/GAP-ML-2020/Only-C1/SD-CG/HFTN-CG
REM
REM
REM
REM
REM
REM ./C.cell (11c1c37f851c82e70ff6c80c92926a4b)
REM AIRSS Version 0.9.1 bugfix July 2018 build 013d7b7c2542+ Fri, 06 Jul 2018 19:26:36 +0100
REM compiler GCC version 9.3.0
REM options -cpp -mtune=generic -march=x86-64 -g -O0
REM seed -1955601996 -737666069 -1984293732 1234698190 -695609461 746882575 -148144677 -573240793 1634419175 1913472700 1325950252 -1929348389 -1884957052 -1286270799 -1643361719 1002734043 -1722306225 -304645478 -1684186127 -237949900 -490770163 1926026654 -1380136695 -1297910540 -936083491 668107440 -1633580505 -2109213438 2126990103 1421792261 -2090953537 -48629831 1109269027
REM
CELL 1.54180   50.00000   50.00000   50.00000   90.00000   90.00000   90.00000
LATT -1
SFAC C  
C      1  0.5756740000000  0.4896970000000  0.4921280000000 1.0
C      1  0.5093720000000  0.4665390000000  0.5434550000000 1.0
C      1  0.5540020000000  0.4754290000000  0.4827440000000 1.0
C      1  0.5082810000000  0.4384220000000  0.5349850000000 1.0
C      1  0.5637400000000  0.5048110000000  0.5091360000000 1.0
C      1  0.5230530000000  0.4781900000000  0.5164470000000 1.0
C      1  0.4993300000000  0.4380790000000  0.5095730000000 1.0
C      1  0.4544930000000  0.4813920000000  0.5468270000000 1.0
C      1  0.4775000000000  0.5519590000000  0.5229530000000 1.0
C      1  0.5189780000000  0.4435060000000  0.4882520000000 1.0
C      1  0.5189450000000  0.5193250000000  0.5391600000000 1.0
C      1  0.5147380000000  0.5476680000000  0.5292250000000 1.0
C      1  0.5402120000000  0.4580430000000  0.5013840000000 1.0
C      1  0.4748960000000  0.5500640000000  0.4943380000000 1.0
C      1  0.5078960000000  0.5540360000000  0.4558600000000 1.0
C      1  0.4504290000000  0.5164090000000  0.5154820000000 1.0
C      1  0.4809350000000  0.4787930000000  0.5366550000000 1.0
C      1  0.4960230000000  0.5659300000000  0.5362940000000 1.0
C      1  0.5104760000000  0.4674820000000  0.4709540000000 1.0
C      1  0.5218620000000  0.4809270000000  0.5660700000000 1.0
C      1  0.5209780000000  0.5481480000000  0.5011080000000 1.0
C      1  0.4803690000000  0.4632470000000  0.5087890000000 1.0
C      1  0.4935030000000  0.5098430000000  0.5012980000000 1.0
C      1  0.4673040000000  0.5217290000000  0.4905760000000 1.0
C      1  0.4760430000000  0.5153620000000  0.4408400000000 1.0
C      1  0.5273010000000  0.5124190000000  0.4669380000000 1.0
C      1  0.4881480000000  0.4717050000000  0.4527540000000 1.0
C      1  0.5004670000000  0.4813790000000  0.4975630000000 1.0
C      1  0.4907640000000  0.5081260000000  0.5305680000000 1.0
C      1  0.4918320000000  0.4907190000000  0.4321740000000 1.0
C      1  0.5210400000000  0.5201220000000  0.4942060000000 1.0
C      1  0.4688410000000  0.5276320000000  0.5341020000000 1.0
C      1  0.5245990000000  0.5064240000000  0.5650010000000 1.0
C      1  0.5016680000000  0.5153390000000  0.4285410000000 1.0
C      1  0.4636940000000  0.5085140000000  0.4645970000000 1.0
C      1  0.4567230000000  0.4671670000000  0.4915840000000 1.0
C      1  0.4386850000000  0.4923410000000  0.5259410000000 1.0
C      1  0.5339180000000  0.4847520000000  0.4653340000000 1.0
C      1  0.5355480000000  0.5064010000000  0.5167130000000 1.0
C      1  0.4643310000000  0.4800670000000  0.4668700000000 1.0
C      1  0.4344820000000  0.4753330000000  0.5047940000000 1.0
C      1  0.5186790000000  0.5300820000000  0.4464370000000 1.0
C      1  0.5002480000000  0.5564460000000  0.4813490000000 1.0
END
