TITL C-21712-8363-7 2.89845536933809 125000 -87.2486788320571 0 0 14 (C1) n - 1
REM
REM in /rds/project/t2_vol4/rds-t2-cs072/BORA/CARBON/from-Arr/AIRSS/Generating-Clusters/GAP-ML-2020/Only-C1/SD-CG/HFTN-CG
REM
REM
REM
REM
REM
REM ./C.cell (11c1c37f851c82e70ff6c80c92926a4b)
REM AIRSS Version 0.9.1 bugfix July 2018 build 013d7b7c2542+ Fri, 06 Jul 2018 19:26:36 +0100
REM compiler GCC version 9.3.0
REM options -cpp -mtune=generic -march=x86-64 -g -O0
REM seed -1737163486 -1486572412 -1227590431 1349416453 -531129901 -500451938 2073279274 -840382840 -1073606844 -1170422054 1613584805 -179319362 -559616737 -1229288870 -18223087 1940058869 1900750850 1029231283 1677476228 -1954561225 -1157523516 801265525 856852205 -374307042 1367013883 2074880780 -1429983613 -88531599 -2136511029 508963070 -345513522 -71323503 -1486297346
REM
CELL 1.54180   50.00000   50.00000   50.00000   90.00000   90.00000   90.00000
LATT -1
SFAC C  
C      1  0.4809520000000  0.4610760000000  0.4980840000000 1.0
C      1  0.5559980000000  0.4694740000000  0.5277070000000 1.0
C      1  0.5402340000000  0.4767170000000  0.5096360000000 1.0
C      1  0.5049190000000  0.5342340000000  0.5326680000000 1.0
C      1  0.4623980000000  0.4814550000000  0.4922650000000 1.0
C      1  0.4971800000000  0.5264060000000  0.4816320000000 1.0
C      1  0.4989880000000  0.5375790000000  0.5570640000000 1.0
C      1  0.5003690000000  0.4719160000000  0.4801080000000 1.0
C      1  0.5083860000000  0.5323620000000  0.5063440000000 1.0
C      1  0.5220620000000  0.4865960000000  0.4918330000000 1.0
C      1  0.4784240000000  0.4860300000000  0.4677680000000 1.0
C      1  0.5206300000000  0.5138960000000  0.4879240000000 1.0
C      1  0.4551090000000  0.5084220000000  0.4940920000000 1.0
C      1  0.4743500000000  0.5138370000000  0.4728750000000 1.0
END
