TITL C-2114520-3314-4 -1.82357731247632 125000 -373.74999767876 0 0 54 (C1) n - 1
REM
REM in /nfs/bkarasulu/CARBON/AIRSS/Generating-Clusters/GAP-ML-2020/Only-C1/SD-CG/HFTN-CG
REM
REM
REM
REM
REM
REM ./C.cell (11c1c37f851c82e70ff6c80c92926a4b)
REM
REM compiler GCC version 9.2.1 20190827 (Red Hat 9.2.1-1)
REM options -cpp -mtune=generic -march=x86-64 -g -O0 -fpre-include=/usr/include/finclude/math-vector-fortran.h
REM seed -544384764 -1290649771 -1188853448 231312697 1035435868 -1812668173 -1485090520 -1742174469 -206816927 1470921723 -1765447014 -1138438121 -1849135544 -481944576 1207667375 -793258304 1716904709 -1523513589 128428303 -39780418 302162469 -1750374819 -253713585 -2035971452 517053526 99649707 -1196300438 957895980 -1053903509 1685781803 229851153 -419920672 -855931689
REM
CELL 1.54180   50.00000   50.00000   50.00000   90.00000   90.00000   90.00000
LATT -1
SFAC C  
C      1  0.4836360000000  0.4939250000000  0.5102360000000 1.0
C      1  0.4401820000000  0.4749990000000  0.4804680000000 1.0
C      1  0.5166020000000  0.4688910000000  0.5590060000000 1.0
C      1  0.4422990000000  0.5139120000000  0.5304680000000 1.0
C      1  0.4810700000000  0.5284960000000  0.5560950000000 1.0
C      1  0.4853710000000  0.5197380000000  0.4433340000000 1.0
C      1  0.4844130000000  0.5603660000000  0.4879260000000 1.0
C      1  0.5049420000000  0.5152510000000  0.5663860000000 1.0
C      1  0.5154520000000  0.4462490000000  0.5188120000000 1.0
C      1  0.5697070000000  0.4925000000000  0.4986030000000 1.0
C      1  0.5088560000000  0.5107760000000  0.4267130000000 1.0
C      1  0.5077110000000  0.5449400000000  0.4843850000000 1.0
C      1  0.4771430000000  0.5473920000000  0.4443760000000 1.0
C      1  0.5164500000000  0.4849780000000  0.4318430000000 1.0
C      1  0.4496260000000  0.5323030000000  0.5096270000000 1.0
C      1  0.4732560000000  0.4455670000000  0.4941600000000 1.0
C      1  0.5017060000000  0.4658770000000  0.4468580000000 1.0
C      1  0.5140430000000  0.4552260000000  0.4707990000000 1.0
C      1  0.4590100000000  0.4527890000000  0.5181390000000 1.0
C      1  0.5271280000000  0.5418880000000  0.5064340000000 1.0
C      1  0.5478910000000  0.5138820000000  0.4596560000000 1.0
C      1  0.4732510000000  0.4581300000000  0.5424170000000 1.0
C      1  0.5480790000000  0.5048920000000  0.5448070000000 1.0
C      1  0.4433740000000  0.4998560000000  0.4666300000000 1.0
C      1  0.4604650000000  0.4577720000000  0.4714570000000 1.0
C      1  0.5575910000000  0.5112780000000  0.5171670000000 1.0
C      1  0.5348980000000  0.4724490000000  0.4767220000000 1.0
C      1  0.5016240000000  0.4433800000000  0.4936470000000 1.0
C      1  0.5003600000000  0.5176180000000  0.4715700000000 1.0
C      1  0.4524240000000  0.5201250000000  0.4839040000000 1.0
C      1  0.4714640000000  0.5513530000000  0.5130190000000 1.0
C      1  0.4718040000000  0.4827900000000  0.5580570000000 1.0
C      1  0.4983360000000  0.4878720000000  0.5687590000000 1.0
C      1  0.5404050000000  0.4768860000000  0.5458560000000 1.0
C      1  0.4603960000000  0.5093180000000  0.5524130000000 1.0
C      1  0.4887280000000  0.5474380000000  0.5360030000000 1.0
C      1  0.5723480000000  0.5066910000000  0.4738440000000 1.0
C      1  0.4632420000000  0.4969430000000  0.4454180000000 1.0
C      1  0.4283560000000  0.4911630000000  0.5242420000000 1.0
C      1  0.5279300000000  0.5242540000000  0.5526310000000 1.0
C      1  0.5564660000000  0.5386970000000  0.5029100000000 1.0
C      1  0.5177690000000  0.5448380000000  0.5340660000000 1.0
C      1  0.5261960000000  0.5031940000000  0.4765630000000 1.0
C      1  0.5068440000000  0.4973200000000  0.5202290000000 1.0
C      1  0.5651660000000  0.5329200000000  0.4760680000000 1.0
C      1  0.4789820000000  0.5063800000000  0.4870160000000 1.0
C      1  0.4752150000000  0.5665390000000  0.4617610000000 1.0
C      1  0.4739070000000  0.4705150000000  0.4488040000000 1.0
C      1  0.5360040000000  0.5064940000000  0.4337340000000 1.0
C      1  0.5406810000000  0.4604400000000  0.5214420000000 1.0
C      1  0.5534690000000  0.4690870000000  0.4980980000000 1.0
C      1  0.5009250000000  0.4508180000000  0.5426270000000 1.0
C      1  0.5279460000000  0.5105150000000  0.5046360000000 1.0
C      1  0.4388600000000  0.4720900000000  0.5091560000000 1.0
END
