TITL C-21782-2972-12 0.0648084374455047 125000 -796.85326076183 0 0 115 (C1) n - 1
REM
REM in /rds/project/t2_vol4/rds-t2-cs072/BORA/CARBON/from-Arr/AIRSS/Generating-Clusters/GAP-ML-2020/Only-C1/SD-CG/HFTN-CG
REM
REM
REM
REM
REM
REM ./C.cell (11c1c37f851c82e70ff6c80c92926a4b)
REM AIRSS Version 0.9.1 bugfix July 2018 build 013d7b7c2542+ Fri, 06 Jul 2018 19:26:36 +0100
REM compiler GCC version 9.3.0
REM options -cpp -mtune=generic -march=x86-64 -g -O0
REM seed 1947440013 1363558489 1371933741 -852498540 862026564 1906166997 -724896498 1943837857 -1737618851 838277854 -1581258925 41337117 1579907329 -2122958572 2108735260 1197746699 -317292421 1171828296 798506491 1293223356 128510293 1382620606 -586955666 -286903893 -1216391718 1004307185 -1038759034 285344026 -360295468 249943346 -1892430196 -29445202 -128860281
REM
CELL 1.54180   50.00000   50.00000   50.00000   90.00000   90.00000   90.00000
LATT -1
SFAC C  
C      1  0.5145710000000  0.4744590000000  0.5058310000000 1.0
C      1  0.4978810000000  0.4095350000000  0.4877000000000 1.0
C      1  0.5335000000000  0.4165310000000  0.5206910000000 1.0
C      1  0.4136050000000  0.4954690000000  0.5397460000000 1.0
C      1  0.4266250000000  0.5154330000000  0.5548070000000 1.0
C      1  0.4981440000000  0.4608440000000  0.4600910000000 1.0
C      1  0.5416420000000  0.4215780000000  0.4700910000000 1.0
C      1  0.4490690000000  0.4796650000000  0.5813050000000 1.0
C      1  0.5300470000000  0.5823070000000  0.5051030000000 1.0
C      1  0.4502940000000  0.5179300000000  0.4268360000000 1.0
C      1  0.5394240000000  0.5373820000000  0.4752880000000 1.0
C      1  0.4990180000000  0.4342290000000  0.4470490000000 1.0
C      1  0.5264740000000  0.5590920000000  0.5540480000000 1.0
C      1  0.5384720000000  0.5176470000000  0.5032740000000 1.0
C      1  0.4498780000000  0.4440360000000  0.4521910000000 1.0
C      1  0.4970540000000  0.4961130000000  0.4928120000000 1.0
C      1  0.4970460000000  0.5310900000000  0.4166460000000 1.0
C      1  0.5403060000000  0.5043100000000  0.4208950000000 1.0
C      1  0.4927220000000  0.4411030000000  0.4189280000000 1.0
C      1  0.5391830000000  0.5712730000000  0.5297400000000 1.0
C      1  0.4500030000000  0.5607980000000  0.4997470000000 1.0
C      1  0.4288370000000  0.5463970000000  0.5138520000000 1.0
C      1  0.4502930000000  0.4322170000000  0.4794930000000 1.0
C      1  0.5560510000000  0.5114290000000  0.5677820000000 1.0
C      1  0.4657930000000  0.4381850000000  0.5187670000000 1.0
C      1  0.4657580000000  0.4907580000000  0.5011050000000 1.0
C      1  0.5920560000000  0.5145450000000  0.4925560000000 1.0
C      1  0.4763760000000  0.4328220000000  0.5464970000000 1.0
C      1  0.5632480000000  0.5292820000000  0.4589020000000 1.0
C      1  0.5517950000000  0.4395850000000  0.5611260000000 1.0
C      1  0.4627130000000  0.5304640000000  0.5780760000000 1.0
C      1  0.4999080000000  0.5578240000000  0.5675150000000 1.0
C      1  0.4735780000000  0.4231730000000  0.4940150000000 1.0
C      1  0.5889620000000  0.4879400000000  0.4908020000000 1.0
C      1  0.4903990000000  0.5777370000000  0.4483700000000 1.0
C      1  0.4347850000000  0.5005780000000  0.4430880000000 1.0
C      1  0.5141130000000  0.4556880000000  0.4849170000000 1.0
C      1  0.5198520000000  0.4816830000000  0.4541280000000 1.0
C      1  0.5119390000000  0.5888150000000  0.4625980000000 1.0
C      1  0.5799230000000  0.4467320000000  0.4714330000000 1.0
C      1  0.4192720000000  0.4554960000000  0.5158170000000 1.0
C      1  0.5309780000000  0.4760500000000  0.4256370000000 1.0
C      1  0.5220430000000  0.5219320000000  0.4117540000000 1.0
C      1  0.5556970000000  0.5277790000000  0.5284970000000 1.0
C      1  0.5073920000000  0.5942260000000  0.4912460000000 1.0
C      1  0.5003990000000  0.4603370000000  0.5797150000000 1.0
C      1  0.4657580000000  0.5175210000000  0.5149750000000 1.0
C      1  0.5719120000000  0.5592000000000  0.4949720000000 1.0
C      1  0.5079280000000  0.5199100000000  0.5087730000000 1.0
C      1  0.5170400000000  0.4832260000000  0.5870600000000 1.0
C      1  0.4589860000000  0.4424600000000  0.5660870000000 1.0
C      1  0.5436960000000  0.4854490000000  0.5741430000000 1.0
C      1  0.5743960000000  0.4818910000000  0.4427020000000 1.0
C      1  0.5039880000000  0.4667810000000  0.4121750000000 1.0
C      1  0.4805490000000  0.5988920000000  0.4997790000000 1.0
C      1  0.5427640000000  0.4874930000000  0.4991850000000 1.0
C      1  0.4752130000000  0.6085160000000  0.5255050000000 1.0
C      1  0.4582580000000  0.5432230000000  0.4423440000000 1.0
C      1  0.5263650000000  0.4887990000000  0.5495050000000 1.0
C      1  0.5391920000000  0.4730500000000  0.4740480000000 1.0
C      1  0.4663800000000  0.4711350000000  0.5216070000000 1.0
C      1  0.5597360000000  0.4383930000000  0.4535350000000 1.0
C      1  0.4383810000000  0.4373970000000  0.5057060000000 1.0
C      1  0.4753180000000  0.5704370000000  0.5585540000000 1.0
C      1  0.4691610000000  0.5394060000000  0.4939120000000 1.0
C      1  0.4904300000000  0.5134460000000  0.5326460000000 1.0
C      1  0.5059750000000  0.5055340000000  0.4657150000000 1.0
C      1  0.5628340000000  0.5084580000000  0.4392190000000 1.0
C      1  0.4825500000000  0.4837890000000  0.4197530000000 1.0
C      1  0.5104940000000  0.5355460000000  0.4660440000000 1.0
C      1  0.5561020000000  0.4609840000000  0.4348970000000 1.0
C      1  0.5612670000000  0.4648830000000  0.5623500000000 1.0
C      1  0.5715150000000  0.5069830000000  0.5447290000000 1.0
C      1  0.4841580000000  0.4844850000000  0.5384260000000 1.0
C      1  0.5088780000000  0.4703800000000  0.5358710000000 1.0
C      1  0.4463360000000  0.5692880000000  0.4414550000000 1.0
C      1  0.5140770000000  0.4157440000000  0.4645870000000 1.0
C      1  0.5382390000000  0.5815520000000  0.4593360000000 1.0
C      1  0.5052020000000  0.5093860000000  0.5828380000000 1.0
C      1  0.4631020000000  0.5840750000000  0.4575800000000 1.0
C      1  0.4910770000000  0.5337000000000  0.5836410000000 1.0
C      1  0.4390570000000  0.4853040000000  0.4814960000000 1.0
C      1  0.5045980000000  0.4439890000000  0.5528280000000 1.0
C      1  0.4199640000000  0.4670560000000  0.5424300000000 1.0
C      1  0.5712450000000  0.4442620000000  0.4981520000000 1.0
C      1  0.4915920000000  0.5488830000000  0.4409700000000 1.0
C      1  0.4093010000000  0.5013690000000  0.5123290000000 1.0
C      1  0.4726170000000  0.5950960000000  0.5465190000000 1.0
C      1  0.4323850000000  0.5414150000000  0.5430800000000 1.0
C      1  0.4748480000000  0.5106590000000  0.4136870000000 1.0
C      1  0.4714730000000  0.4330080000000  0.4349510000000 1.0
C      1  0.5506170000000  0.4242810000000  0.4980050000000 1.0
C      1  0.4789520000000  0.5046330000000  0.4602310000000 1.0
C      1  0.4332930000000  0.5128640000000  0.4721800000000 1.0
C      1  0.5130360000000  0.5145370000000  0.5548620000000 1.0
C      1  0.4743310000000  0.4781470000000  0.4484960000000 1.0
C      1  0.5882040000000  0.4733390000000  0.4661000000000 1.0
C      1  0.4535310000000  0.5508880000000  0.5605850000000 1.0
C      1  0.4156570000000  0.4775630000000  0.4981640000000 1.0
C      1  0.5375900000000  0.5318340000000  0.5541130000000 1.0
C      1  0.4355170000000  0.4596740000000  0.5645130000000 1.0
C      1  0.5740250000000  0.4793110000000  0.5395930000000 1.0
C      1  0.4590630000000  0.5848980000000  0.4863970000000 1.0
C      1  0.5704130000000  0.4729400000000  0.5106640000000 1.0
C      1  0.5472000000000  0.5688070000000  0.4829410000000 1.0
C      1  0.5825630000000  0.5364600000000  0.4799080000000 1.0
C      1  0.4191000000000  0.5238700000000  0.4981390000000 1.0
C      1  0.4980920000000  0.5415460000000  0.4921910000000 1.0
C      1  0.5632080000000  0.5555310000000  0.5217830000000 1.0
C      1  0.4452860000000  0.4737050000000  0.4536110000000 1.0
C      1  0.4452130000000  0.5076960000000  0.5756260000000 1.0
C      1  0.4723180000000  0.4610940000000  0.5843250000000 1.0
C      1  0.5110120000000  0.4061240000000  0.5108190000000 1.0
C      1  0.4596510000000  0.5266640000000  0.4686190000000 1.0
C      1  0.5306720000000  0.4286450000000  0.5475350000000 1.0
END
