TITL C-21783-4550-9 -251.365215520339 125000 -691.639689467856 0 0 98 (C1) n - 1
REM
REM in /rds/project/t2_vol4/rds-t2-cs072/BORA/CARBON/from-Arr/AIRSS/Generating-Clusters/GAP-ML-2020/Only-C1/SD-CG/HFTN-CG
REM
REM
REM
REM
REM
REM ./C.cell (11c1c37f851c82e70ff6c80c92926a4b)
REM AIRSS Version 0.9.1 bugfix July 2018 build 013d7b7c2542+ Fri, 06 Jul 2018 19:26:36 +0100
REM compiler GCC version 9.3.0
REM options -cpp -mtune=generic -march=x86-64 -g -O0
REM seed -1775037987 -1681429930 659738148 2056500607 -50144665 148840770 62805950 949230722 -1759616013 -936299716 -146554610 -1818138637 1330002553 -337648620 -1792411265 1272607055 -1858411128 -909877967 886960707 -509230913 44980567 -2119414818 -1282432951 1249172228 -63816633 478586368 460452067 -1723130254 1756827039 802043058 -182151294 530839341 -1564432587
REM
CELL 1.54180   50.00000   50.00000   50.00000   90.00000   90.00000   90.00000
LATT -1
SFAC C  
C      1  0.4836370000000  0.5592360000000  0.5479520000000 1.0
C      1  0.5490660000000  0.5020460000000  0.4247410000000 1.0
C      1  0.4209390000000  0.4713620000000  0.4840640000000 1.0
C      1  0.5678950000000  0.5356940000000  0.4900450000000 1.0
C      1  0.5147330000000  0.5610990000000  0.4767100000000 1.0
C      1  0.4956430000000  0.4627250000000  0.4186620000000 1.0
C      1  0.5388460000000  0.5196660000000  0.5723540000000 1.0
C      1  0.4509410000000  0.4420170000000  0.4630240000000 1.0
C      1  0.4804960000000  0.5082810000000  0.4102340000000 1.0
C      1  0.5413680000000  0.5710890000000  0.4706400000000 1.0
C      1  0.4939590000000  0.5550570000000  0.4317710000000 1.0
C      1  0.5040010000000  0.4916400000000  0.4761530000000 1.0
C      1  0.4169710000000  0.4944090000000  0.5014540000000 1.0
C      1  0.4674400000000  0.5189440000000  0.5731220000000 1.0
C      1  0.5558590000000  0.4605210000000  0.5504280000000 1.0
C      1  0.5116950000000  0.4197230000000  0.4806330000000 1.0
C      1  0.5319330000000  0.4572200000000  0.5911770000000 1.0
C      1  0.4625140000000  0.5405190000000  0.5550440000000 1.0
C      1  0.5237940000000  0.4323090000000  0.4553190000000 1.0
C      1  0.4895250000000  0.5648370000000  0.4609090000000 1.0
C      1  0.5177870000000  0.4305790000000  0.5539510000000 1.0
C      1  0.5209250000000  0.5505990000000  0.4266230000000 1.0
C      1  0.4739430000000  0.4338600000000  0.5306920000000 1.0
C      1  0.4356040000000  0.4653430000000  0.4577990000000 1.0
C      1  0.5543590000000  0.5409340000000  0.5570030000000 1.0
C      1  0.5611970000000  0.4994490000000  0.4501970000000 1.0
C      1  0.4618710000000  0.4683000000000  0.5670040000000 1.0
C      1  0.5624670000000  0.4741290000000  0.4636400000000 1.0
C      1  0.4670230000000  0.5796770000000  0.5039700000000 1.0
C      1  0.4985270000000  0.4890980000000  0.5929300000000 1.0
C      1  0.5074470000000  0.5068780000000  0.4043600000000 1.0
C      1  0.5437570000000  0.4358320000000  0.5426720000000 1.0
C      1  0.4769620000000  0.5239230000000  0.4956100000000 1.0
C      1  0.4403380000000  0.5316570000000  0.5386810000000 1.0
C      1  0.4405360000000  0.5711210000000  0.4738200000000 1.0
C      1  0.5714180000000  0.4697940000000  0.4907080000000 1.0
C      1  0.4736130000000  0.5403920000000  0.4700850000000 1.0
C      1  0.4318650000000  0.4591350000000  0.5294980000000 1.0
C      1  0.5620510000000  0.5238760000000  0.5363210000000 1.0
C      1  0.4783300000000  0.5207010000000  0.4496410000000 1.0
C      1  0.4720990000000  0.4815340000000  0.4205320000000 1.0
C      1  0.4978190000000  0.4835130000000  0.5251700000000 1.0
C      1  0.5198780000000  0.5121790000000  0.4916070000000 1.0
C      1  0.5004840000000  0.4229160000000  0.5322640000000 1.0
C      1  0.5092850000000  0.5541710000000  0.5598250000000 1.0
C      1  0.5732780000000  0.5175580000000  0.5115280000000 1.0
C      1  0.5096630000000  0.4469410000000  0.5765330000000 1.0
C      1  0.4748150000000  0.4958270000000  0.4866290000000 1.0
C      1  0.4403280000000  0.5664900000000  0.5021230000000 1.0
C      1  0.4222830000000  0.5212280000000  0.4938560000000 1.0
C      1  0.5414600000000  0.5656390000000  0.4415800000000 1.0
C      1  0.5026430000000  0.5275360000000  0.5089680000000 1.0
C      1  0.5247770000000  0.5291580000000  0.4686740000000 1.0
C      1  0.5162540000000  0.4793160000000  0.4067320000000 1.0
C      1  0.4316380000000  0.5415840000000  0.5132170000000 1.0
C      1  0.5434940000000  0.4801250000000  0.4091460000000 1.0
C      1  0.5578330000000  0.5258630000000  0.4634840000000 1.0
C      1  0.5481620000000  0.4811630000000  0.5299240000000 1.0
C      1  0.5361110000000  0.5639230000000  0.5180270000000 1.0
C      1  0.5186670000000  0.4185160000000  0.5079920000000 1.0
C      1  0.4477950000000  0.4367830000000  0.4907750000000 1.0
C      1  0.4556670000000  0.5022540000000  0.4594720000000 1.0
C      1  0.5086920000000  0.5092340000000  0.5303880000000 1.0
C      1  0.4343150000000  0.5045860000000  0.5459800000000 1.0
C      1  0.5100200000000  0.5594990000000  0.5068670000000 1.0
C      1  0.5000580000000  0.4420370000000  0.4389620000000 1.0
C      1  0.4765560000000  0.5331160000000  0.4239880000000 1.0
C      1  0.5207160000000  0.4703750000000  0.5143040000000 1.0
C      1  0.5371410000000  0.5067440000000  0.5416810000000 1.0
C      1  0.4864180000000  0.5710630000000  0.5217080000000 1.0
C      1  0.4917460000000  0.5157500000000  0.5860940000000 1.0
C      1  0.5071380000000  0.5099270000000  0.4523820000000 1.0
C      1  0.4225700000000  0.4860140000000  0.5286920000000 1.0
C      1  0.5441380000000  0.4296300000000  0.5145070000000 1.0
C      1  0.4873190000000  0.4660050000000  0.5802860000000 1.0
C      1  0.5263790000000  0.5224460000000  0.4193490000000 1.0
C      1  0.5564730000000  0.4443840000000  0.4937990000000 1.0
C      1  0.5695790000000  0.4891930000000  0.5108290000000 1.0
C      1  0.4519060000000  0.4955780000000  0.5661830000000 1.0
C      1  0.5469430000000  0.4965730000000  0.5876600000000 1.0
C      1  0.5154900000000  0.4659180000000  0.4852750000000 1.0
C      1  0.4789800000000  0.4388720000000  0.4577420000000 1.0
C      1  0.4738510000000  0.4782150000000  0.5093510000000 1.0
C      1  0.4692160000000  0.5821920000000  0.4749070000000 1.0
C      1  0.4336860000000  0.5220280000000  0.4679070000000 1.0
C      1  0.4268000000000  0.4500410000000  0.5026810000000 1.0
C      1  0.4445080000000  0.5466520000000  0.4625020000000 1.0
C      1  0.5249540000000  0.4839030000000  0.6010740000000 1.0
C      1  0.5130130000000  0.5325130000000  0.5780290000000 1.0
C      1  0.4932780000000  0.4417650000000  0.4836440000000 1.0
C      1  0.5616530000000  0.5500830000000  0.4482570000000 1.0
C      1  0.5542750000000  0.4682670000000  0.5775240000000 1.0
C      1  0.4540180000000  0.4501710000000  0.5457490000000 1.0
C      1  0.5349110000000  0.5587690000000  0.5462110000000 1.0
C      1  0.4500210000000  0.4822380000000  0.4394010000000 1.0
C      1  0.5405110000000  0.4527020000000  0.4692880000000 1.0
C      1  0.5547180000000  0.5606790000000  0.4952430000000 1.0
C      1  0.4722980000000  0.4449490000000  0.5038550000000 1.0
END
