TITL C-2109098-3686-26 144.619279120514 125000 -134.096712316913 0 0 21 (C1) n - 1
REM
REM in /nfs/bkarasulu/CARBON/AIRSS/Generating-Clusters/GAP-ML-2020/Only-C1/SD-CG/HFTN-CG
REM
REM
REM
REM
REM
REM ./C.cell (11c1c37f851c82e70ff6c80c92926a4b)
REM
REM compiler GCC version 9.2.1 20190827 (Red Hat 9.2.1-1)
REM options -cpp -mtune=generic -march=x86-64 -g -O0 -fpre-include=/usr/include/finclude/math-vector-fortran.h
REM seed -338545024 -1456036396 803513048 1169079519 -788536913 -494572761 1987755735 846595722 -2096425724 1558918980 274955612 -173534060 -1771852132 1640566423 -1009945411 361124795 -1919980027 -1592443394 1635268081 -614871624 1991497935 -1223145289 -751499406 457851042 -2003976660 -895145132 1996814445 -1465226093 1865090169 -1656174763 1870480885 1682891752 302013684
REM
CELL 1.54180   50.00000   50.00000   50.00000   90.00000   90.00000   90.00000
LATT -1
SFAC C  
C      1  0.5581090000000  0.5084470000000  0.4719150000000 1.0
C      1  0.4937590000000  0.5054730000000  0.5641040000000 1.0
C      1  0.4519120000000  0.5001950000000  0.5147790000000 1.0
C      1  0.4697920000000  0.5127860000000  0.4740620000000 1.0
C      1  0.4636750000000  0.4908840000000  0.4909860000000 1.0
C      1  0.5313170000000  0.5227900000000  0.5339000000000 1.0
C      1  0.4815550000000  0.4508610000000  0.5084910000000 1.0
C      1  0.5595070000000  0.4975430000000  0.5004250000000 1.0
C      1  0.5380990000000  0.5281820000000  0.4819570000000 1.0
C      1  0.4961100000000  0.5077600000000  0.4645930000000 1.0
C      1  0.4705610000000  0.4632260000000  0.5287490000000 1.0
C      1  0.4566680000000  0.5336180000000  0.4858860000000 1.0
C      1  0.5433090000000  0.5192570000000  0.5104630000000 1.0
C      1  0.5095360000000  0.5184020000000  0.5477740000000 1.0
C      1  0.5153780000000  0.5265490000000  0.4685380000000 1.0
C      1  0.5269990000000  0.4695690000000  0.4697900000000 1.0
C      1  0.5476860000000  0.4833480000000  0.4781830000000 1.0
C      1  0.4463190000000  0.5277670000000  0.5098020000000 1.0
C      1  0.4813500000000  0.4699350000000  0.4880390000000 1.0
C      1  0.5021050000000  0.4797730000000  0.4705190000000 1.0
C      1  0.4562520000000  0.4836350000000  0.5370450000000 1.0
END
