TITL C-216145-3318-3 0.145481602257496 125000 -232.379119854809 0 0 36 (C1) n - 1
REM
REM in /rds/project/t2_vol4/rds-t2-cs072/BORA/CARBON/from-Arr/AIRSS/Generating-Clusters/GAP-ML-2020/Only-C1/SD-CG/HFTN-CG
REM
REM
REM
REM
REM
REM ./C.cell (11c1c37f851c82e70ff6c80c92926a4b)
REM AIRSS Version 0.9.1 bugfix July 2018 build 013d7b7c2542+ Fri, 06 Jul 2018 19:26:36 +0100
REM compiler GCC version 9.3.0
REM options -cpp -mtune=generic -march=x86-64 -g -O0
REM seed -1827033260 1510098773 1027632958 505832841 2070877563 -1628684308 -990391158 -652751184 94498737 223980302 890671360 -1231537328 -357773581 -473889350 2081808784 -1109328189 -797159580 -104387099 2035110433 925904689 1203951451 376320905 -930729652 -988565348 -801784132 -148326800 -1606268964 1190893823 1735273870 2115217208 752308881 1679638627 -206749224
REM
CELL 1.54180   50.00000   50.00000   50.00000   90.00000   90.00000   90.00000
LATT -1
SFAC C  
C      1  0.5066840000000  0.4660740000000  0.4443860000000 1.0
C      1  0.5274340000000  0.4738830000000  0.5298730000000 1.0
C      1  0.5146850000000  0.5353630000000  0.5407850000000 1.0
C      1  0.5433770000000  0.4810100000000  0.4898050000000 1.0
C      1  0.4755940000000  0.4739060000000  0.4886730000000 1.0
C      1  0.5225230000000  0.4845230000000  0.4353650000000 1.0
C      1  0.5441190000000  0.5278410000000  0.4937400000000 1.0
C      1  0.4344370000000  0.4914960000000  0.4928260000000 1.0
C      1  0.5347550000000  0.4586570000000  0.5064970000000 1.0
C      1  0.5017420000000  0.5101220000000  0.4987340000000 1.0
C      1  0.4715460000000  0.5095260000000  0.4531750000000 1.0
C      1  0.5022630000000  0.4219250000000  0.5012210000000 1.0
C      1  0.5396370000000  0.4993950000000  0.5252780000000 1.0
C      1  0.5075190000000  0.5455940000000  0.4655330000000 1.0
C      1  0.5158880000000  0.4911090000000  0.4802120000000 1.0
C      1  0.5225410000000  0.5239310000000  0.5157180000000 1.0
C      1  0.4837860000000  0.4955830000000  0.5385690000000 1.0
C      1  0.4873800000000  0.4469170000000  0.5383460000000 1.0
C      1  0.4938030000000  0.5228980000000  0.4520030000000 1.0
C      1  0.4604620000000  0.4488920000000  0.4994510000000 1.0
C      1  0.4817540000000  0.4358780000000  0.5139080000000 1.0
C      1  0.4826020000000  0.5799090000000  0.5274360000000 1.0
C      1  0.5146820000000  0.4440240000000  0.4919860000000 1.0
C      1  0.5213690000000  0.5068580000000  0.4553960000000 1.0
C      1  0.5007330000000  0.4660060000000  0.4747440000000 1.0
C      1  0.5329680000000  0.5310380000000  0.4681890000000 1.0
C      1  0.4765320000000  0.4988910000000  0.5079710000000 1.0
C      1  0.4781580000000  0.5712320000000  0.5516570000000 1.0
C      1  0.5557480000000  0.5029780000000  0.5016570000000 1.0
C      1  0.4466950000000  0.4671540000000  0.4849660000000 1.0
C      1  0.4902620000000  0.5765310000000  0.5029120000000 1.0
C      1  0.4994970000000  0.4708230000000  0.5401830000000 1.0
C      1  0.4967030000000  0.5647480000000  0.4810560000000 1.0
C      1  0.4927730000000  0.5186930000000  0.5514290000000 1.0
C      1  0.4479680000000  0.5099660000000  0.5041580000000 1.0
C      1  0.4913800000000  0.5466250000000  0.5521660000000 1.0
END
