TITL C-21092-1335-2 -0.00609370662054368 125000 -29.7959809874249 0 0 5 (D(inf)h) n - 1
REM
REM in /rds/project/t2_vol4/rds-t2-cs072/BORA/CARBON/from-Arr/AIRSS/Generating-Clusters/GAP-ML-2020/Only-C1/SD-CG/HFTN-CG
REM
REM
REM
REM
REM
REM ./C.cell (11c1c37f851c82e70ff6c80c92926a4b)
REM AIRSS Version 0.9.1 bugfix July 2018 build 013d7b7c2542+ Fri, 06 Jul 2018 19:26:36 +0100
REM compiler GCC version 9.3.0
REM options -cpp -mtune=generic -march=x86-64 -g -O0
REM seed -674441735 219077953 850812809 585299638 -1166142723 1577601270 -697425448 -2046686723 -58154250 35703903 1655221848 -960664172 -576923789 -673591467 435633504 1227817012 -395276744 -1612013543 1959323438 -1691298559 -1182731605 199902913 -1279964939 -766720119 1241347187 2115421464 1436912674 -745326192 528278307 1118170048 137982036 283424833 1466085172
REM
CELL 1.54180   50.00000   50.00000   50.00000   90.00000   90.00000   90.00000
LATT -1
SFAC C  
C      1  0.4910520000000  0.4917910000000  0.5228150000000 1.0
C      1  0.4820980000000  0.4835760000000  0.5456440000000 1.0
C      1  0.5089480000000  0.5082100000000  0.4771850000000 1.0
C      1  0.5000000000000  0.5000000000000  0.5000000000000 1.0
C      1  0.5179020000000  0.5164240000000  0.4543560000000 1.0
END
