TITL C-211912-465-5 0.0944275076732712 125000 -856.744069760006 0 0 125 (C1) n - 1
REM
REM in /rds/project/t2_vol4/rds-t2-cs072/BORA/CARBON/from-Arr/AIRSS/Generating-Clusters/GAP-ML-2020/Only-C1/SD-CG/HFTN-CG
REM
REM
REM
REM
REM
REM ./C.cell (11c1c37f851c82e70ff6c80c92926a4b)
REM AIRSS Version 0.9.1 bugfix July 2018 build 013d7b7c2542+ Fri, 06 Jul 2018 19:26:36 +0100
REM compiler GCC version 9.3.0
REM options -cpp -mtune=generic -march=x86-64 -g -O0
REM seed -643438027 290998314 -2140246699 -199325622 848229110 595022433 109517985 644937464 501868075 -606134857 1761506218 1944082410 1790549624 -1753573028 -1130848434 -1233530258 -595969502 2117954023 -925671721 2033305550 -2071715658 -1407423324 -2098758966 -1118669937 1878068408 -1859731359 -2068677351 -223746302 165905352 -1233674450 -1679512833 1886024032 -2087520015
REM
CELL 1.54180   50.00000   50.00000   50.00000   90.00000   90.00000   90.00000
LATT -1
SFAC C  
C      1  0.4382030000000  0.5151240000000  0.5451780000000 1.0
C      1  0.4954720000000  0.5153230000000  0.5954740000000 1.0
C      1  0.4478790000000  0.4682150000000  0.4384090000000 1.0
C      1  0.5386130000000  0.5403670000000  0.5202790000000 1.0
C      1  0.5795230000000  0.4924110000000  0.5207520000000 1.0
C      1  0.4552550000000  0.4460940000000  0.5610640000000 1.0
C      1  0.5444400000000  0.5348300000000  0.4900110000000 1.0
C      1  0.4501830000000  0.4260030000000  0.4922810000000 1.0
C      1  0.5407750000000  0.4373870000000  0.5617960000000 1.0
C      1  0.5655940000000  0.5364250000000  0.4503990000000 1.0
C      1  0.5385890000000  0.5420220000000  0.4425440000000 1.0
C      1  0.4621980000000  0.5466340000000  0.4204730000000 1.0
C      1  0.4598190000000  0.5254700000000  0.4725340000000 1.0
C      1  0.4565950000000  0.4925130000000  0.5821270000000 1.0
C      1  0.4290920000000  0.4831330000000  0.5429450000000 1.0
C      1  0.4573900000000  0.5902770000000  0.5035140000000 1.0
C      1  0.5416220000000  0.4696000000000  0.4291170000000 1.0
C      1  0.5278570000000  0.5121230000000  0.5235830000000 1.0
C      1  0.4808320000000  0.4901350000000  0.5977000000000 1.0
C      1  0.5873710000000  0.5430870000000  0.5225610000000 1.0
C      1  0.4237500000000  0.5334120000000  0.4991130000000 1.0
C      1  0.5223890000000  0.5206480000000  0.5971190000000 1.0
C      1  0.4626680000000  0.4206400000000  0.5194310000000 1.0
C      1  0.4676900000000  0.4767210000000  0.5046870000000 1.0
C      1  0.4983170000000  0.4617730000000  0.5471120000000 1.0
C      1  0.5676760000000  0.4521860000000  0.5599080000000 1.0
C      1  0.4688370000000  0.5820010000000  0.4565710000000 1.0
C      1  0.4533950000000  0.5708520000000  0.5269850000000 1.0
C      1  0.5020070000000  0.5154540000000  0.5065260000000 1.0
C      1  0.5281860000000  0.4940060000000  0.4699030000000 1.0
C      1  0.5394620000000  0.5926180000000  0.4893730000000 1.0
C      1  0.5480590000000  0.4924240000000  0.5129160000000 1.0
C      1  0.4169450000000  0.5485590000000  0.4531670000000 1.0
C      1  0.5487990000000  0.4984880000000  0.4287480000000 1.0
C      1  0.5206720000000  0.5389670000000  0.4715950000000 1.0
C      1  0.5500470000000  0.5038130000000  0.4858050000000 1.0
C      1  0.4388370000000  0.5088190000000  0.5026940000000 1.0
C      1  0.4569820000000  0.5177840000000  0.5693140000000 1.0
C      1  0.4926360000000  0.4891730000000  0.5449140000000 1.0
C      1  0.3978480000000  0.4703420000000  0.5059390000000 1.0
C      1  0.5389800000000  0.5715260000000  0.4461690000000 1.0
C      1  0.5263720000000  0.4404320000000  0.5864760000000 1.0
C      1  0.4649110000000  0.5451480000000  0.5145700000000 1.0
C      1  0.5388480000000  0.4157510000000  0.5420730000000 1.0
C      1  0.5050780000000  0.5840440000000  0.5271510000000 1.0
C      1  0.5121650000000  0.5541050000000  0.5319070000000 1.0
C      1  0.5781680000000  0.4692910000000  0.4669640000000 1.0
C      1  0.5164960000000  0.5055050000000  0.5503530000000 1.0
C      1  0.4851360000000  0.4351140000000  0.4784790000000 1.0
C      1  0.5636050000000  0.4194500000000  0.5286370000000 1.0
C      1  0.5847850000000  0.4528480000000  0.4892700000000 1.0
C      1  0.5595930000000  0.4563790000000  0.4485290000000 1.0
C      1  0.5347890000000  0.4667490000000  0.5173760000000 1.0
C      1  0.4948710000000  0.4452640000000  0.4337630000000 1.0
C      1  0.4279900000000  0.5257330000000  0.4359320000000 1.0
C      1  0.4955640000000  0.5800580000000  0.4650740000000 1.0
C      1  0.5084630000000  0.5365820000000  0.5577780000000 1.0
C      1  0.5248370000000  0.5948210000000  0.5104650000000 1.0
C      1  0.4499140000000  0.5048740000000  0.4021330000000 1.0
C      1  0.5888090000000  0.5383630000000  0.4958340000000 1.0
C      1  0.4678250000000  0.5741350000000  0.4293540000000 1.0
C      1  0.4490470000000  0.5765250000000  0.4766800000000 1.0
C      1  0.5720180000000  0.4280740000000  0.4834260000000 1.0
C      1  0.4600710000000  0.5258060000000  0.4437970000000 1.0
C      1  0.5901160000000  0.5098160000000  0.4958820000000 1.0
C      1  0.5772270000000  0.4974830000000  0.4713360000000 1.0
C      1  0.5066550000000  0.5127190000000  0.4767140000000 1.0
C      1  0.5282930000000  0.4221330000000  0.4694110000000 1.0
C      1  0.4172370000000  0.5064180000000  0.4549590000000 1.0
C      1  0.5043820000000  0.5591870000000  0.4831670000000 1.0
C      1  0.4152060000000  0.4647650000000  0.4832630000000 1.0
C      1  0.5675110000000  0.5495960000000  0.4767760000000 1.0
C      1  0.5127620000000  0.5810190000000  0.4413090000000 1.0
C      1  0.4863450000000  0.4926520000000  0.4638610000000 1.0
C      1  0.5157470000000  0.4594420000000  0.4219900000000 1.0
C      1  0.5745140000000  0.5009060000000  0.5515730000000 1.0
C      1  0.5645890000000  0.5424980000000  0.5368700000000 1.0
C      1  0.4831260000000  0.5309270000000  0.5746360000000 1.0
C      1  0.4212620000000  0.5381740000000  0.5317990000000 1.0
C      1  0.4096940000000  0.5286130000000  0.4730170000000 1.0
C      1  0.4963360000000  0.4671760000000  0.5978760000000 1.0
C      1  0.4321100000000  0.4816140000000  0.4626040000000 1.0
C      1  0.5543290000000  0.4314240000000  0.4616170000000 1.0
C      1  0.4566160000000  0.4948810000000  0.4800570000000 1.0
C      1  0.4254060000000  0.5732720000000  0.4585350000000 1.0
C      1  0.5269350000000  0.4608100000000  0.5459780000000 1.0
C      1  0.4875870000000  0.4552530000000  0.5002420000000 1.0
C      1  0.4766940000000  0.5897320000000  0.5225670000000 1.0
C      1  0.5583780000000  0.4128250000000  0.5024830000000 1.0
C      1  0.4021500000000  0.4759050000000  0.5310030000000 1.0
C      1  0.5635220000000  0.4796680000000  0.5655430000000 1.0
C      1  0.4281470000000  0.5633430000000  0.5383160000000 1.0
C      1  0.5068670000000  0.4400830000000  0.4599590000000 1.0
C      1  0.4975630000000  0.4400590000000  0.5859190000000 1.0
C      1  0.5298640000000  0.4099220000000  0.4967120000000 1.0
C      1  0.5709220000000  0.5099260000000  0.4451350000000 1.0
C      1  0.5250170000000  0.4686170000000  0.5921520000000 1.0
C      1  0.5350860000000  0.5314350000000  0.5745530000000 1.0
C      1  0.5139220000000  0.4644660000000  0.4991910000000 1.0
C      1  0.5158760000000  0.4114790000000  0.5237540000000 1.0
C      1  0.4490860000000  0.5470140000000  0.4895540000000 1.0
C      1  0.4963760000000  0.5716300000000  0.4209870000000 1.0
C      1  0.4602670000000  0.4869980000000  0.4200660000000 1.0
C      1  0.4320040000000  0.4472020000000  0.4973460000000 1.0
C      1  0.5605670000000  0.5263050000000  0.5597180000000 1.0
C      1  0.5019930000000  0.5194770000000  0.4193140000000 1.0
C      1  0.4652690000000  0.4461630000000  0.4419160000000 1.0
C      1  0.5299470000000  0.5198740000000  0.4240830000000 1.0
C      1  0.5868390000000  0.4628970000000  0.5160290000000 1.0
C      1  0.4616560000000  0.4288480000000  0.4658090000000 1.0
C      1  0.5789800000000  0.4436070000000  0.5357030000000 1.0
C      1  0.5523170000000  0.5759850000000  0.4708110000000 1.0
C      1  0.4801400000000  0.5034710000000  0.4354780000000 1.0
C      1  0.4887030000000  0.4177920000000  0.5331640000000 1.0
C      1  0.4482320000000  0.4393780000000  0.5353030000000 1.0
C      1  0.4437200000000  0.4719630000000  0.5666630000000 1.0
C      1  0.4435190000000  0.4640070000000  0.5202360000000 1.0
C      1  0.5105720000000  0.4710430000000  0.4712080000000 1.0
C      1  0.4804120000000  0.4985260000000  0.5204420000000 1.0
C      1  0.4945110000000  0.5452200000000  0.5090730000000 1.0
C      1  0.4906910000000  0.5448320000000  0.4127100000000 1.0
C      1  0.5338170000000  0.4823280000000  0.5665690000000 1.0
C      1  0.4398130000000  0.5296740000000  0.4077210000000 1.0
C      1  0.4840860000000  0.4376000000000  0.5591860000000 1.0
C      1  0.4576540000000  0.5174990000000  0.5234020000000 1.0
END
