TITL C-2109097-5040-7 -0.0354612510472553 125000 -769.715354965787 0 0 113 (C1) n - 1
REM
REM in /nfs/bkarasulu/CARBON/AIRSS/Generating-Clusters/GAP-ML-2020/Only-C1/SD-CG/HFTN-CG
REM
REM
REM
REM
REM
REM ./C.cell (11c1c37f851c82e70ff6c80c92926a4b)
REM
REM compiler GCC version 9.2.1 20190827 (Red Hat 9.2.1-1)
REM options -cpp -mtune=generic -march=x86-64 -g -O0 -fpre-include=/usr/include/finclude/math-vector-fortran.h
REM seed 1757706822 -1163383962 -1274158377 2039201746 -1472852781 -548976906 -593578598 668764032 -2130279785 -90735291 -840622884 442562479 1887734539 395348554 -173092298 1130860736 -486742592 -1693197910 -1288339409 -777676987 -1686115782 -870319888 1269601809 -411712608 1844052309 2102600681 -1329694882 1373780371 -115392749 374841123 418505039 -61434541 1690852877
REM
CELL 1.54180   50.00000   50.00000   50.00000   90.00000   90.00000   90.00000
LATT -1
SFAC C  
C      1  0.5703340000000  0.4840270000000  0.4528320000000 1.0
C      1  0.4236430000000  0.5456010000000  0.4886530000000 1.0
C      1  0.4833210000000  0.4607300000000  0.4749450000000 1.0
C      1  0.5157940000000  0.4417500000000  0.4376180000000 1.0
C      1  0.4722270000000  0.5248580000000  0.4398760000000 1.0
C      1  0.4514250000000  0.4283670000000  0.5284460000000 1.0
C      1  0.4338630000000  0.4518260000000  0.5288810000000 1.0
C      1  0.5162590000000  0.4854660000000  0.4513320000000 1.0
C      1  0.5567950000000  0.4583260000000  0.4515900000000 1.0
C      1  0.5040650000000  0.5481370000000  0.4975930000000 1.0
C      1  0.4322340000000  0.5190770000000  0.5514830000000 1.0
C      1  0.5166230000000  0.5853810000000  0.4668550000000 1.0
C      1  0.5004860000000  0.4868500000000  0.5862890000000 1.0
C      1  0.5784630000000  0.4683640000000  0.5505680000000 1.0
C      1  0.4719670000000  0.4133270000000  0.4858350000000 1.0
C      1  0.4879370000000  0.5867890000000  0.4728470000000 1.0
C      1  0.4782080000000  0.5339720000000  0.4922110000000 1.0
C      1  0.5466520000000  0.4859110000000  0.4911940000000 1.0
C      1  0.5638990000000  0.4419090000000  0.4778760000000 1.0
C      1  0.4430220000000  0.4433400000000  0.4572200000000 1.0
C      1  0.5120520000000  0.5102640000000  0.4668760000000 1.0
C      1  0.5232300000000  0.4180870000000  0.5376560000000 1.0
C      1  0.5609160000000  0.5661340000000  0.4862420000000 1.0
C      1  0.5794230000000  0.5116310000000  0.5254360000000 1.0
C      1  0.4607600000000  0.4841580000000  0.5722750000000 1.0
C      1  0.4142200000000  0.5175850000000  0.4871070000000 1.0
C      1  0.4899150000000  0.4407830000000  0.5640550000000 1.0
C      1  0.5462010000000  0.4247460000000  0.4935040000000 1.0
C      1  0.4394580000000  0.5383560000000  0.5321150000000 1.0
C      1  0.4195720000000  0.4979660000000  0.5364870000000 1.0
C      1  0.4867870000000  0.5334780000000  0.5417800000000 1.0
C      1  0.4539180000000  0.4794510000000  0.5450800000000 1.0
C      1  0.5882920000000  0.5104380000000  0.4958790000000 1.0
C      1  0.5073200000000  0.4839100000000  0.5465730000000 1.0
C      1  0.5016530000000  0.5751940000000  0.5136510000000 1.0
C      1  0.4765900000000  0.5311440000000  0.5716810000000 1.0
C      1  0.4214340000000  0.5317550000000  0.4423570000000 1.0
C      1  0.4335150000000  0.5585980000000  0.5130270000000 1.0
C      1  0.5445350000000  0.4965400000000  0.5785130000000 1.0
C      1  0.4988090000000  0.5640040000000  0.5406840000000 1.0
C      1  0.4492910000000  0.4198530000000  0.5008800000000 1.0
C      1  0.5449390000000  0.5777010000000  0.5302850000000 1.0
C      1  0.4568380000000  0.5766410000000  0.5185770000000 1.0
C      1  0.5622940000000  0.4735820000000  0.5736620000000 1.0
C      1  0.4972180000000  0.4078890000000  0.4976560000000 1.0
C      1  0.5241420000000  0.5365290000000  0.4475960000000 1.0
C      1  0.4612450000000  0.4971280000000  0.4500770000000 1.0
C      1  0.5310460000000  0.4886070000000  0.4256700000000 1.0
C      1  0.5511180000000  0.5001010000000  0.5294160000000 1.0
C      1  0.4341960000000  0.4394960000000  0.4846480000000 1.0
C      1  0.4137110000000  0.5096050000000  0.4587190000000 1.0
C      1  0.4672540000000  0.4879090000000  0.4764790000000 1.0
C      1  0.5323880000000  0.5114620000000  0.4868550000000 1.0
C      1  0.4464830000000  0.4862360000000  0.4991400000000 1.0
C      1  0.5691870000000  0.5458540000000  0.4661670000000 1.0
C      1  0.5025160000000  0.5162960000000  0.5840150000000 1.0
C      1  0.4787150000000  0.4942960000000  0.4097500000000 1.0
C      1  0.5317380000000  0.5223080000000  0.5778270000000 1.0
C      1  0.4661070000000  0.5593420000000  0.5704510000000 1.0
C      1  0.5654210000000  0.5617910000000  0.5175020000000 1.0
C      1  0.5696730000000  0.5403050000000  0.5355390000000 1.0
C      1  0.5113000000000  0.4723300000000  0.5187840000000 1.0
C      1  0.5283280000000  0.5883930000000  0.5106120000000 1.0
C      1  0.4652950000000  0.5275480000000  0.5216720000000 1.0
C      1  0.5209170000000  0.4150250000000  0.4811050000000 1.0
C      1  0.5539960000000  0.4532940000000  0.5354820000000 1.0
C      1  0.4968930000000  0.4575550000000  0.5003400000000 1.0
C      1  0.5170340000000  0.4205580000000  0.4543100000000 1.0
C      1  0.4777740000000  0.5693120000000  0.4522260000000 1.0
C      1  0.5390410000000  0.5852060000000  0.4846570000000 1.0
C      1  0.5916690000000  0.4890110000000  0.5394290000000 1.0
C      1  0.5192230000000  0.5664510000000  0.4455760000000 1.0
C      1  0.5383980000000  0.4574070000000  0.4281490000000 1.0
C      1  0.5055410000000  0.5042920000000  0.4144600000000 1.0
C      1  0.4707820000000  0.5735110000000  0.5476690000000 1.0
C      1  0.5285000000000  0.5646940000000  0.5494440000000 1.0
C      1  0.5525370000000  0.5303700000000  0.4461170000000 1.0
C      1  0.4638500000000  0.5452770000000  0.4613760000000 1.0
C      1  0.4980540000000  0.4116410000000  0.5262300000000 1.0
C      1  0.4688560000000  0.4349450000000  0.4665520000000 1.0
C      1  0.4317360000000  0.4608980000000  0.5025200000000 1.0
C      1  0.4429990000000  0.4638090000000  0.4382640000000 1.0
C      1  0.5238580000000  0.4782880000000  0.5705950000000 1.0
C      1  0.5053840000000  0.5111510000000  0.5357310000000 1.0
C      1  0.4344800000000  0.5478120000000  0.4619480000000 1.0
C      1  0.5010130000000  0.5301080000000  0.4288680000000 1.0
C      1  0.4643160000000  0.4960490000000  0.5212910000000 1.0
C      1  0.4715080000000  0.4746040000000  0.4309400000000 1.0
C      1  0.5413020000000  0.4756150000000  0.5180680000000 1.0
C      1  0.4814220000000  0.4664990000000  0.5795870000000 1.0
C      1  0.5317280000000  0.5213400000000  0.5309200000000 1.0
C      1  0.5875810000000  0.5310210000000  0.4792000000000 1.0
C      1  0.5275290000000  0.5328860000000  0.5042430000000 1.0
C      1  0.4777250000000  0.5860760000000  0.5008770000000 1.0
C      1  0.4770760000000  0.4248980000000  0.5424380000000 1.0
C      1  0.4958040000000  0.5613050000000  0.4317420000000 1.0
C      1  0.4953970000000  0.4638410000000  0.4472580000000 1.0
C      1  0.5801540000000  0.4594870000000  0.4913010000000 1.0
C      1  0.5388300000000  0.4540930000000  0.5635180000000 1.0
C      1  0.4314710000000  0.4918930000000  0.4406850000000 1.0
C      1  0.4540650000000  0.5118890000000  0.5707920000000 1.0
C      1  0.5179590000000  0.4342290000000  0.5610380000000 1.0
C      1  0.5457000000000  0.4271380000000  0.5221100000000 1.0
C      1  0.5419130000000  0.5393190000000  0.5538230000000 1.0
C      1  0.5774820000000  0.4865170000000  0.4823780000000 1.0
C      1  0.4927980000000  0.4955960000000  0.5118740000000 1.0
C      1  0.4596120000000  0.5177640000000  0.4133180000000 1.0
C      1  0.5557970000000  0.5033340000000  0.4375100000000 1.0
C      1  0.4263770000000  0.4730150000000  0.5457060000000 1.0
C      1  0.5357790000000  0.4703530000000  0.4688760000000 1.0
C      1  0.4211370000000  0.4991450000000  0.5071790000000 1.0
C      1  0.4878970000000  0.5074210000000  0.4842400000000 1.0
C      1  0.4328520000000  0.5146230000000  0.4209390000000 1.0
END
