TITL C-21795-2086-7 -0.167604600390454 125000 -464.768773520506 0 0 69 (C1) n - 1
REM
REM in /rds/project/t2_vol4/rds-t2-cs072/BORA/CARBON/from-Arr/AIRSS/Generating-Clusters/GAP-ML-2020/Only-C1/SD-CG/HFTN-CG
REM
REM
REM
REM
REM
REM ./C.cell (11c1c37f851c82e70ff6c80c92926a4b)
REM AIRSS Version 0.9.1 bugfix July 2018 build 013d7b7c2542+ Fri, 06 Jul 2018 19:26:36 +0100
REM compiler GCC version 9.3.0
REM options -cpp -mtune=generic -march=x86-64 -g -O0
REM seed 357697886 -2001505078 996418527 -155241936 1455895923 -2130651880 -1702687482 -730316936 -1279797245 -1653530363 -1287726353 857392991 1184752320 1316274985 1719430238 -984067126 -1422659669 -441379713 -1245656887 1799983290 160813860 717882903 -634600977 378146234 -1068887795 -1891454405 1734042210 1191314493 1053313739 -2088305323 -691119492 1919470172 -1765568637
REM
CELL 1.54180   50.00000   50.00000   50.00000   90.00000   90.00000   90.00000
LATT -1
SFAC C  
C      1  0.5607830000000  0.5125850000000  0.4945340000000 1.0
C      1  0.4858500000000  0.5749350000000  0.4770770000000 1.0
C      1  0.5096220000000  0.4775640000000  0.5090630000000 1.0
C      1  0.5528380000000  0.5561870000000  0.4781890000000 1.0
C      1  0.5625290000000  0.4636380000000  0.5142860000000 1.0
C      1  0.4885190000000  0.5157430000000  0.5593690000000 1.0
C      1  0.5537360000000  0.5042800000000  0.4671820000000 1.0
C      1  0.5121740000000  0.5520270000000  0.5374300000000 1.0
C      1  0.5716400000000  0.4900820000000  0.5122670000000 1.0
C      1  0.4412710000000  0.5156070000000  0.4422990000000 1.0
C      1  0.5523270000000  0.4722310000000  0.4321780000000 1.0
C      1  0.4833970000000  0.5642880000000  0.5302140000000 1.0
C      1  0.4479510000000  0.5475380000000  0.4921800000000 1.0
C      1  0.4433560000000  0.5058630000000  0.5507590000000 1.0
C      1  0.4410470000000  0.5122940000000  0.5232900000000 1.0
C      1  0.4624080000000  0.5319900000000  0.4485760000000 1.0
C      1  0.5362690000000  0.4933880000000  0.5503180000000 1.0
C      1  0.5122670000000  0.5337120000000  0.5593450000000 1.0
C      1  0.5262070000000  0.4669730000000  0.4288130000000 1.0
C      1  0.4902020000000  0.4908470000000  0.4647250000000 1.0
C      1  0.5122140000000  0.4519690000000  0.5487320000000 1.0
C      1  0.4931290000000  0.4344750000000  0.5073080000000 1.0
C      1  0.5202290000000  0.4458830000000  0.4489540000000 1.0
C      1  0.5056410000000  0.4861470000000  0.4267020000000 1.0
C      1  0.5600620000000  0.4811570000000  0.5360870000000 1.0
C      1  0.4329110000000  0.4930710000000  0.4517200000000 1.0
C      1  0.4606210000000  0.5729670000000  0.4884220000000 1.0
C      1  0.5407050000000  0.4458320000000  0.5009890000000 1.0
C      1  0.4849950000000  0.4475680000000  0.4806310000000 1.0
C      1  0.5016060000000  0.5558830000000  0.4620780000000 1.0
C      1  0.4506290000000  0.4785390000000  0.5503280000000 1.0
C      1  0.4864380000000  0.4709360000000  0.4416760000000 1.0
C      1  0.5172580000000  0.4760680000000  0.5629070000000 1.0
C      1  0.5052390000000  0.4724720000000  0.4819110000000 1.0
C      1  0.5364360000000  0.4160470000000  0.5032330000000 1.0
C      1  0.5549890000000  0.5606430000000  0.5068050000000 1.0
C      1  0.5168250000000  0.5230560000000  0.4852030000000 1.0
C      1  0.4924900000000  0.4448430000000  0.4519560000000 1.0
C      1  0.4649300000000  0.5286670000000  0.4780080000000 1.0
C      1  0.5176200000000  0.5009840000000  0.5219890000000 1.0
C      1  0.4615780000000  0.5265920000000  0.5583810000000 1.0
C      1  0.4925610000000  0.5374340000000  0.4870130000000 1.0
C      1  0.5702010000000  0.5404570000000  0.4922180000000 1.0
C      1  0.4669930000000  0.4963580000000  0.5128630000000 1.0
C      1  0.4561160000000  0.4529520000000  0.4782170000000 1.0
C      1  0.4602200000000  0.5483780000000  0.5391410000000 1.0
C      1  0.5107610000000  0.4101790000000  0.5070610000000 1.0
C      1  0.5338900000000  0.5210370000000  0.5079170000000 1.0
C      1  0.4395900000000  0.4617740000000  0.4977640000000 1.0
C      1  0.4731300000000  0.4439100000000  0.5274630000000 1.0
C      1  0.5054500000000  0.5107090000000  0.4453300000000 1.0
C      1  0.4445040000000  0.4805530000000  0.4749560000000 1.0
C      1  0.5305140000000  0.5202190000000  0.4588440000000 1.0
C      1  0.4905650000000  0.5383300000000  0.5170340000000 1.0
C      1  0.5354820000000  0.5473130000000  0.5220350000000 1.0
C      1  0.5341130000000  0.5187910000000  0.5629870000000 1.0
C      1  0.4664700000000  0.4993690000000  0.4833390000000 1.0
C      1  0.4551260000000  0.4672950000000  0.5221670000000 1.0
C      1  0.4931280000000  0.4886820000000  0.5709730000000 1.0
C      1  0.5316600000000  0.4586890000000  0.4734480000000 1.0
C      1  0.5162900000000  0.4512250000000  0.5194750000000 1.0
C      1  0.4846530000000  0.4477000000000  0.5524550000000 1.0
C      1  0.4900820000000  0.5356270000000  0.4427870000000 1.0
C      1  0.4905960000000  0.5106710000000  0.5269960000000 1.0
C      1  0.4798800000000  0.5805190000000  0.5058580000000 1.0
C      1  0.4721180000000  0.4698850000000  0.5657140000000 1.0
C      1  0.5519710000000  0.4772840000000  0.4591930000000 1.0
C      1  0.5312840000000  0.5491490000000  0.4622880000000 1.0
C      1  0.4417140000000  0.5399370000000  0.5183500000000 1.0
END
