TITL C-21074-1303-6 0.0458031117429463 125000 -195.903176821977 0 0 30 (C1) n - 1
REM
REM in /rds/project/t2_vol4/rds-t2-cs072/BORA/CARBON/from-Arr/AIRSS/Generating-Clusters/GAP-ML-2020/Only-C1/SD-CG/HFTN-CG
REM
REM
REM
REM
REM
REM ./C.cell (11c1c37f851c82e70ff6c80c92926a4b)
REM AIRSS Version 0.9.1 bugfix July 2018 build 013d7b7c2542+ Fri, 06 Jul 2018 19:26:36 +0100
REM compiler GCC version 9.3.0
REM options -cpp -mtune=generic -march=x86-64 -g -O0
REM seed -1226649339 650490702 553450373 -1188965317 625716850 1773978849 -1691480229 -652453872 1228745827 -623570666 -657406221 667303662 912280463 1731823152 298925181 -1321023872 -1832960155 782184249 -1836101942 1647289078 1449552067 1979525484 1347125962 -2026829814 1294645006 -1989290144 125750291 612222497 2000887304 303720329 -650738133 1069788144 -1369635938
REM
CELL 1.54180   50.00000   50.00000   50.00000   90.00000   90.00000   90.00000
LATT -1
SFAC C  
C      1  0.4614520000000  0.4786270000000  0.5324740000000 1.0
C      1  0.5285510000000  0.5235980000000  0.4358820000000 1.0
C      1  0.5341430000000  0.4771250000000  0.4920790000000 1.0
C      1  0.4368430000000  0.5291360000000  0.5050300000000 1.0
C      1  0.5399480000000  0.4484550000000  0.4913200000000 1.0
C      1  0.5188350000000  0.4374110000000  0.5080690000000 1.0
C      1  0.5331540000000  0.4793620000000  0.5231610000000 1.0
C      1  0.5113980000000  0.5296670000000  0.5390920000000 1.0
C      1  0.4807860000000  0.5271600000000  0.4692680000000 1.0
C      1  0.4294690000000  0.5307380000000  0.4575770000000 1.0
C      1  0.5074190000000  0.4815180000000  0.5361770000000 1.0
C      1  0.4843090000000  0.4574480000000  0.4806500000000 1.0
C      1  0.4561080000000  0.5228280000000  0.4561740000000 1.0
C      1  0.5514790000000  0.5024700000000  0.5267030000000 1.0
C      1  0.5089780000000  0.5401140000000  0.5114470000000 1.0
C      1  0.4682160000000  0.5057360000000  0.5355160000000 1.0
C      1  0.5391790000000  0.4483160000000  0.5227670000000 1.0
C      1  0.5549380000000  0.5158700000000  0.5007430000000 1.0
C      1  0.4855070000000  0.4647650000000  0.5276030000000 1.0
C      1  0.5385440000000  0.5387930000000  0.5093800000000 1.0
C      1  0.4923940000000  0.4487280000000  0.5055210000000 1.0
C      1  0.4963110000000  0.5066130000000  0.5432080000000 1.0
C      1  0.4845950000000  0.5329950000000  0.4973920000000 1.0
C      1  0.5399080000000  0.5263910000000  0.5367510000000 1.0
C      1  0.4758030000000  0.4757750000000  0.4656030000000 1.0
C      1  0.4229650000000  0.5321640000000  0.4839950000000 1.0
C      1  0.4611930000000  0.5255120000000  0.5154270000000 1.0
C      1  0.5387990000000  0.5109500000000  0.4549660000000 1.0
C      1  0.5447450000000  0.4999650000000  0.4793160000000 1.0
C      1  0.4740320000000  0.5017690000000  0.4567080000000 1.0
END
