TITL C-21097-1322-1 -0.111025991558579 125000 -929.216454818403 0 0 132 (C1) n - 1
REM
REM in /rds/project/t2_vol4/rds-t2-cs072/BORA/CARBON/from-Arr/AIRSS/Generating-Clusters/GAP-ML-2020/Only-C1/SD-CG/HFTN-CG
REM
REM
REM
REM
REM
REM ./C.cell (11c1c37f851c82e70ff6c80c92926a4b)
REM AIRSS Version 0.9.1 bugfix July 2018 build 013d7b7c2542+ Fri, 06 Jul 2018 19:26:36 +0100
REM compiler GCC version 9.3.0
REM options -cpp -mtune=generic -march=x86-64 -g -O0
REM seed 1526339076 -1788494215 -199335934 1263987755 263350288 965109702 447753229 -1573025671 1365726865 1513382067 902540312 -242487704 -1786810725 -487964102 -1216623344 453210359 2065861072 -181903279 -1248866606 -1387915978 -1360512205 2083208359 -1804321255 1909574486 1429489168 -2061913536 9188674 1375612616 896048617 -408295634 554602372 1433695114 -1735033702
REM
CELL 1.54180   50.00000   50.00000   50.00000   90.00000   90.00000   90.00000
LATT -1
SFAC C  
C      1  0.4220260000000  0.4411320000000  0.5026040000000 1.0
C      1  0.4114820000000  0.4537670000000  0.5260590000000 1.0
C      1  0.4197180000000  0.4541360000000  0.4770700000000 1.0
C      1  0.4801710000000  0.4940130000000  0.4625960000000 1.0
C      1  0.4226030000000  0.5562310000000  0.4996380000000 1.0
C      1  0.5580030000000  0.4679000000000  0.4175980000000 1.0
C      1  0.5810320000000  0.4447680000000  0.4844140000000 1.0
C      1  0.5095910000000  0.5944870000000  0.4867050000000 1.0
C      1  0.4864200000000  0.5180100000000  0.5961380000000 1.0
C      1  0.4087710000000  0.5258390000000  0.4604410000000 1.0
C      1  0.4654730000000  0.5107910000000  0.5150240000000 1.0
C      1  0.5638900000000  0.4350360000000  0.5049130000000 1.0
C      1  0.4894640000000  0.4894210000000  0.5971480000000 1.0
C      1  0.4863710000000  0.4710150000000  0.4418880000000 1.0
C      1  0.4446770000000  0.4242930000000  0.5105030000000 1.0
C      1  0.5510130000000  0.5340240000000  0.5782940000000 1.0
C      1  0.4920000000000  0.5162480000000  0.4121060000000 1.0
C      1  0.4930530000000  0.4601360000000  0.4890160000000 1.0
C      1  0.4263710000000  0.5374880000000  0.4414660000000 1.0
C      1  0.4458610000000  0.5084280000000  0.4944440000000 1.0
C      1  0.4648890000000  0.4757540000000  0.4218270000000 1.0
C      1  0.4036760000000  0.5118040000000  0.5335210000000 1.0
C      1  0.5750120000000  0.4651590000000  0.4405350000000 1.0
C      1  0.4219990000000  0.5288140000000  0.5474420000000 1.0
C      1  0.5107390000000  0.5013030000000  0.5296320000000 1.0
C      1  0.5592020000000  0.4906270000000  0.4024960000000 1.0
C      1  0.4768150000000  0.4292980000000  0.5508880000000 1.0
C      1  0.5318810000000  0.4575690000000  0.4234610000000 1.0
C      1  0.5493440000000  0.5195930000000  0.4817520000000 1.0
C      1  0.5968540000000  0.4910820000000  0.4757620000000 1.0
C      1  0.4725330000000  0.5604280000000  0.4158110000000 1.0
C      1  0.5147100000000  0.4757550000000  0.5936190000000 1.0
C      1  0.4629560000000  0.4850650000000  0.5301910000000 1.0
C      1  0.5763250000000  0.5577920000000  0.5033250000000 1.0
C      1  0.5012460000000  0.5381710000000  0.4676810000000 1.0
C      1  0.5934070000000  0.5053580000000  0.5207360000000 1.0
C      1  0.4387230000000  0.5147720000000  0.4248730000000 1.0
C      1  0.5383480000000  0.4545370000000  0.5093060000000 1.0
C      1  0.5180380000000  0.5861600000000  0.5309220000000 1.0
C      1  0.5124130000000  0.4513430000000  0.5791910000000 1.0
C      1  0.4942870000000  0.5092460000000  0.5052870000000 1.0
C      1  0.5643050000000  0.5360670000000  0.4626180000000 1.0
C      1  0.5483710000000  0.4916650000000  0.4810250000000 1.0
C      1  0.4986800000000  0.5115680000000  0.5536810000000 1.0
C      1  0.4897820000000  0.4122270000000  0.5042810000000 1.0
C      1  0.5248820000000  0.4803640000000  0.4692580000000 1.0
C      1  0.4389930000000  0.5699670000000  0.4795990000000 1.0
C      1  0.5113120000000  0.5333960000000  0.5946160000000 1.0
C      1  0.4785190000000  0.5249700000000  0.4598510000000 1.0
C      1  0.5598660000000  0.4634540000000  0.5604880000000 1.0
C      1  0.5206620000000  0.5538350000000  0.4228230000000 1.0
C      1  0.4804510000000  0.4651110000000  0.5148080000000 1.0
C      1  0.5164950000000  0.5028980000000  0.4210640000000 1.0
C      1  0.5416870000000  0.5414850000000  0.4111890000000 1.0
C      1  0.4378540000000  0.5618210000000  0.4511680000000 1.0
C      1  0.5524750000000  0.5720750000000  0.4916470000000 1.0
C      1  0.4133000000000  0.4834170000000  0.5291270000000 1.0
C      1  0.5836710000000  0.4775080000000  0.5192360000000 1.0
C      1  0.5309120000000  0.5865590000000  0.5047110000000 1.0
C      1  0.4709060000000  0.4750680000000  0.5792470000000 1.0
C      1  0.4173430000000  0.4947040000000  0.5002280000000 1.0
C      1  0.4861230000000  0.4452880000000  0.4592750000000 1.0
C      1  0.5781120000000  0.4565100000000  0.5401820000000 1.0
C      1  0.4522910000000  0.5637720000000  0.5358620000000 1.0
C      1  0.5935930000000  0.4682600000000  0.4926750000000 1.0
C      1  0.4648450000000  0.5041770000000  0.4145240000000 1.0
C      1  0.5265990000000  0.4111400000000  0.4708940000000 1.0
C      1  0.5174260000000  0.4046720000000  0.4978430000000 1.0
C      1  0.4806330000000  0.5367620000000  0.5557930000000 1.0
C      1  0.4402040000000  0.5163620000000  0.5697910000000 1.0
C      1  0.5254360000000  0.4079150000000  0.5266470000000 1.0
C      1  0.5850670000000  0.5379960000000  0.4841980000000 1.0
C      1  0.5053760000000  0.5858430000000  0.4601830000000 1.0
C      1  0.5475010000000  0.5610560000000  0.4655460000000 1.0
C      1  0.5063270000000  0.5348640000000  0.4963120000000 1.0
C      1  0.5593890000000  0.4890420000000  0.5728040000000 1.0
C      1  0.4608760000000  0.4326960000000  0.4656570000000 1.0
C      1  0.4641900000000  0.4175440000000  0.4913660000000 1.0
C      1  0.4696600000000  0.5394740000000  0.5286160000000 1.0
C      1  0.3990050000000  0.5171690000000  0.5058440000000 1.0
C      1  0.5833320000000  0.4915020000000  0.4504330000000 1.0
C      1  0.5375690000000  0.5064080000000  0.5227010000000 1.0
C      1  0.5289390000000  0.4326160000000  0.4350400000000 1.0
C      1  0.5510400000000  0.4822960000000  0.5096790000000 1.0
C      1  0.4048160000000  0.5371470000000  0.4871910000000 1.0
C      1  0.5847750000000  0.5247030000000  0.5405180000000 1.0
C      1  0.5705600000000  0.4301260000000  0.5316170000000 1.0
C      1  0.4310810000000  0.4472830000000  0.5456230000000 1.0
C      1  0.4944830000000  0.5452500000000  0.4124360000000 1.0
C      1  0.5198350000000  0.4489860000000  0.5333040000000 1.0
C      1  0.4902720000000  0.5510310000000  0.5120280000000 1.0
C      1  0.4243520000000  0.4911660000000  0.4335240000000 1.0
C      1  0.5830970000000  0.5494970000000  0.5282620000000 1.0
C      1  0.5464860000000  0.4193970000000  0.5439440000000 1.0
C      1  0.4073270000000  0.4974580000000  0.4553980000000 1.0
C      1  0.5152270000000  0.4784610000000  0.4372050000000 1.0
C      1  0.4504710000000  0.4278710000000  0.5389080000000 1.0
C      1  0.5686500000000  0.5153370000000  0.4413250000000 1.0
C      1  0.4979140000000  0.4889820000000  0.4831810000000 1.0
C      1  0.5352190000000  0.5185170000000  0.5978020000000 1.0
C      1  0.5487280000000  0.4231780000000  0.4544970000000 1.0
C      1  0.4896110000000  0.5945410000000  0.5273310000000 1.0
C      1  0.4278480000000  0.5531140000000  0.5293200000000 1.0
C      1  0.5480120000000  0.5133450000000  0.4182670000000 1.0
C      1  0.5972600000000  0.5135870000000  0.4931760000000 1.0
C      1  0.5022940000000  0.4726550000000  0.5334200000000 1.0
C      1  0.5353740000000  0.4450790000000  0.5592500000000 1.0
C      1  0.4840250000000  0.5962740000000  0.4997860000000 1.0
C      1  0.4609160000000  0.5724840000000  0.4372340000000 1.0
C      1  0.5711040000000  0.4419240000000  0.4580550000000 1.0
C      1  0.5202090000000  0.5608110000000  0.4526830000000 1.0
C      1  0.4373600000000  0.4761630000000  0.5464530000000 1.0
C      1  0.4721620000000  0.5816060000000  0.5451980000000 1.0
C      1  0.5686340000000  0.5161140000000  0.5639960000000 1.0
C      1  0.4823070000000  0.4867140000000  0.5533930000000 1.0
C      1  0.4437310000000  0.4880140000000  0.5724360000000 1.0
C      1  0.4839530000000  0.4474270000000  0.5726270000000 1.0
C      1  0.4401440000000  0.4672730000000  0.4339250000000 1.0
C      1  0.5177950000000  0.5712690000000  0.5564970000000 1.0
C      1  0.5219070000000  0.4552140000000  0.4855450000000 1.0
C      1  0.5077130000000  0.4247470000000  0.4521120000000 1.0
C      1  0.4576200000000  0.5094950000000  0.4703170000000 1.0
C      1  0.4389320000000  0.4488380000000  0.4568130000000 1.0
C      1  0.4900890000000  0.5652720000000  0.5596430000000 1.0
C      1  0.4632810000000  0.5868620000000  0.4815580000000 1.0
C      1  0.4767840000000  0.5862470000000  0.4566790000000 1.0
C      1  0.5283090000000  0.5520890000000  0.5747210000000 1.0
C      1  0.4987430000000  0.4224680000000  0.5315390000000 1.0
C      1  0.4645430000000  0.5279130000000  0.5786570000000 1.0
C      1  0.4076160000000  0.4797920000000  0.4771920000000 1.0
C      1  0.5349100000000  0.5283890000000  0.5044160000000 1.0
C      1  0.5381310000000  0.4915770000000  0.5921450000000 1.0
END
