TITL C-216157-3321-8 -777.356191517085 125000 -822.019964613359 0 0 117 (C1) n - 1
REM
REM in /rds/project/t2_vol4/rds-t2-cs072/BORA/CARBON/from-Arr/AIRSS/Generating-Clusters/GAP-ML-2020/Only-C1/SD-CG/HFTN-CG
REM
REM
REM
REM
REM
REM ./C.cell (11c1c37f851c82e70ff6c80c92926a4b)
REM AIRSS Version 0.9.1 bugfix July 2018 build 013d7b7c2542+ Fri, 06 Jul 2018 19:26:36 +0100
REM compiler GCC version 9.3.0
REM options -cpp -mtune=generic -march=x86-64 -g -O0
REM seed -410984140 548218221 -1714859012 569474567 -1214919911 -714190997 671939535 -1582275001 -761251332 2060659311 -499589095 880352088 -1649576315 427805799 -1071552939 -781587162 887732163 -1335154680 -1221919469 -1733617391 -2079579975 40752498 -930510259 -512974912 -1953905509 -964403767 143671989 -1463826488 -2027812342 1606545449 -658258310 -701842914 -825902122
REM
CELL 1.54180   50.00000   50.00000   50.00000   90.00000   90.00000   90.00000
LATT -1
SFAC C  
C      1  0.5449800000000  0.5841550000000  0.5191370000000 1.0
C      1  0.4830890000000  0.4292660000000  0.4411560000000 1.0
C      1  0.5583790000000  0.5424920000000  0.4321670000000 1.0
C      1  0.4153010000000  0.5492150000000  0.5362770000000 1.0
C      1  0.5230360000000  0.4617260000000  0.4696720000000 1.0
C      1  0.5608500000000  0.5609160000000  0.4515010000000 1.0
C      1  0.4182580000000  0.5144330000000  0.4918640000000 1.0
C      1  0.4970040000000  0.4540810000000  0.5895280000000 1.0
C      1  0.4121640000000  0.5212310000000  0.5400970000000 1.0
C      1  0.4295430000000  0.5182770000000  0.5625660000000 1.0
C      1  0.5338290000000  0.4470740000000  0.5415240000000 1.0
C      1  0.4413040000000  0.5366490000000  0.4450070000000 1.0
C      1  0.4475920000000  0.4325620000000  0.5074230000000 1.0
C      1  0.5109230000000  0.5162630000000  0.5401770000000 1.0
C      1  0.4609350000000  0.4229820000000  0.4830390000000 1.0
C      1  0.5792890000000  0.4594700000000  0.4821950000000 1.0
C      1  0.5150100000000  0.5521830000000  0.5757020000000 1.0
C      1  0.5638710000000  0.4724030000000  0.4347620000000 1.0
C      1  0.5128970000000  0.5218230000000  0.5722030000000 1.0
C      1  0.5259140000000  0.4131810000000  0.4632650000000 1.0
C      1  0.4698120000000  0.5412790000000  0.5826180000000 1.0
C      1  0.4702050000000  0.4777000000000  0.4848270000000 1.0
C      1  0.5292780000000  0.4086020000000  0.4915020000000 1.0
C      1  0.4661330000000  0.5484480000000  0.4377500000000 1.0
C      1  0.5115710000000  0.5523050000000  0.4303480000000 1.0
C      1  0.4871810000000  0.5848120000000  0.5577870000000 1.0
C      1  0.5701910000000  0.5174150000000  0.4377130000000 1.0
C      1  0.4615350000000  0.4953220000000  0.4337640000000 1.0
C      1  0.4980430000000  0.4113060000000  0.4576790000000 1.0
C      1  0.4954940000000  0.5125640000000  0.4719770000000 1.0
C      1  0.4422770000000  0.4553150000000  0.4518070000000 1.0
C      1  0.4734990000000  0.5871850000000  0.5323380000000 1.0
C      1  0.5527540000000  0.4226550000000  0.5005560000000 1.0
C      1  0.4868140000000  0.5185030000000  0.5867800000000 1.0
C      1  0.4372040000000  0.5603440000000  0.5530290000000 1.0
C      1  0.5435600000000  0.5743550000000  0.4666270000000 1.0
C      1  0.4891240000000  0.5992890000000  0.4857290000000 1.0
C      1  0.4234830000000  0.4746320000000  0.5241370000000 1.0
C      1  0.5131120000000  0.5412740000000  0.4983480000000 1.0
C      1  0.4425700000000  0.5416650000000  0.5729960000000 1.0
C      1  0.4373200000000  0.4709350000000  0.4772780000000 1.0
C      1  0.5478250000000  0.4495370000000  0.4309200000000 1.0
C      1  0.5642410000000  0.4359850000000  0.4779140000000 1.0
C      1  0.5663090000000  0.5232210000000  0.4898260000000 1.0
C      1  0.5146520000000  0.5912400000000  0.5530500000000 1.0
C      1  0.4747450000000  0.4887890000000  0.5128400000000 1.0
C      1  0.4653050000000  0.4331810000000  0.5618360000000 1.0
C      1  0.4277460000000  0.4981220000000  0.4707460000000 1.0
C      1  0.4411120000000  0.5521670000000  0.4692670000000 1.0
C      1  0.4613890000000  0.5113360000000  0.5247240000000 1.0
C      1  0.4286610000000  0.5584940000000  0.5132880000000 1.0
C      1  0.5217570000000  0.4965840000000  0.4400610000000 1.0
C      1  0.4865350000000  0.5379570000000  0.4230870000000 1.0
C      1  0.4488810000000  0.5016570000000  0.5504230000000 1.0
C      1  0.5352340000000  0.5301460000000  0.4830340000000 1.0
C      1  0.5046670000000  0.4959370000000  0.4047220000000 1.0
C      1  0.4259090000000  0.5430750000000  0.4903720000000 1.0
C      1  0.5196640000000  0.5979730000000  0.5261390000000 1.0
C      1  0.5304570000000  0.5091540000000  0.4137640000000 1.0
C      1  0.4581400000000  0.4327070000000  0.4554660000000 1.0
C      1  0.4840730000000  0.4533960000000  0.4891040000000 1.0
C      1  0.5233290000000  0.4690850000000  0.5182140000000 1.0
C      1  0.4943540000000  0.4192210000000  0.5275640000000 1.0
C      1  0.5248170000000  0.4511060000000  0.4148960000000 1.0
C      1  0.5149570000000  0.5720170000000  0.4520650000000 1.0
C      1  0.5560590000000  0.4673670000000  0.5518090000000 1.0
C      1  0.4881270000000  0.5623680000000  0.5759810000000 1.0
C      1  0.4849480000000  0.5363830000000  0.4858310000000 1.0
C      1  0.5107200000000  0.4291550000000  0.5490700000000 1.0
C      1  0.5033230000000  0.4898760000000  0.5286200000000 1.0
C      1  0.4555640000000  0.5636690000000  0.5273200000000 1.0
C      1  0.4905420000000  0.5822420000000  0.4647400000000 1.0
C      1  0.5056480000000  0.4668930000000  0.4036780000000 1.0
C      1  0.4907310000000  0.4748530000000  0.5494450000000 1.0
C      1  0.5719020000000  0.4799870000000  0.4625360000000 1.0
C      1  0.5242870000000  0.5089480000000  0.4679920000000 1.0
C      1  0.4502720000000  0.4699210000000  0.4306320000000 1.0
C      1  0.5045320000000  0.4732280000000  0.4486880000000 1.0
C      1  0.5735940000000  0.4553190000000  0.5318180000000 1.0
C      1  0.4685790000000  0.4649210000000  0.5338150000000 1.0
C      1  0.4708320000000  0.5587060000000  0.4656920000000 1.0
C      1  0.5027270000000  0.5370300000000  0.5243490000000 1.0
C      1  0.4923540000000  0.5989190000000  0.5128160000000 1.0
C      1  0.4731660000000  0.5367570000000  0.5173740000000 1.0
C      1  0.4308190000000  0.4566880000000  0.5029950000000 1.0
C      1  0.5656380000000  0.5032430000000  0.5125740000000 1.0
C      1  0.5122500000000  0.4796050000000  0.5919550000000 1.0
C      1  0.5532030000000  0.4939310000000  0.5601610000000 1.0
C      1  0.5399420000000  0.4841950000000  0.4770740000000 1.0
C      1  0.5660550000000  0.5430200000000  0.5324110000000 1.0
C      1  0.5465710000000  0.4823020000000  0.5051670000000 1.0
C      1  0.4821800000000  0.5103680000000  0.4151820000000 1.0
C      1  0.5524540000000  0.5669640000000  0.5421380000000 1.0
C      1  0.5568950000000  0.4974330000000  0.4225960000000 1.0
C      1  0.4669220000000  0.4322310000000  0.5308050000000 1.0
C      1  0.5697500000000  0.5490310000000  0.5041190000000 1.0
C      1  0.5550180000000  0.5730290000000  0.4948810000000 1.0
C      1  0.5639790000000  0.5140510000000  0.5391470000000 1.0
C      1  0.4841350000000  0.4058730000000  0.4822200000000 1.0
C      1  0.4851770000000  0.4923620000000  0.5962600000000 1.0
C      1  0.4822150000000  0.4899700000000  0.4609150000000 1.0
C      1  0.4926640000000  0.4332760000000  0.5708130000000 1.0
C      1  0.4383560000000  0.5089620000000  0.4464070000000 1.0
C      1  0.5558670000000  0.4333480000000  0.5261890000000 1.0
C      1  0.4970260000000  0.4519460000000  0.4282990000000 1.0
C      1  0.5106930000000  0.4549770000000  0.4948310000000 1.0
C      1  0.4428620000000  0.4731970000000  0.5476720000000 1.0
C      1  0.4517910000000  0.4563940000000  0.5721110000000 1.0
C      1  0.4705690000000  0.4679200000000  0.5908640000000 1.0
C      1  0.5771470000000  0.5092200000000  0.4638850000000 1.0
C      1  0.4141160000000  0.5020190000000  0.5178910000000 1.0
C      1  0.5753720000000  0.4708830000000  0.5085800000000 1.0
C      1  0.5030020000000  0.4061740000000  0.5036690000000 1.0
C      1  0.5321890000000  0.5708470000000  0.5625860000000 1.0
C      1  0.5304670000000  0.4978690000000  0.5788200000000 1.0
C      1  0.5434210000000  0.4358940000000  0.4566270000000 1.0
C      1  0.5332620000000  0.5378550000000  0.4197790000000 1.0
END
