TITL C-21920-1709-4 126.82812396564 125000 -771.740201177394 0 0 112 (C1) n - 1
REM
REM in /rds/project/t2_vol4/rds-t2-cs072/BORA/CARBON/from-Arr/AIRSS/Generating-Clusters/GAP-ML-2020/Only-C1/SD-CG/HFTN-CG
REM
REM
REM
REM
REM
REM ./C.cell (11c1c37f851c82e70ff6c80c92926a4b)
REM AIRSS Version 0.9.1 bugfix July 2018 build 013d7b7c2542+ Fri, 06 Jul 2018 19:26:36 +0100
REM compiler GCC version 9.3.0
REM options -cpp -mtune=generic -march=x86-64 -g -O0
REM seed -1905240747 1176633241 1358283821 1623622053 1719750459 886985886 1555654201 -1968656639 -796883415 -422867076 41527940 -1858017183 -370229614 -1754231774 828190055 -327864128 96687134 -693427451 214510157 919236080 2048583553 -1824657882 -395883759 1042707322 -1807081076 1649405952 -607361331 1191472678 325481555 -95479762 -1995803686 -137237168 -1481219461
REM
CELL 1.54180   50.00000   50.00000   50.00000   90.00000   90.00000   90.00000
LATT -1
SFAC C  
C      1  0.5217360000000  0.4805200000000  0.5043540000000 1.0
C      1  0.4481930000000  0.5318470000000  0.5335570000000 1.0
C      1  0.4714870000000  0.5386530000000  0.5130960000000 1.0
C      1  0.5248670000000  0.4997740000000  0.4149580000000 1.0
C      1  0.5887310000000  0.4862070000000  0.4702210000000 1.0
C      1  0.5825490000000  0.4870280000000  0.5197050000000 1.0
C      1  0.5015570000000  0.4705820000000  0.4494570000000 1.0
C      1  0.4821060000000  0.4984840000000  0.4808230000000 1.0
C      1  0.4816680000000  0.4402410000000  0.5391750000000 1.0
C      1  0.5056600000000  0.5934940000000  0.4864720000000 1.0
C      1  0.4682350000000  0.5721410000000  0.5616730000000 1.0
C      1  0.4609540000000  0.5631790000000  0.5896240000000 1.0
C      1  0.5245300000000  0.5866950000000  0.5066150000000 1.0
C      1  0.4952730000000  0.4585950000000  0.4230810000000 1.0
C      1  0.5036820000000  0.5302340000000  0.5454520000000 1.0
C      1  0.5113010000000  0.5235290000000  0.4565240000000 1.0
C      1  0.5387390000000  0.4430320000000  0.5649710000000 1.0
C      1  0.5088780000000  0.4050150000000  0.4441680000000 1.0
C      1  0.5095650000000  0.5715580000000  0.5284570000000 1.0
C      1  0.4288130000000  0.4730490000000  0.4445150000000 1.0
C      1  0.4840190000000  0.4700290000000  0.4751710000000 1.0
C      1  0.4634970000000  0.5360900000000  0.4829300000000 1.0
C      1  0.4218970000000  0.5273790000000  0.5866500000000 1.0
C      1  0.5201300000000  0.4467720000000  0.5848380000000 1.0
C      1  0.4807390000000  0.5804850000000  0.4904990000000 1.0
C      1  0.5381020000000  0.5173810000000  0.5657200000000 1.0
C      1  0.4833550000000  0.5480370000000  0.5977430000000 1.0
C      1  0.5318110000000  0.4183540000000  0.4860930000000 1.0
C      1  0.4880380000000  0.5214490000000  0.5888960000000 1.0
C      1  0.5558440000000  0.4950450000000  0.4109300000000 1.0
C      1  0.5124440000000  0.4735500000000  0.5812590000000 1.0
C      1  0.5564540000000  0.4245390000000  0.4975570000000 1.0
C      1  0.5743370000000  0.4677300000000  0.5400240000000 1.0
C      1  0.5796530000000  0.4445710000000  0.4993720000000 1.0
C      1  0.5061230000000  0.5061380000000  0.5030610000000 1.0
C      1  0.4690370000000  0.5664870000000  0.4676910000000 1.0
C      1  0.4838670000000  0.4755700000000  0.5781680000000 1.0
C      1  0.4803960000000  0.5195720000000  0.4609360000000 1.0
C      1  0.5740100000000  0.4990100000000  0.4323960000000 1.0
C      1  0.5253860000000  0.5284270000000  0.5019320000000 1.0
C      1  0.4839480000000  0.5652670000000  0.5134770000000 1.0
C      1  0.4967190000000  0.5790120000000  0.5558550000000 1.0
C      1  0.5770400000000  0.4423110000000  0.5280420000000 1.0
C      1  0.4504500000000  0.4704000000000  0.4254250000000 1.0
C      1  0.5482460000000  0.5756770000000  0.4937560000000 1.0
C      1  0.5421010000000  0.5767870000000  0.4648690000000 1.0
C      1  0.5380200000000  0.4742030000000  0.4066200000000 1.0
C      1  0.5232340000000  0.4532920000000  0.4176290000000 1.0
C      1  0.4310100000000  0.4896900000000  0.5553180000000 1.0
C      1  0.5660000000000  0.5544040000000  0.4997520000000 1.0
C      1  0.4142290000000  0.4623410000000  0.4893010000000 1.0
C      1  0.4369530000000  0.5491330000000  0.5798640000000 1.0
C      1  0.4506800000000  0.5000260000000  0.4245410000000 1.0
C      1  0.4852420000000  0.4669790000000  0.5255210000000 1.0
C      1  0.5692380000000  0.5384180000000  0.5252440000000 1.0
C      1  0.5514480000000  0.5142100000000  0.4919700000000 1.0
C      1  0.4847680000000  0.4123430000000  0.4880990000000 1.0
C      1  0.5196110000000  0.4947100000000  0.4452920000000 1.0
C      1  0.5428090000000  0.4756990000000  0.4575310000000 1.0
C      1  0.4308970000000  0.4586960000000  0.4686580000000 1.0
C      1  0.5366790000000  0.4889900000000  0.5695110000000 1.0
C      1  0.4678310000000  0.4326400000000  0.4493600000000 1.0
C      1  0.5122760000000  0.5299930000000  0.5736360000000 1.0
C      1  0.4872310000000  0.4141180000000  0.4588730000000 1.0
C      1  0.4688830000000  0.4489620000000  0.4251190000000 1.0
C      1  0.4246020000000  0.5499600000000  0.4511420000000 1.0
C      1  0.5657020000000  0.5348520000000  0.4723500000000 1.0
C      1  0.5045070000000  0.5537590000000  0.4284760000000 1.0
C      1  0.5088280000000  0.5578620000000  0.5865960000000 1.0
C      1  0.5149240000000  0.5865710000000  0.4609720000000 1.0
C      1  0.5723180000000  0.4751370000000  0.4491400000000 1.0
C      1  0.4291470000000  0.5177870000000  0.5142780000000 1.0
C      1  0.4277140000000  0.5016450000000  0.4427260000000 1.0
C      1  0.5062570000000  0.5151010000000  0.4011020000000 1.0
C      1  0.4990090000000  0.4640770000000  0.5009750000000 1.0
C      1  0.5550110000000  0.4240510000000  0.5265430000000 1.0
C      1  0.5137250000000  0.5418080000000  0.4811710000000 1.0
C      1  0.4563130000000  0.5049060000000  0.5519910000000 1.0
C      1  0.4570270000000  0.4321590000000  0.5226850000000 1.0
C      1  0.5534340000000  0.4682210000000  0.5594120000000 1.0
C      1  0.5324370000000  0.4258850000000  0.5428270000000 1.0
C      1  0.4200960000000  0.4930350000000  0.5267710000000 1.0
C      1  0.5239320000000  0.5439920000000  0.5302250000000 1.0
C      1  0.4691830000000  0.4549110000000  0.5641090000000 1.0
C      1  0.5277630000000  0.4507470000000  0.4473360000000 1.0
C      1  0.5065730000000  0.4232280000000  0.5312810000000 1.0
C      1  0.4356480000000  0.4488330000000  0.5319850000000 1.0
C      1  0.5723310000000  0.5126950000000  0.5142680000000 1.0
C      1  0.4352210000000  0.5244980000000  0.4870060000000 1.0
C      1  0.4722110000000  0.5012120000000  0.5777550000000 1.0
C      1  0.4897680000000  0.5324330000000  0.4140060000000 1.0
C      1  0.4188530000000  0.4669630000000  0.5155110000000 1.0
C      1  0.4701210000000  0.5197210000000  0.4316890000000 1.0
C      1  0.5114000000000  0.5843010000000  0.5799900000000 1.0
C      1  0.4422080000000  0.5679820000000  0.4552610000000 1.0
C      1  0.5256760000000  0.4231910000000  0.4582340000000 1.0
C      1  0.5886880000000  0.4722380000000  0.4947290000000 1.0
C      1  0.5481470000000  0.5361390000000  0.5446820000000 1.0
C      1  0.4586530000000  0.4471880000000  0.4732710000000 1.0
C      1  0.5286650000000  0.5423940000000  0.4380170000000 1.0
C      1  0.5502160000000  0.5530600000000  0.4533830000000 1.0
C      1  0.4167890000000  0.5034900000000  0.5783580000000 1.0
C      1  0.5083760000000  0.4134670000000  0.5038490000000 1.0
C      1  0.4734980000000  0.4920540000000  0.5315290000000 1.0
C      1  0.4221680000000  0.5228660000000  0.4607300000000 1.0
C      1  0.4944770000000  0.5714570000000  0.4478450000000 1.0
C      1  0.4456010000000  0.5551170000000  0.5525980000000 1.0
C      1  0.5823160000000  0.5127440000000  0.4580430000000 1.0
C      1  0.4424910000000  0.4611470000000  0.5563390000000 1.0
C      1  0.5429920000000  0.4850960000000  0.4861170000000 1.0
C      1  0.4621510000000  0.4265260000000  0.4957330000000 1.0
C      1  0.4896180000000  0.5147170000000  0.5249410000000 1.0
END
