TITL C-21093-1272-8 0.0274307593812166 125000 -257.741686549235 0 0 40 (C1) n - 1
REM
REM in /rds/project/t2_vol4/rds-t2-cs072/BORA/CARBON/from-Arr/AIRSS/Generating-Clusters/GAP-ML-2020/Only-C1/SD-CG/HFTN-CG
REM
REM
REM
REM
REM
REM ./C.cell (11c1c37f851c82e70ff6c80c92926a4b)
REM AIRSS Version 0.9.1 bugfix July 2018 build 013d7b7c2542+ Fri, 06 Jul 2018 19:26:36 +0100
REM compiler GCC version 9.3.0
REM options -cpp -mtune=generic -march=x86-64 -g -O0
REM seed 970026635 1626977316 939869223 654268144 -210021476 -410836990 -1253370361 1257094614 -1666556997 -887232191 782083559 1286303237 1840100439 -983682028 1854409420 188884007 -2001394467 -1410130939 -1372434646 -61785872 -1963240437 1969464432 2009597678 -82669044 1884936489 -602399150 715571085 -459407170 2032084689 2079971958 416879281 1130546272 -191658787
REM
CELL 1.54180   50.00000   50.00000   50.00000   90.00000   90.00000   90.00000
LATT -1
SFAC C  
C      1  0.5699170000000  0.5390000000000  0.4905590000000 1.0
C      1  0.4453070000000  0.5039540000000  0.5017540000000 1.0
C      1  0.5413880000000  0.4879540000000  0.5380860000000 1.0
C      1  0.5471720000000  0.5488580000000  0.4984180000000 1.0
C      1  0.5366580000000  0.4497430000000  0.5191910000000 1.0
C      1  0.5187520000000  0.5542400000000  0.4882050000000 1.0
C      1  0.5268330000000  0.4631280000000  0.5430580000000 1.0
C      1  0.5157490000000  0.4185650000000  0.4901180000000 1.0
C      1  0.4672700000000  0.5131280000000  0.5199700000000 1.0
C      1  0.4858160000000  0.4497700000000  0.4586710000000 1.0
C      1  0.4522700000000  0.5168780000000  0.4754160000000 1.0
C      1  0.4983930000000  0.4980130000000  0.5547330000000 1.0
C      1  0.4677280000000  0.4642900000000  0.4766340000000 1.0
C      1  0.5085710000000  0.5167160000000  0.4567410000000 1.0
C      1  0.4696410000000  0.5415200000000  0.4794230000000 1.0
C      1  0.4575080000000  0.4861460000000  0.5176840000000 1.0
C      1  0.4999310000000  0.5322440000000  0.4802250000000 1.0
C      1  0.4984560000000  0.4704390000000  0.5455220000000 1.0
C      1  0.5211850000000  0.5373570000000  0.5435020000000 1.0
C      1  0.4905930000000  0.5115480000000  0.4999260000000 1.0
C      1  0.5133480000000  0.4884510000000  0.4638250000000 1.0
C      1  0.5328580000000  0.5555550000000  0.5249010000000 1.0
C      1  0.4673600000000  0.5587190000000  0.5006450000000 1.0
C      1  0.5259160000000  0.5093010000000  0.5498780000000 1.0
C      1  0.4825500000000  0.4694540000000  0.5196350000000 1.0
C      1  0.4604430000000  0.4993010000000  0.4553630000000 1.0
C      1  0.4944300000000  0.4334540000000  0.4815790000000 1.0
C      1  0.4814330000000  0.4922030000000  0.4772470000000 1.0
C      1  0.4796350000000  0.5173360000000  0.5454590000000 1.0
C      1  0.4988440000000  0.4705310000000  0.4449850000000 1.0
C      1  0.4927040000000  0.5427410000000  0.5427690000000 1.0
C      1  0.4859130000000  0.5614440000000  0.5211230000000 1.0
C      1  0.4913170000000  0.5153150000000  0.4345050000000 1.0
C      1  0.5452020000000  0.4764530000000  0.5082330000000 1.0
C      1  0.5048210000000  0.4894400000000  0.5085710000000 1.0
C      1  0.4783720000000  0.4497910000000  0.4997330000000 1.0
C      1  0.5240590000000  0.4810040000000  0.4896880000000 1.0
C      1  0.5105830000000  0.5693650000000  0.5111400000000 1.0
C      1  0.5332940000000  0.4250770000000  0.5083670000000 1.0
C      1  0.4777810000000  0.4915760000000  0.4345200000000 1.0
END
