TITL C-21834-6251-5 0.102987191996492 125000 -703.438121790408 0 0 100 (C1) n - 1
REM
REM in /rds/project/t2_vol4/rds-t2-cs072/BORA/CARBON/from-Arr/AIRSS/Generating-Clusters/GAP-ML-2020/Only-C1/SD-CG/HFTN-CG
REM
REM
REM
REM
REM
REM ./C.cell (11c1c37f851c82e70ff6c80c92926a4b)
REM AIRSS Version 0.9.1 bugfix July 2018 build 013d7b7c2542+ Fri, 06 Jul 2018 19:26:36 +0100
REM compiler GCC version 9.3.0
REM options -cpp -mtune=generic -march=x86-64 -g -O0
REM seed 568288556 -940895894 1983043186 -887981719 64385809 -2147088888 -706855092 1687415328 -2055067914 -720806877 -69546493 -1855575659 515215463 -847507669 1255539720 1772011270 -193253889 -1189716880 -100703250 -711316201 1216835548 -2096493916 -161513105 1099873745 1433747040 1135853319 -1102783424 -1282813954 1892826162 -366608823 1609306948 45616442 -618446398
REM
CELL 1.54180   50.00000   50.00000   50.00000   90.00000   90.00000   90.00000
LATT -1
SFAC C  
C      1  0.5104810000000  0.5574920000000  0.5585560000000 1.0
C      1  0.5154440000000  0.4741850000000  0.5464920000000 1.0
C      1  0.4130820000000  0.4719500000000  0.4832190000000 1.0
C      1  0.4722650000000  0.4724000000000  0.4585810000000 1.0
C      1  0.5012180000000  0.4127630000000  0.4992390000000 1.0
C      1  0.4461420000000  0.5485550000000  0.4425220000000 1.0
C      1  0.5339200000000  0.5758920000000  0.5216480000000 1.0
C      1  0.5152990000000  0.4429030000000  0.4378900000000 1.0
C      1  0.4471340000000  0.4353220000000  0.5062820000000 1.0
C      1  0.4539250000000  0.5211410000000  0.4427800000000 1.0
C      1  0.4678810000000  0.4226370000000  0.4326540000000 1.0
C      1  0.4945080000000  0.4581500000000  0.4754920000000 1.0
C      1  0.4493670000000  0.4849200000000  0.5037680000000 1.0
C      1  0.5627480000000  0.5385960000000  0.4625620000000 1.0
C      1  0.4303270000000  0.4595830000000  0.5070590000000 1.0
C      1  0.5583260000000  0.4924200000000  0.4453870000000 1.0
C      1  0.5789030000000  0.4604810000000  0.5022730000000 1.0
C      1  0.4498020000000  0.4310400000000  0.4531750000000 1.0
C      1  0.4392840000000  0.5596110000000  0.5277890000000 1.0
C      1  0.5505130000000  0.4712490000000  0.4645200000000 1.0
C      1  0.4218680000000  0.4671720000000  0.5337310000000 1.0
C      1  0.4970980000000  0.4694810000000  0.5873960000000 1.0
C      1  0.4773570000000  0.4858210000000  0.5104370000000 1.0
C      1  0.5243190000000  0.5785680000000  0.4721680000000 1.0
C      1  0.4786910000000  0.4896060000000  0.5797230000000 1.0
C      1  0.5731170000000  0.5124940000000  0.4603570000000 1.0
C      1  0.4948570000000  0.4645390000000  0.5040450000000 1.0
C      1  0.5279560000000  0.5233850000000  0.4271860000000 1.0
C      1  0.5264040000000  0.5650100000000  0.4471610000000 1.0
C      1  0.5438380000000  0.4765330000000  0.5605120000000 1.0
C      1  0.5174760000000  0.4694600000000  0.6056460000000 1.0
C      1  0.4531150000000  0.5755360000000  0.4850510000000 1.0
C      1  0.4301100000000  0.5119220000000  0.5396060000000 1.0
C      1  0.4637760000000  0.5507260000000  0.5591490000000 1.0
C      1  0.5378410000000  0.5510980000000  0.5614660000000 1.0
C      1  0.5699430000000  0.4368220000000  0.4898690000000 1.0
C      1  0.4565410000000  0.4250030000000  0.4811310000000 1.0
C      1  0.5007790000000  0.5595260000000  0.4354900000000 1.0
C      1  0.4791700000000  0.5122250000000  0.4290600000000 1.0
C      1  0.4886040000000  0.5413540000000  0.5684860000000 1.0
C      1  0.5569700000000  0.5034340000000  0.5492000000000 1.0
C      1  0.4644970000000  0.5201150000000  0.4745210000000 1.0
C      1  0.4918330000000  0.4314030000000  0.4304860000000 1.0
C      1  0.5432710000000  0.5435720000000  0.4424930000000 1.0
C      1  0.4080760000000  0.4984600000000  0.4918850000000 1.0
C      1  0.5586790000000  0.4554540000000  0.5439840000000 1.0
C      1  0.5185780000000  0.4768440000000  0.4655290000000 1.0
C      1  0.4830910000000  0.5829930000000  0.5244230000000 1.0
C      1  0.4300810000000  0.5080200000000  0.5103460000000 1.0
C      1  0.4962610000000  0.5855920000000  0.4741220000000 1.0
C      1  0.5816850000000  0.5013820000000  0.4851900000000 1.0
C      1  0.4370090000000  0.5304780000000  0.4895500000000 1.0
C      1  0.5593050000000  0.5311360000000  0.5584600000000 1.0
C      1  0.5175920000000  0.5025330000000  0.4819700000000 1.0
C      1  0.4983430000000  0.4552580000000  0.5614820000000 1.0
C      1  0.5139400000000  0.4758410000000  0.4356920000000 1.0
C      1  0.5484760000000  0.4260320000000  0.5044430000000 1.0
C      1  0.4662360000000  0.4329230000000  0.5295760000000 1.0
C      1  0.5206740000000  0.4662520000000  0.5180210000000 1.0
C      1  0.5516630000000  0.5671350000000  0.5411590000000 1.0
C      1  0.4844920000000  0.4240910000000  0.4797670000000 1.0
C      1  0.4874670000000  0.5084330000000  0.5244210000000 1.0
C      1  0.5569100000000  0.4425390000000  0.4644210000000 1.0
C      1  0.5764020000000  0.5396340000000  0.5107960000000 1.0
C      1  0.5403020000000  0.4433350000000  0.5256380000000 1.0
C      1  0.5417280000000  0.5714310000000  0.4937980000000 1.0
C      1  0.4243170000000  0.4749900000000  0.4560620000000 1.0
C      1  0.5083620000000  0.5755480000000  0.5352140000000 1.0
C      1  0.4627170000000  0.4919130000000  0.4792400000000 1.0
C      1  0.5334270000000  0.4930380000000  0.5059030000000 1.0
C      1  0.4564410000000  0.5689340000000  0.4569000000000 1.0
C      1  0.4620950000000  0.5723000000000  0.5395240000000 1.0
C      1  0.5333280000000  0.5107730000000  0.5291030000000 1.0
C      1  0.5079390000000  0.5033910000000  0.5447010000000 1.0
C      1  0.5619710000000  0.5517600000000  0.4883850000000 1.0
C      1  0.4397870000000  0.5377920000000  0.5468810000000 1.0
C      1  0.4831920000000  0.5754730000000  0.4506630000000 1.0
C      1  0.4464430000000  0.4584690000000  0.4509310000000 1.0
C      1  0.4773040000000  0.5862380000000  0.4960160000000 1.0
C      1  0.5614070000000  0.4812260000000  0.4905110000000 1.0
C      1  0.4861330000000  0.4856380000000  0.4348370000000 1.0
C      1  0.5324910000000  0.4288160000000  0.4599950000000 1.0
C      1  0.5807480000000  0.4959340000000  0.5332350000000 1.0
C      1  0.5002240000000  0.5321130000000  0.4259210000000 1.0
C      1  0.4368240000000  0.5578550000000  0.4999110000000 1.0
C      1  0.4585080000000  0.4744510000000  0.5638380000000 1.0
C      1  0.4927400000000  0.5304620000000  0.5094040000000 1.0
C      1  0.4894870000000  0.4190400000000  0.5233170000000 1.0
C      1  0.5270100000000  0.4178710000000  0.4870260000000 1.0
C      1  0.4713910000000  0.4510120000000  0.5524540000000 1.0
C      1  0.4165400000000  0.5172580000000  0.4717280000000 1.0
C      1  0.4284480000000  0.5037010000000  0.4497720000000 1.0
C      1  0.4952490000000  0.5238490000000  0.4831560000000 1.0
C      1  0.5357430000000  0.4964200000000  0.4281470000000 1.0
C      1  0.5804340000000  0.4672070000000  0.5296860000000 1.0
C      1  0.4343540000000  0.4849380000000  0.5510860000000 1.0
C      1  0.4943590000000  0.5128650000000  0.5699270000000 1.0
C      1  0.5713880000000  0.5476690000000  0.5371740000000 1.0
C      1  0.5357840000000  0.4758380000000  0.5882610000000 1.0
C      1  0.5864240000000  0.5133260000000  0.5101580000000 1.0
END
