TITL C-2114524-4667-35 -32.33286974616 125000 -1360.12592391458 0 0 192 (C1) n - 1
REM
REM in /nfs/bkarasulu/CARBON/AIRSS/Generating-Clusters/GAP-ML-2020/Only-C1/SD-CG/HFTN-CG
REM
REM
REM
REM
REM
REM ./C.cell (11c1c37f851c82e70ff6c80c92926a4b)
REM
REM compiler GCC version 9.2.1 20190827 (Red Hat 9.2.1-1)
REM options -cpp -mtune=generic -march=x86-64 -g -O0 -fpre-include=/usr/include/finclude/math-vector-fortran.h
REM seed 1127136357 -1051093910 -552098542 -1708762392 305266967 644434898 -529411310 -1382872052 -179945785 -1834846024 -1276455223 -1203264997 -874877370 -1122479546 58905965 -264922189 1589978434 1991530607 1706701252 -1420581496 1368789343 -843037095 1573900906 -1504092098 492081208 379476331 258254951 -239282848 1956436632 1711997994 2136096237 -93812442 1940934396
REM
CELL 1.54180   50.00000   50.00000   50.00000   90.00000   90.00000   90.00000
LATT -1
SFAC C  
C      1  0.4247570000000  0.5875920000000  0.5190820000000 1.0
C      1  0.5073220000000  0.5650400000000  0.4203210000000 1.0
C      1  0.5880290000000  0.4129850000000  0.5029530000000 1.0
C      1  0.5251370000000  0.5473000000000  0.4025450000000 1.0
C      1  0.5991260000000  0.5405470000000  0.4994380000000 1.0
C      1  0.4730430000000  0.4975240000000  0.6054790000000 1.0
C      1  0.5183590000000  0.4741540000000  0.5016680000000 1.0
C      1  0.4560290000000  0.5604420000000  0.4179000000000 1.0
C      1  0.5148830000000  0.4542080000000  0.5246280000000 1.0
C      1  0.4880730000000  0.5004090000000  0.4712370000000 1.0
C      1  0.5985950000000  0.4390370000000  0.5385380000000 1.0
C      1  0.4923060000000  0.4774190000000  0.6069790000000 1.0
C      1  0.5495600000000  0.4178920000000  0.4508450000000 1.0
C      1  0.5820060000000  0.5671180000000  0.5372850000000 1.0
C      1  0.4421130000000  0.5565100000000  0.5566310000000 1.0
C      1  0.4134820000000  0.5368520000000  0.4551350000000 1.0
C      1  0.4470730000000  0.3988530000000  0.4889080000000 1.0
C      1  0.4790680000000  0.6092230000000  0.4632480000000 1.0
C      1  0.4116290000000  0.4498400000000  0.4523880000000 1.0
C      1  0.4419170000000  0.4973520000000  0.4495010000000 1.0
C      1  0.4866950000000  0.5568770000000  0.4693780000000 1.0
C      1  0.4532830000000  0.5990550000000  0.4546640000000 1.0
C      1  0.5063260000000  0.6075180000000  0.4510550000000 1.0
C      1  0.5072650000000  0.5326270000000  0.5986720000000 1.0
C      1  0.5110830000000  0.4050480000000  0.5325730000000 1.0
C      1  0.4942560000000  0.4533430000000  0.5870390000000 1.0
C      1  0.4851490000000  0.4675540000000  0.4412530000000 1.0
C      1  0.4833320000000  0.6151480000000  0.4918760000000 1.0
C      1  0.5603830000000  0.5851520000000  0.5394390000000 1.0
C      1  0.3824070000000  0.4918520000000  0.5123190000000 1.0
C      1  0.4107390000000  0.4273140000000  0.5075100000000 1.0
C      1  0.6015930000000  0.5220530000000  0.4789920000000 1.0
C      1  0.4115560000000  0.5172450000000  0.5454710000000 1.0
C      1  0.6066060000000  0.4529910000000  0.5144310000000 1.0
C      1  0.5234600000000  0.6137740000000  0.4715360000000 1.0
C      1  0.4766080000000  0.4285660000000  0.5118260000000 1.0
C      1  0.5296500000000  0.5131980000000  0.6057820000000 1.0
C      1  0.5938500000000  0.4448400000000  0.4664960000000 1.0
C      1  0.4231580000000  0.5336070000000  0.5663650000000 1.0
C      1  0.5010300000000  0.5061620000000  0.4066740000000 1.0
C      1  0.5364650000000  0.5644060000000  0.5783620000000 1.0
C      1  0.4692590000000  0.4700640000000  0.5005430000000 1.0
C      1  0.4045210000000  0.4561210000000  0.5038090000000 1.0
C      1  0.3903560000000  0.4984750000000  0.4858120000000 1.0
C      1  0.5878730000000  0.4524540000000  0.5606810000000 1.0
C      1  0.4525590000000  0.5299760000000  0.4203530000000 1.0
C      1  0.4628080000000  0.4022160000000  0.5155530000000 1.0
C      1  0.5726310000000  0.4358990000000  0.4477720000000 1.0
C      1  0.5481880000000  0.4901120000000  0.4045540000000 1.0
C      1  0.6029030000000  0.4810490000000  0.5122210000000 1.0
C      1  0.5245550000000  0.3839590000000  0.4805490000000 1.0
C      1  0.4061660000000  0.4702140000000  0.4759750000000 1.0
C      1  0.5603160000000  0.5599820000000  0.4273540000000 1.0
C      1  0.5239380000000  0.5030880000000  0.4977720000000 1.0
C      1  0.5171390000000  0.5995830000000  0.5457920000000 1.0
C      1  0.5387370000000  0.5851920000000  0.5575850000000 1.0
C      1  0.4683980000000  0.5454460000000  0.4871950000000 1.0
C      1  0.5453640000000  0.5409710000000  0.5141940000000 1.0
C      1  0.5594670000000  0.4655280000000  0.5926980000000 1.0
C      1  0.5124730000000  0.5247630000000  0.5685750000000 1.0
C      1  0.4644590000000  0.6116210000000  0.5134670000000 1.0
C      1  0.5129870000000  0.4966760000000  0.5555990000000 1.0
C      1  0.5400970000000  0.4276510000000  0.5720230000000 1.0
C      1  0.5270230000000  0.6079420000000  0.5192730000000 1.0
C      1  0.4229930000000  0.4765800000000  0.5227030000000 1.0
C      1  0.4656410000000  0.5994260000000  0.5403100000000 1.0
C      1  0.5631280000000  0.5134220000000  0.4113460000000 1.0
C      1  0.4633450000000  0.4523810000000  0.4534870000000 1.0
C      1  0.4347690000000  0.6010470000000  0.4759680000000 1.0
C      1  0.5205770000000  0.5888590000000  0.4343780000000 1.0
C      1  0.5262630000000  0.4222690000000  0.4319060000000 1.0
C      1  0.5518510000000  0.5402960000000  0.4086100000000 1.0
C      1  0.5579460000000  0.4531250000000  0.5109500000000 1.0
C      1  0.4522890000000  0.4630650000000  0.4780170000000 1.0
C      1  0.5063600000000  0.5299400000000  0.3898850000000 1.0
C      1  0.5643320000000  0.4946470000000  0.4835360000000 1.0
C      1  0.5804700000000  0.5070860000000  0.4351830000000 1.0
C      1  0.5259910000000  0.4458870000000  0.4152570000000 1.0
C      1  0.5725300000000  0.4570740000000  0.4278600000000 1.0
C      1  0.4323020000000  0.4847350000000  0.4755420000000 1.0
C      1  0.5165290000000  0.5479020000000  0.5091590000000 1.0
C      1  0.4609170000000  0.4875380000000  0.5585770000000 1.0
C      1  0.4513000000000  0.4973280000000  0.5863130000000 1.0
C      1  0.4205190000000  0.5644940000000  0.4522920000000 1.0
C      1  0.4812530000000  0.5199600000000  0.4285000000000 1.0
C      1  0.4613580000000  0.4993550000000  0.5093310000000 1.0
C      1  0.5893200000000  0.4790410000000  0.4368480000000 1.0
C      1  0.4589310000000  0.5398950000000  0.5967140000000 1.0
C      1  0.5416980000000  0.4868970000000  0.5486970000000 1.0
C      1  0.4390470000000  0.6062640000000  0.5030600000000 1.0
C      1  0.4930450000000  0.5362990000000  0.5497890000000 1.0
C      1  0.5319220000000  0.4645970000000  0.4607070000000 1.0
C      1  0.5395550000000  0.5352170000000  0.5662920000000 1.0
C      1  0.4912140000000  0.4769820000000  0.5625730000000 1.0
C      1  0.5613040000000  0.5055490000000  0.5321310000000 1.0
C      1  0.4975570000000  0.4128200000000  0.4320710000000 1.0
C      1  0.4237330000000  0.5258870000000  0.5197400000000 1.0
C      1  0.5211500000000  0.4424140000000  0.5898350000000 1.0
C      1  0.5347270000000  0.4631180000000  0.6046400000000 1.0
C      1  0.3794020000000  0.4634980000000  0.5187090000000 1.0
C      1  0.4775380000000  0.5173500000000  0.4926350000000 1.0
C      1  0.4965950000000  0.4559130000000  0.4129750000000 1.0
C      1  0.5575030000000  0.5059580000000  0.4565480000000 1.0
C      1  0.4339760000000  0.4465730000000  0.5613370000000 1.0
C      1  0.4463730000000  0.5000400000000  0.4039220000000 1.0
C      1  0.4737640000000  0.4967580000000  0.4465100000000 1.0
C      1  0.5021690000000  0.3760150000000  0.4969690000000 1.0
C      1  0.4868610000000  0.5759000000000  0.5785100000000 1.0
C      1  0.5544600000000  0.5169320000000  0.5869820000000 1.0
C      1  0.5254660000000  0.4976920000000  0.4199290000000 1.0
C      1  0.4956290000000  0.5114620000000  0.5354700000000 1.0
C      1  0.3898800000000  0.4630410000000  0.5460690000000 1.0
C      1  0.5354190000000  0.4093210000000  0.5487850000000 1.0
C      1  0.5653180000000  0.4425530000000  0.5764680000000 1.0
C      1  0.4617980000000  0.5614740000000  0.5793360000000 1.0
C      1  0.5128290000000  0.5561640000000  0.4815950000000 1.0
C      1  0.4679670000000  0.5540510000000  0.5143660000000 1.0
C      1  0.4805710000000  0.4306000000000  0.4182170000000 1.0
C      1  0.4940960000000  0.4725310000000  0.4855320000000 1.0
C      1  0.5940340000000  0.5293650000000  0.4523740000000 1.0
C      1  0.5997180000000  0.4721720000000  0.4622250000000 1.0
C      1  0.4444140000000  0.4102350000000  0.5397480000000 1.0
C      1  0.4449260000000  0.4664260000000  0.5421040000000 1.0
C      1  0.5897750000000  0.4932010000000  0.5346740000000 1.0
C      1  0.4157100000000  0.5803600000000  0.4748450000000 1.0
C      1  0.6009060000000  0.4351380000000  0.4919090000000 1.0
C      1  0.4182120000000  0.4228840000000  0.4600090000000 1.0
C      1  0.4539620000000  0.4258330000000  0.5627270000000 1.0
C      1  0.5092950000000  0.5621760000000  0.5908080000000 1.0
C      1  0.4897850000000  0.5953170000000  0.5562920000000 1.0
C      1  0.5166600000000  0.5082440000000  0.4683100000000 1.0
C      1  0.5620830000000  0.5632500000000  0.5953220000000 1.0
C      1  0.5577950000000  0.4064620000000  0.5306820000000 1.0
C      1  0.5035920000000  0.5196850000000  0.5089440000000 1.0
C      1  0.5809870000000  0.5456520000000  0.5549580000000 1.0
C      1  0.4844710000000  0.5459970000000  0.3853630000000 1.0
C      1  0.4329800000000  0.4983200000000  0.5049140000000 1.0
C      1  0.5657390000000  0.5788730000000  0.4651480000000 1.0
C      1  0.5217100000000  0.5363490000000  0.4610330000000 1.0
C      1  0.4398610000000  0.4123070000000  0.4448730000000 1.0
C      1  0.5465240000000  0.4674690000000  0.4876260000000 1.0
C      1  0.4677080000000  0.4542860000000  0.5245730000000 1.0
C      1  0.4403450000000  0.5834350000000  0.5430170000000 1.0
C      1  0.5569170000000  0.5336770000000  0.5420770000000 1.0
C      1  0.4345190000000  0.4834000000000  0.4237650000000 1.0
C      1  0.5732610000000  0.5517360000000  0.4522900000000 1.0
C      1  0.4499650000000  0.5377790000000  0.5317900000000 1.0
C      1  0.4664590000000  0.5094760000000  0.5373510000000 1.0
C      1  0.5480720000000  0.5830560000000  0.4409350000000 1.0
C      1  0.5418810000000  0.4602610000000  0.5337970000000 1.0
C      1  0.5854320000000  0.4152430000000  0.5316150000000 1.0
C      1  0.5698480000000  0.5839010000000  0.4932030000000 1.0
C      1  0.4000580000000  0.4911500000000  0.5384060000000 1.0
C      1  0.4384770000000  0.5226800000000  0.5871630000000 1.0
C      1  0.5511560000000  0.5121850000000  0.5044740000000 1.0
C      1  0.5031930000000  0.4583360000000  0.4626840000000 1.0
C      1  0.4177100000000  0.4209810000000  0.5341250000000 1.0
C      1  0.5631670000000  0.4895100000000  0.5761960000000 1.0
C      1  0.4660940000000  0.4911390000000  0.3881760000000 1.0
C      1  0.5000590000000  0.3796070000000  0.4692960000000 1.0
C      1  0.5754450000000  0.5413250000000  0.5842660000000 1.0
C      1  0.4523400000000  0.4340610000000  0.4308040000000 1.0
C      1  0.5053280000000  0.4275720000000  0.5152770000000 1.0
C      1  0.5464770000000  0.4016260000000  0.4757160000000 1.0
C      1  0.4068320000000  0.5419170000000  0.5015030000000 1.0
C      1  0.4330920000000  0.5231390000000  0.4411200000000 1.0
C      1  0.4906770000000  0.4554210000000  0.5431100000000 1.0
C      1  0.4798070000000  0.4364920000000  0.5671680000000 1.0
C      1  0.5533580000000  0.5965110000000  0.5145890000000 1.0
C      1  0.5504480000000  0.4622270000000  0.4109810000000 1.0
C      1  0.4944930000000  0.5557360000000  0.5276780000000 1.0
C      1  0.4844470000000  0.3953840000000  0.4518330000000 1.0
C      1  0.5194410000000  0.4863630000000  0.6111650000000 1.0
C      1  0.4218710000000  0.4124530000000  0.4865900000000 1.0
C      1  0.5320570000000  0.4918820000000  0.4494580000000 1.0
C      1  0.4432530000000  0.5759820000000  0.4379180000000 1.0
C      1  0.5499170000000  0.5340120000000  0.4569280000000 1.0
C      1  0.4907230000000  0.3868210000000  0.5204370000000 1.0
C      1  0.4973900000000  0.5437920000000  0.4426200000000 1.0
C      1  0.5873930000000  0.5635140000000  0.5084810000000 1.0
C      1  0.5117850000000  0.6159430000000  0.4965560000000 1.0
C      1  0.5962630000000  0.4920110000000  0.4852350000000 1.0
C      1  0.4898360000000  0.4805770000000  0.3953950000000 1.0
C      1  0.3997290000000  0.5257150000000  0.4786370000000 1.0
C      1  0.4075370000000  0.4412240000000  0.5528740000000 1.0
C      1  0.4109650000000  0.5700510000000  0.5007500000000 1.0
C      1  0.4805950000000  0.5247460000000  0.6071850000000 1.0
C      1  0.4306440000000  0.4562310000000  0.4310070000000 1.0
C      1  0.4810380000000  0.5654100000000  0.4041300000000 1.0
C      1  0.5614560000000  0.4033120000000  0.5003180000000 1.0
C      1  0.4574300000000  0.3975370000000  0.4614720000000 1.0
C      1  0.5873810000000  0.4806260000000  0.5601360000000 1.0
END
