TITL C-21899-2425-10 -14.3605742447608 125000 -101.611092658765 0 0 16 (C1) n - 1
REM
REM in /rds/project/t2_vol4/rds-t2-cs072/BORA/CARBON/from-Arr/AIRSS/Generating-Clusters/GAP-ML-2020/Only-C1/SD-CG/HFTN-CG
REM
REM
REM
REM
REM
REM ./C.cell (11c1c37f851c82e70ff6c80c92926a4b)
REM AIRSS Version 0.9.1 bugfix July 2018 build 013d7b7c2542+ Fri, 06 Jul 2018 19:26:36 +0100
REM compiler GCC version 9.3.0
REM options -cpp -mtune=generic -march=x86-64 -g -O0
REM seed -996114153 -1056040529 1215832782 999044909 1109426143 1306494313 -1490048873 546606531 -472892926 1028762413 1984223717 -284758778 2017051065 584841701 42207055 143372448 -1636082351 -2065147018 -1760717082 452885225 -1331796771 1250535386 -141209403 1318845135 -699058971 -558745836 -663126638 1702143165 -838761612 -1258293427 -1558738848 700439939 -2017576356
REM
CELL 1.54180   50.00000   50.00000   50.00000   90.00000   90.00000   90.00000
LATT -1
SFAC C  
C      1  0.4725680000000  0.5358930000000  0.5009640000000 1.0
C      1  0.4829350000000  0.5433320000000  0.4789130000000 1.0
C      1  0.5284490000000  0.4770900000000  0.4858980000000 1.0
C      1  0.4824640000000  0.4693870000000  0.5311710000000 1.0
C      1  0.5081330000000  0.4655030000000  0.5275420000000 1.0
C      1  0.4894130000000  0.5129880000000  0.5655070000000 1.0
C      1  0.5033610000000  0.5053940000000  0.4536520000000 1.0
C      1  0.5500930000000  0.4914370000000  0.4782050000000 1.0
C      1  0.5278950000000  0.4652830000000  0.5112700000000 1.0
C      1  0.5570780000000  0.5129360000000  0.4671930000000 1.0
C      1  0.4767190000000  0.5218300000000  0.5457030000000 1.0
C      1  0.4978940000000  0.5282010000000  0.4633580000000 1.0
C      1  0.4718900000000  0.4884080000000  0.5114470000000 1.0
C      1  0.5025620000000  0.4840300000000  0.4732840000000 1.0
C      1  0.4785810000000  0.4818920000000  0.4858610000000 1.0
C      1  0.4699670000000  0.5163970000000  0.5200320000000 1.0
END
