TITL C-21085-1336-7 -17.3446708542549 125000 -435.874627717344 0 0 62 (C1) n - 1
REM
REM in /rds/project/t2_vol4/rds-t2-cs072/BORA/CARBON/from-Arr/AIRSS/Generating-Clusters/GAP-ML-2020/Only-C1/SD-CG/HFTN-CG
REM
REM
REM
REM
REM
REM ./C.cell (11c1c37f851c82e70ff6c80c92926a4b)
REM AIRSS Version 0.9.1 bugfix July 2018 build 013d7b7c2542+ Fri, 06 Jul 2018 19:26:36 +0100
REM compiler GCC version 9.3.0
REM options -cpp -mtune=generic -march=x86-64 -g -O0
REM seed -1392997167 -1531316175 -588700537 -2042157480 951715059 1750278360 -1396786453 525452673 -750450479 -1692575706 457168856 1330149180 -1482855132 -50731393 -146691805 -1876003212 999430797 -1823385802 567263626 1704637412 716417771 -926515482 -503269149 -1957092289 1691252108 -26567400 -1189279298 462228576 -704546763 -751312979 -605581391 -258176726 1429996381
REM
CELL 1.54180   50.00000   50.00000   50.00000   90.00000   90.00000   90.00000
LATT -1
SFAC C  
C      1  0.5345770000000  0.5211970000000  0.4377800000000 1.0
C      1  0.5592580000000  0.4973480000000  0.4688090000000 1.0
C      1  0.4692570000000  0.5165630000000  0.5689900000000 1.0
C      1  0.5426080000000  0.4366780000000  0.5036220000000 1.0
C      1  0.4456900000000  0.5296320000000  0.5194920000000 1.0
C      1  0.5579450000000  0.5256360000000  0.4773890000000 1.0
C      1  0.5282160000000  0.4490910000000  0.4577330000000 1.0
C      1  0.5480000000000  0.4503310000000  0.4785870000000 1.0
C      1  0.5203250000000  0.5479040000000  0.5351770000000 1.0
C      1  0.5135260000000  0.4714880000000  0.5483630000000 1.0
C      1  0.4809840000000  0.4345630000000  0.4744870000000 1.0
C      1  0.5059340000000  0.4348340000000  0.4652380000000 1.0
C      1  0.4880160000000  0.5170050000000  0.5038350000000 1.0
C      1  0.4559520000000  0.4998570000000  0.4508670000000 1.0
C      1  0.4309280000000  0.4831010000000  0.4889830000000 1.0
C      1  0.5695190000000  0.4945530000000  0.5319670000000 1.0
C      1  0.4614430000000  0.5499060000000  0.5319460000000 1.0
C      1  0.4875980000000  0.4587990000000  0.5436310000000 1.0
C      1  0.4406520000000  0.4571180000000  0.4812560000000 1.0
C      1  0.4959450000000  0.4796280000000  0.4336200000000 1.0
C      1  0.4822870000000  0.5717750000000  0.4860320000000 1.0
C      1  0.4708650000000  0.5199740000000  0.4382130000000 1.0
C      1  0.5567820000000  0.4513610000000  0.5255500000000 1.0
C      1  0.4535540000000  0.4972820000000  0.5547510000000 1.0
C      1  0.4581070000000  0.5222080000000  0.4947000000000 1.0
C      1  0.4973740000000  0.5604090000000  0.4642880000000 1.0
C      1  0.5042670000000  0.5448660000000  0.5588260000000 1.0
C      1  0.5095740000000  0.5275420000000  0.4278030000000 1.0
C      1  0.5535330000000  0.5409700000000  0.5021570000000 1.0
C      1  0.5195450000000  0.5010000000000  0.5473790000000 1.0
C      1  0.4696620000000  0.4739720000000  0.4459730000000 1.0
C      1  0.5238260000000  0.4726280000000  0.4414760000000 1.0
C      1  0.5631060000000  0.4741530000000  0.4848490000000 1.0
C      1  0.5324250000000  0.4523320000000  0.5399160000000 1.0
C      1  0.4724200000000  0.5670800000000  0.5131480000000 1.0
C      1  0.4895370000000  0.5424830000000  0.4437360000000 1.0
C      1  0.4612010000000  0.4698580000000  0.5473360000000 1.0
C      1  0.4733140000000  0.4325210000000  0.5028970000000 1.0
C      1  0.4904360000000  0.5099550000000  0.5872400000000 1.0
C      1  0.5480060000000  0.5085490000000  0.5404500000000 1.0
C      1  0.5431150000000  0.5393870000000  0.4573730000000 1.0
C      1  0.4924710000000  0.5054840000000  0.4240120000000 1.0
C      1  0.4413360000000  0.4606190000000  0.5281550000000 1.0
C      1  0.5192180000000  0.4339670000000  0.5205920000000 1.0
C      1  0.4284410000000  0.4840420000000  0.5176050000000 1.0
C      1  0.5047640000000  0.5197280000000  0.5264630000000 1.0
C      1  0.4438570000000  0.5048670000000  0.4763160000000 1.0
C      1  0.4952070000000  0.5822670000000  0.5084740000000 1.0
C      1  0.5425220000000  0.4943600000000  0.4447860000000 1.0
C      1  0.4752610000000  0.5428130000000  0.5561610000000 1.0
C      1  0.4915630000000  0.4373540000000  0.5239890000000 1.0
C      1  0.5466370000000  0.5348960000000  0.5296480000000 1.0
C      1  0.5693160000000  0.4739130000000  0.5142860000000 1.0
C      1  0.5033650000000  0.4980540000000  0.4931340000000 1.0
C      1  0.4362120000000  0.5067790000000  0.5331580000000 1.0
C      1  0.5364550000000  0.5627090000000  0.4950060000000 1.0
C      1  0.4983010000000  0.4775910000000  0.4787160000000 1.0
C      1  0.4611580000000  0.4523550000000  0.4622170000000 1.0
C      1  0.4482840000000  0.4445260000000  0.5059970000000 1.0
C      1  0.5102840000000  0.5186060000000  0.5707200000000 1.0
C      1  0.5196160000000  0.5698620000000  0.5161850000000 1.0
C      1  0.5264240000000  0.5596700000000  0.4685170000000 1.0
END
