TITL C-21927-1786-1 -95.4845175188895 125000 -411.093927420268 0 0 59 (C1) n - 1
REM
REM in /rds/project/t2_vol4/rds-t2-cs072/BORA/CARBON/from-Arr/AIRSS/Generating-Clusters/GAP-ML-2020/Only-C1/SD-CG/HFTN-CG
REM
REM
REM
REM
REM
REM ./C.cell (11c1c37f851c82e70ff6c80c92926a4b)
REM AIRSS Version 0.9.1 bugfix July 2018 build 013d7b7c2542+ Fri, 06 Jul 2018 19:26:36 +0100
REM compiler GCC version 9.3.0
REM options -cpp -mtune=generic -march=x86-64 -g -O0
REM seed 1543355301 -757834913 161902392 -2066999406 805365961 99403624 1862476806 587101743 -1402261013 597645630 -622984627 -175623882 -853627455 -1175989318 888818571 1695294781 -1944547981 -1661699278 -2013648213 -100029321 1428494857 1379703053 564998698 -824758626 2002074541 -1035342440 1883020223 1072017781 769590248 2032898013 1829265864 -628619267 1182899562
REM
CELL 1.54180   50.00000   50.00000   50.00000   90.00000   90.00000   90.00000
LATT -1
SFAC C  
C      1  0.4612580000000  0.4750450000000  0.4569780000000 1.0
C      1  0.4516190000000  0.5793080000000  0.5327570000000 1.0
C      1  0.5321370000000  0.4397810000000  0.5362970000000 1.0
C      1  0.4802230000000  0.5003850000000  0.4952510000000 1.0
C      1  0.5024790000000  0.4819180000000  0.4942590000000 1.0
C      1  0.5453560000000  0.4505340000000  0.4829880000000 1.0
C      1  0.5484780000000  0.4690650000000  0.4615320000000 1.0
C      1  0.5204570000000  0.4365880000000  0.4875210000000 1.0
C      1  0.4421470000000  0.5158040000000  0.4671890000000 1.0
C      1  0.5680920000000  0.4903650000000  0.4992090000000 1.0
C      1  0.5543660000000  0.4580420000000  0.5324200000000 1.0
C      1  0.5121440000000  0.5120490000000  0.5596650000000 1.0
C      1  0.5107890000000  0.5666900000000  0.4919030000000 1.0
C      1  0.4529940000000  0.4565380000000  0.5008270000000 1.0
C      1  0.4954890000000  0.4644160000000  0.5582000000000 1.0
C      1  0.4464600000000  0.5407920000000  0.4793170000000 1.0
C      1  0.4327790000000  0.4969310000000  0.4868270000000 1.0
C      1  0.4843530000000  0.5188120000000  0.4431540000000 1.0
C      1  0.4850510000000  0.4592930000000  0.4534080000000 1.0
C      1  0.4892290000000  0.5439790000000  0.4566020000000 1.0
C      1  0.5545360000000  0.5198790000000  0.5340950000000 1.0
C      1  0.5158980000000  0.5534240000000  0.4660140000000 1.0
C      1  0.4762610000000  0.5708780000000  0.5221730000000 1.0
C      1  0.5599120000000  0.4629040000000  0.5053710000000 1.0
C      1  0.5186980000000  0.4890380000000  0.5162210000000 1.0
C      1  0.5203860000000  0.5183640000000  0.5053010000000 1.0
C      1  0.4829920000000  0.5714860000000  0.4938690000000 1.0
C      1  0.4919280000000  0.5312440000000  0.5505090000000 1.0
C      1  0.4372380000000  0.5376560000000  0.5065930000000 1.0
C      1  0.5393410000000  0.5038890000000  0.5544370000000 1.0
C      1  0.5203910000000  0.5588130000000  0.5177650000000 1.0
C      1  0.4606010000000  0.5035480000000  0.4500510000000 1.0
C      1  0.4711050000000  0.5087730000000  0.5503210000000 1.0
C      1  0.5382330000000  0.5367960000000  0.5174060000000 1.0
C      1  0.4901590000000  0.5244580000000  0.5025590000000 1.0
C      1  0.4766850000000  0.4524600000000  0.5398410000000 1.0
C      1  0.5326840000000  0.4735240000000  0.4389300000000 1.0
C      1  0.5154580000000  0.4310740000000  0.5157160000000 1.0
C      1  0.5040060000000  0.5021220000000  0.4322470000000 1.0
C      1  0.4440470000000  0.4721790000000  0.4798490000000 1.0
C      1  0.4556440000000  0.4677570000000  0.5275710000000 1.0
C      1  0.4966890000000  0.5560020000000  0.5355030000000 1.0
C      1  0.4693420000000  0.5563180000000  0.4734490000000 1.0
C      1  0.4912520000000  0.4918400000000  0.5617450000000 1.0
C      1  0.4743600000000  0.4385530000000  0.4959100000000 1.0
C      1  0.5738210000000  0.5067150000000  0.5199930000000 1.0
C      1  0.5439210000000  0.4759250000000  0.5539390000000 1.0
C      1  0.4502320000000  0.4958080000000  0.5336540000000 1.0
C      1  0.5238180000000  0.5006130000000  0.4808130000000 1.0
C      1  0.5543040000000  0.4957120000000  0.4733570000000 1.0
C      1  0.5038690000000  0.4726690000000  0.4372650000000 1.0
C      1  0.4351090000000  0.5090840000000  0.5125410000000 1.0
C      1  0.4872920000000  0.4342090000000  0.5206230000000 1.0
C      1  0.5481890000000  0.5173890000000  0.4520690000000 1.0
C      1  0.4379630000000  0.5597450000000  0.5231850000000 1.0
C      1  0.5391460000000  0.5426610000000  0.4575390000000 1.0
C      1  0.4935630000000  0.4408990000000  0.4747860000000 1.0
C      1  0.5222090000000  0.4568960000000  0.5572840000000 1.0
C      1  0.5328150000000  0.5023610000000  0.4332010000000 1.0
END
