TITL C-21930-1636-6 -176.588967635326 125000 -415.036106322783 0 0 62 (C1) n - 1
REM
REM in /rds/project/t2_vol4/rds-t2-cs072/BORA/CARBON/from-Arr/AIRSS/Generating-Clusters/GAP-ML-2020/Only-C1/SD-CG/HFTN-CG
REM
REM
REM
REM
REM
REM ./C.cell (11c1c37f851c82e70ff6c80c92926a4b)
REM AIRSS Version 0.9.1 bugfix July 2018 build 013d7b7c2542+ Fri, 06 Jul 2018 19:26:36 +0100
REM compiler GCC version 9.3.0
REM options -cpp -mtune=generic -march=x86-64 -g -O0
REM seed 2128554105 1673706645 1285363231 -442072171 -259668790 98701266 -198676003 1205682252 609742366 186647701 1755712964 -1446886350 -1366824803 569658615 -695937747 -951762023 1954869567 1020396097 -1709268837 637773312 -1208413235 -644652308 2067461087 805305775 802385434 828050193 934672708 479329376 1578060890 96870383 220286032 1555000144 1168558169
REM
CELL 1.54180   50.00000   50.00000   50.00000   90.00000   90.00000   90.00000
LATT -1
SFAC C  
C      1  0.4808440000000  0.5227910000000  0.4303840000000 1.0
C      1  0.5039720000000  0.4374110000000  0.4732080000000 1.0
C      1  0.5110330000000  0.5124270000000  0.5727760000000 1.0
C      1  0.5493430000000  0.4778830000000  0.5452930000000 1.0
C      1  0.5641710000000  0.4634600000000  0.4983740000000 1.0
C      1  0.5664400000000  0.4798510000000  0.5214920000000 1.0
C      1  0.4969220000000  0.4877480000000  0.5226830000000 1.0
C      1  0.5059740000000  0.4905170000000  0.4212520000000 1.0
C      1  0.5369770000000  0.5141700000000  0.5048960000000 1.0
C      1  0.4812080000000  0.5748870000000  0.4807680000000 1.0
C      1  0.5598560000000  0.5072330000000  0.5222480000000 1.0
C      1  0.5288150000000  0.4583590000000  0.5422840000000 1.0
C      1  0.5459280000000  0.5559620000000  0.5233360000000 1.0
C      1  0.5230770000000  0.5530410000000  0.5376350000000 1.0
C      1  0.4686650000000  0.4627190000000  0.4403850000000 1.0
C      1  0.4844770000000  0.5039940000000  0.5795650000000 1.0
C      1  0.5550550000000  0.4382440000000  0.5069700000000 1.0
C      1  0.4658550000000  0.4374210000000  0.4566380000000 1.0
C      1  0.5112640000000  0.4736150000000  0.5019660000000 1.0
C      1  0.5270380000000  0.5552950000000  0.4798180000000 1.0
C      1  0.5067280000000  0.5707700000000  0.4932550000000 1.0
C      1  0.4562740000000  0.5560830000000  0.5405010000000 1.0
C      1  0.4875580000000  0.5383410000000  0.4549960000000 1.0
C      1  0.4682500000000  0.4879160000000  0.5082610000000 1.0
C      1  0.5343470000000  0.5212750000000  0.4440740000000 1.0
C      1  0.5429500000000  0.5422620000000  0.4989070000000 1.0
C      1  0.4892980000000  0.5106040000000  0.4094320000000 1.0
C      1  0.5101490000000  0.5141280000000  0.5217090000000 1.0
C      1  0.4601920000000  0.5669970000000  0.4980120000000 1.0
C      1  0.4496190000000  0.4892510000000  0.5478610000000 1.0
C      1  0.5043440000000  0.4853210000000  0.4759950000000 1.0
C      1  0.5026870000000  0.4689180000000  0.5480820000000 1.0
C      1  0.4998000000000  0.5604430000000  0.5194910000000 1.0
C      1  0.4760820000000  0.5270330000000  0.4838010000000 1.0
C      1  0.4799550000000  0.4427450000000  0.5178730000000 1.0
C      1  0.4654910000000  0.5093570000000  0.5595990000000 1.0
C      1  0.5115340000000  0.4620830000000  0.4565860000000 1.0
C      1  0.4332290000000  0.5245280000000  0.5060580000000 1.0
C      1  0.5034690000000  0.4854820000000  0.5718910000000 1.0
C      1  0.4496080000000  0.5408320000000  0.4913960000000 1.0
C      1  0.4709990000000  0.5713500000000  0.5241650000000 1.0
C      1  0.4611480000000  0.4587250000000  0.5036640000000 1.0
C      1  0.4890260000000  0.5323170000000  0.5127930000000 1.0
C      1  0.4862020000000  0.4194840000000  0.4615290000000 1.0
C      1  0.5308630000000  0.4398930000000  0.5195960000000 1.0
C      1  0.5395590000000  0.4724790000000  0.4505530000000 1.0
C      1  0.5317100000000  0.4923220000000  0.4867080000000 1.0
C      1  0.4529690000000  0.4537750000000  0.4776060000000 1.0
C      1  0.4594110000000  0.4783120000000  0.4630660000000 1.0
C      1  0.4481680000000  0.5056360000000  0.5213560000000 1.0
C      1  0.5059900000000  0.4438050000000  0.5028290000000 1.0
C      1  0.4952810000000  0.4673950000000  0.4327830000000 1.0
C      1  0.4789800000000  0.4520430000000  0.5446040000000 1.0
C      1  0.5193710000000  0.5400800000000  0.4567210000000 1.0
C      1  0.4764180000000  0.4970940000000  0.4807470000000 1.0
C      1  0.4795720000000  0.5676120000000  0.4553650000000 1.0
C      1  0.5318280000000  0.4960890000000  0.4347380000000 1.0
C      1  0.4662110000000  0.5283330000000  0.5369160000000 1.0
C      1  0.5473950000000  0.5076450000000  0.5481960000000 1.0
C      1  0.4552900000000  0.4636540000000  0.5527170000000 1.0
C      1  0.5529560000000  0.4761890000000  0.4748980000000 1.0
C      1  0.5221750000000  0.5243750000000  0.5487010000000 1.0
END
