TITL C-21833-6282-6 -0.0451791078254159 125000 -342.407924598941 0 0 50 (C1) n - 1
REM
REM in /rds/project/t2_vol4/rds-t2-cs072/BORA/CARBON/from-Arr/AIRSS/Generating-Clusters/GAP-ML-2020/Only-C1/SD-CG/HFTN-CG
REM
REM
REM
REM
REM
REM ./C.cell (11c1c37f851c82e70ff6c80c92926a4b)
REM AIRSS Version 0.9.1 bugfix July 2018 build 013d7b7c2542+ Fri, 06 Jul 2018 19:26:36 +0100
REM compiler GCC version 9.3.0
REM options -cpp -mtune=generic -march=x86-64 -g -O0
REM seed 888333183 1349089544 714169332 229955224 260309263 1712140114 -1156523666 1968086347 -387594841 1776908744 -1166894652 1486958706 -446085446 239091599 554432615 -1648898731 975822990 -802331569 -1451152334 498170190 -1188555557 -1225471385 433570159 669775248 -1150219115 -737971578 -1500952665 -875506529 -1114888972 1174656722 1615135796 1784897479 -1366248990
REM
CELL 1.54180   50.00000   50.00000   50.00000   90.00000   90.00000   90.00000
LATT -1
SFAC C  
C      1  0.5143650000000  0.5287670000000  0.4806910000000 1.0
C      1  0.5324840000000  0.4828070000000  0.4457180000000 1.0
C      1  0.4697080000000  0.5534190000000  0.4842210000000 1.0
C      1  0.5520450000000  0.5416160000000  0.4988420000000 1.0
C      1  0.4766010000000  0.5122710000000  0.5019670000000 1.0
C      1  0.4468030000000  0.4775830000000  0.4858670000000 1.0
C      1  0.5135350000000  0.5581610000000  0.5331390000000 1.0
C      1  0.4330690000000  0.4999650000000  0.4971900000000 1.0
C      1  0.5283040000000  0.4711180000000  0.5482740000000 1.0
C      1  0.4846400000000  0.4639330000000  0.4580510000000 1.0
C      1  0.5188130000000  0.5022370000000  0.4973960000000 1.0
C      1  0.5275070000000  0.5345390000000  0.5398140000000 1.0
C      1  0.4844370000000  0.5274510000000  0.4782780000000 1.0
C      1  0.5574880000000  0.5241970000000  0.4753710000000 1.0
C      1  0.5248460000000  0.5105620000000  0.4388570000000 1.0
C      1  0.4722430000000  0.5107740000000  0.4536810000000 1.0
C      1  0.5044480000000  0.4758220000000  0.4416810000000 1.0
C      1  0.5474510000000  0.4498490000000  0.5100590000000 1.0
C      1  0.4625400000000  0.4835920000000  0.5481480000000 1.0
C      1  0.5490040000000  0.5258300000000  0.5223170000000 1.0
C      1  0.5613320000000  0.4979840000000  0.4841900000000 1.0
C      1  0.4999290000000  0.4392910000000  0.5226900000000 1.0
C      1  0.5496620000000  0.4767060000000  0.4675760000000 1.0
C      1  0.4444850000000  0.5424620000000  0.4744700000000 1.0
C      1  0.5240640000000  0.4333240000000  0.5094040000000 1.0
C      1  0.5113610000000  0.4916640000000  0.5605840000000 1.0
C      1  0.4591220000000  0.5115950000000  0.5430740000000 1.0
C      1  0.4815230000000  0.5287120000000  0.5486390000000 1.0
C      1  0.4635730000000  0.4818530000000  0.4636460000000 1.0
C      1  0.4319770000000  0.5265670000000  0.4935760000000 1.0
C      1  0.4555600000000  0.4589610000000  0.5066290000000 1.0
C      1  0.4794170000000  0.4436660000000  0.5023150000000 1.0
C      1  0.4495370000000  0.5288470000000  0.4498090000000 1.0
C      1  0.4971810000000  0.4976980000000  0.5132350000000 1.0
C      1  0.4846500000000  0.5537380000000  0.5352790000000 1.0
C      1  0.5454670000000  0.4525750000000  0.4804580000000 1.0
C      1  0.5084330000000  0.5184090000000  0.5542390000000 1.0
C      1  0.4876080000000  0.4750880000000  0.5573500000000 1.0
C      1  0.5205860000000  0.4378080000000  0.4807360000000 1.0
C      1  0.5100910000000  0.5691830000000  0.5072990000000 1.0
C      1  0.4507090000000  0.5161540000000  0.5154800000000 1.0
C      1  0.5512790000000  0.4978200000000  0.5128060000000 1.0
C      1  0.4964810000000  0.5031570000000  0.4363670000000 1.0
C      1  0.4928630000000  0.4446510000000  0.4772080000000 1.0
C      1  0.4498430000000  0.4647820000000  0.5326180000000 1.0
C      1  0.5267860000000  0.5537120000000  0.4916680000000 1.0
C      1  0.5476510000000  0.4727980000000  0.5273510000000 1.0
C      1  0.4803170000000  0.5644330000000  0.5075520000000 1.0
C      1  0.5343480000000  0.5273230000000  0.4585000000000 1.0
C      1  0.5038340000000  0.4545450000000  0.5456890000000 1.0
END
