TITL C-21847-6187-3 -380.606708109311 125000 -854.965161803228 0 0 122 (C1) n - 1
REM
REM in /rds/project/t2_vol4/rds-t2-cs072/BORA/CARBON/from-Arr/AIRSS/Generating-Clusters/GAP-ML-2020/Only-C1/SD-CG/HFTN-CG
REM
REM
REM
REM
REM
REM ./C.cell (11c1c37f851c82e70ff6c80c92926a4b)
REM AIRSS Version 0.9.1 bugfix July 2018 build 013d7b7c2542+ Fri, 06 Jul 2018 19:26:36 +0100
REM compiler GCC version 9.3.0
REM options -cpp -mtune=generic -march=x86-64 -g -O0
REM seed 753319938 -1071843268 1897480676 385548758 162816482 1222898234 -2122395783 1285310023 2140669460 1966939140 1911099373 -1904912650 -1914943564 -710143064 -823652868 374463828 -2044551943 -1776369171 -739370722 -1422152550 -2022021133 -1621215106 -191007778 -795457182 -395419016 2054975648 -948148391 687936075 221336514 1394441688 -1590149572 -872368076 -41492151
REM
CELL 1.54180   50.00000   50.00000   50.00000   90.00000   90.00000   90.00000
LATT -1
SFAC C  
C      1  0.4509440000000  0.5067670000000  0.4894610000000 1.0
C      1  0.4884230000000  0.4640010000000  0.5232360000000 1.0
C      1  0.5268820000000  0.5213410000000  0.4959930000000 1.0
C      1  0.5509460000000  0.4956830000000  0.5143890000000 1.0
C      1  0.4443760000000  0.5095560000000  0.4596860000000 1.0
C      1  0.4055890000000  0.5120580000000  0.5082150000000 1.0
C      1  0.4960110000000  0.5935800000000  0.5257160000000 1.0
C      1  0.5041530000000  0.4755740000000  0.4036160000000 1.0
C      1  0.5164160000000  0.5336620000000  0.4728980000000 1.0
C      1  0.5238620000000  0.5289500000000  0.5723910000000 1.0
C      1  0.5711250000000  0.5577470000000  0.5135610000000 1.0
C      1  0.5818090000000  0.4972720000000  0.5516490000000 1.0
C      1  0.5337820000000  0.5816570000000  0.4957570000000 1.0
C      1  0.4420000000000  0.4594100000000  0.5447490000000 1.0
C      1  0.4980750000000  0.5414660000000  0.5745800000000 1.0
C      1  0.5894940000000  0.4868480000000  0.4931790000000 1.0
C      1  0.4612600000000  0.4986460000000  0.4089450000000 1.0
C      1  0.4276540000000  0.5482330000000  0.4808820000000 1.0
C      1  0.4771200000000  0.5440770000000  0.4948200000000 1.0
C      1  0.5328660000000  0.5644220000000  0.4717010000000 1.0
C      1  0.4638760000000  0.4335020000000  0.4471590000000 1.0
C      1  0.4394230000000  0.5474720000000  0.5287330000000 1.0
C      1  0.4675220000000  0.4730790000000  0.5485190000000 1.0
C      1  0.4538440000000  0.5479130000000  0.5558520000000 1.0
C      1  0.4332110000000  0.5044250000000  0.5426380000000 1.0
C      1  0.5310470000000  0.4356810000000  0.4377220000000 1.0
C      1  0.5088310000000  0.5453420000000  0.4203630000000 1.0
C      1  0.6011860000000  0.4742020000000  0.5147770000000 1.0
C      1  0.4499480000000  0.5480780000000  0.4334800000000 1.0
C      1  0.5388750000000  0.5737570000000  0.5432040000000 1.0
C      1  0.4914700000000  0.5379800000000  0.5189660000000 1.0
C      1  0.5407260000000  0.5051150000000  0.4180400000000 1.0
C      1  0.5852140000000  0.5192100000000  0.5328830000000 1.0
C      1  0.4673950000000  0.5862260000000  0.5314170000000 1.0
C      1  0.4369950000000  0.4835940000000  0.4470790000000 1.0
C      1  0.5238860000000  0.4648310000000  0.4962220000000 1.0
C      1  0.5345970000000  0.5330860000000  0.4240720000000 1.0
C      1  0.5628560000000  0.4767130000000  0.4493030000000 1.0
C      1  0.4809330000000  0.4462680000000  0.4951490000000 1.0
C      1  0.5304790000000  0.4790330000000  0.4141840000000 1.0
C      1  0.5175590000000  0.4238020000000  0.5646710000000 1.0
C      1  0.4881940000000  0.5277050000000  0.4741320000000 1.0
C      1  0.4535490000000  0.4419270000000  0.4737410000000 1.0
C      1  0.5316960000000  0.5247870000000  0.5448610000000 1.0
C      1  0.5507000000000  0.5766390000000  0.5172150000000 1.0
C      1  0.5379100000000  0.4622360000000  0.5448940000000 1.0
C      1  0.4718650000000  0.4201910000000  0.5483760000000 1.0
C      1  0.5024330000000  0.4589900000000  0.4783950000000 1.0
C      1  0.4508060000000  0.4766750000000  0.4232870000000 1.0
C      1  0.5124520000000  0.5825900000000  0.5473150000000 1.0
C      1  0.5187370000000  0.4226690000000  0.5175030000000 1.0
C      1  0.4942820000000  0.4913200000000  0.5130630000000 1.0
C      1  0.5521980000000  0.4210420000000  0.4793250000000 1.0
C      1  0.4898160000000  0.4282060000000  0.5687990000000 1.0
C      1  0.4052220000000  0.5328400000000  0.4915200000000 1.0
C      1  0.4758510000000  0.5007120000000  0.5884000000000 1.0
C      1  0.4627780000000  0.5043780000000  0.5462390000000 1.0
C      1  0.4438560000000  0.4203760000000  0.5166350000000 1.0
C      1  0.5763100000000  0.4688800000000  0.4737460000000 1.0
C      1  0.5736560000000  0.5410200000000  0.4910390000000 1.0
C      1  0.4330480000000  0.4353910000000  0.4952610000000 1.0
C      1  0.5311650000000  0.4187780000000  0.4614780000000 1.0
C      1  0.4832250000000  0.5122110000000  0.5273960000000 1.0
C      1  0.5310040000000  0.4487030000000  0.5708240000000 1.0
C      1  0.5034840000000  0.4113940000000  0.4699340000000 1.0
C      1  0.4955090000000  0.5009230000000  0.6072390000000 1.0
C      1  0.4926130000000  0.4946420000000  0.4449810000000 1.0
C      1  0.5192090000000  0.5353090000000  0.5195000000000 1.0
C      1  0.5497180000000  0.5484840000000  0.5531440000000 1.0
C      1  0.4794080000000  0.4990600000000  0.4891260000000 1.0
C      1  0.4335860000000  0.5366280000000  0.4543130000000 1.0
C      1  0.4670010000000  0.5696970000000  0.4409920000000 1.0
C      1  0.4952350000000  0.5680950000000  0.5652300000000 1.0
C      1  0.4912400000000  0.5273350000000  0.4074960000000 1.0
C      1  0.4340120000000  0.4640350000000  0.4667180000000 1.0
C      1  0.5606930000000  0.5039080000000  0.4390190000000 1.0
C      1  0.4199370000000  0.5253020000000  0.5298250000000 1.0
C      1  0.4887200000000  0.4993700000000  0.3996430000000 1.0
C      1  0.5236530000000  0.4103370000000  0.5423590000000 1.0
C      1  0.4885460000000  0.4197710000000  0.4473350000000 1.0
C      1  0.4682380000000  0.5719660000000  0.5562890000000 1.0
C      1  0.5170880000000  0.4535150000000  0.5236490000000 1.0
C      1  0.4737370000000  0.6070080000000  0.4687770000000 1.0
C      1  0.4243770000000  0.4790250000000  0.5347470000000 1.0
C      1  0.5157150000000  0.4618550000000  0.5904210000000 1.0
C      1  0.5126920000000  0.5797610000000  0.4556190000000 1.0
C      1  0.5865160000000  0.4727680000000  0.5376560000000 1.0
C      1  0.5663980000000  0.4373610000000  0.5139430000000 1.0
C      1  0.4714280000000  0.5248840000000  0.5699550000000 1.0
C      1  0.5566170000000  0.5326320000000  0.4442980000000 1.0
C      1  0.5655520000000  0.4532610000000  0.5364630000000 1.0
C      1  0.5710520000000  0.4434750000000  0.4857270000000 1.0
C      1  0.5458900000000  0.4182520000000  0.5070950000000 1.0
C      1  0.5592870000000  0.4976050000000  0.5684330000000 1.0
C      1  0.5199690000000  0.4889080000000  0.5988930000000 1.0
C      1  0.5257380000000  0.4931760000000  0.5011210000000 1.0
C      1  0.4644540000000  0.5261920000000  0.4203960000000 1.0
C      1  0.4724110000000  0.4735200000000  0.5774980000000 1.0
C      1  0.5427410000000  0.4948590000000  0.5433650000000 1.0
C      1  0.5598480000000  0.5494940000000  0.4670050000000 1.0
C      1  0.4490800000000  0.5351030000000  0.4997210000000 1.0
C      1  0.4889410000000  0.4523540000000  0.5851330000000 1.0
C      1  0.4447800000000  0.4315310000000  0.5430080000000 1.0
C      1  0.4964830000000  0.5667070000000  0.4360770000000 1.0
C      1  0.4719150000000  0.4108580000000  0.5198480000000 1.0
C      1  0.4193460000000  0.4612600000000  0.4913700000000 1.0
C      1  0.4989290000000  0.5976290000000  0.4734560000000 1.0
C      1  0.4569830000000  0.5854430000000  0.4646710000000 1.0
C      1  0.5438380000000  0.4611370000000  0.4326710000000 1.0
C      1  0.4934940000000  0.4182930000000  0.4994350000000 1.0
C      1  0.4393470000000  0.5755450000000  0.4871050000000 1.0
C      1  0.5378410000000  0.5067630000000  0.5857340000000 1.0
C      1  0.4733970000000  0.5167940000000  0.4489350000000 1.0
C      1  0.5098600000000  0.5957300000000  0.5001660000000 1.0
C      1  0.4908680000000  0.4520300000000  0.4131650000000 1.0
C      1  0.5050490000000  0.4324740000000  0.4274150000000 1.0
C      1  0.5742550000000  0.5442090000000  0.5382700000000 1.0
C      1  0.4102180000000  0.4818850000000  0.5101600000000 1.0
C      1  0.4915250000000  0.4814980000000  0.4676390000000 1.0
C      1  0.4645400000000  0.4519630000000  0.4245340000000 1.0
C      1  0.5781660000000  0.5129010000000  0.5040490000000 1.0
C      1  0.4454200000000  0.5755650000000  0.5159310000000 1.0
END
