TITL C-21784-2032-3 117.480418061637 125000 -460.48889280527 0 0 66 (C1) n - 1
REM
REM in /rds/project/t2_vol4/rds-t2-cs072/BORA/CARBON/from-Arr/AIRSS/Generating-Clusters/GAP-ML-2020/Only-C1/SD-CG/HFTN-CG
REM
REM
REM
REM
REM
REM ./C.cell (11c1c37f851c82e70ff6c80c92926a4b)
REM AIRSS Version 0.9.1 bugfix July 2018 build 013d7b7c2542+ Fri, 06 Jul 2018 19:26:36 +0100
REM compiler GCC version 9.3.0
REM options -cpp -mtune=generic -march=x86-64 -g -O0
REM seed 1997086892 1278065509 -1080390886 -711398604 -1109482708 1776483535 -792355840 -1322573467 641162537 -1853241423 -359245571 150535121 -1610303694 984720890 1238604247 15055452 -513417769 714592331 1968550134 -1239300839 -650254403 2015278029 -2118968124 -476852207 -937442818 -1134752931 -683958623 -597303388 -28291949 -356061512 193259383 1492485882 301830188
REM
CELL 1.54180   50.00000   50.00000   50.00000   90.00000   90.00000   90.00000
LATT -1
SFAC C  
C      1  0.5280010000000  0.5027180000000  0.5031720000000 1.0
C      1  0.4480140000000  0.5452560000000  0.4855560000000 1.0
C      1  0.5026050000000  0.5362130000000  0.4395200000000 1.0
C      1  0.5691880000000  0.5357130000000  0.5037060000000 1.0
C      1  0.5320690000000  0.4513130000000  0.4537200000000 1.0
C      1  0.4802120000000  0.4794830000000  0.5664140000000 1.0
C      1  0.5247420000000  0.5163000000000  0.4445070000000 1.0
C      1  0.5154510000000  0.4312980000000  0.4647780000000 1.0
C      1  0.5181060000000  0.5081580000000  0.5653790000000 1.0
C      1  0.5450070000000  0.5333260000000  0.4611060000000 1.0
C      1  0.4816420000000  0.4875040000000  0.5120850000000 1.0
C      1  0.4713520000000  0.4583230000000  0.5495870000000 1.0
C      1  0.4473910000000  0.4639790000000  0.5343040000000 1.0
C      1  0.5752070000000  0.5109690000000  0.5160190000000 1.0
C      1  0.4239830000000  0.4860470000000  0.4888660000000 1.0
C      1  0.4763750000000  0.4972510000000  0.4305100000000 1.0
C      1  0.5305830000000  0.5572280000000  0.4706150000000 1.0
C      1  0.4609280000000  0.4284160000000  0.5025310000000 1.0
C      1  0.4925170000000  0.5118830000000  0.5112420000000 1.0
C      1  0.4915930000000  0.5489470000000  0.5555960000000 1.0
C      1  0.5207560000000  0.4689500000000  0.4318320000000 1.0
C      1  0.5555740000000  0.4706180000000  0.5226270000000 1.0
C      1  0.5086500000000  0.5195140000000  0.4910160000000 1.0
C      1  0.4911380000000  0.4711630000000  0.4301830000000 1.0
C      1  0.5088300000000  0.4809240000000  0.5666750000000 1.0
C      1  0.4807170000000  0.4219880000000  0.4862440000000 1.0
C      1  0.5425880000000  0.4654260000000  0.4759530000000 1.0
C      1  0.4693670000000  0.5555020000000  0.5386700000000 1.0
C      1  0.5307200000000  0.5651640000000  0.4989210000000 1.0
C      1  0.4483800000000  0.5368310000000  0.5345470000000 1.0
C      1  0.4614000000000  0.5426860000000  0.4588170000000 1.0
C      1  0.4803640000000  0.5644630000000  0.4665280000000 1.0
C      1  0.5092490000000  0.4239810000000  0.4929500000000 1.0
C      1  0.4799500000000  0.4958640000000  0.4583480000000 1.0
C      1  0.4690990000000  0.4709030000000  0.4701960000000 1.0
C      1  0.5073000000000  0.5019580000000  0.4668790000000 1.0
C      1  0.4876700000000  0.4287350000000  0.4575980000000 1.0
C      1  0.5090120000000  0.5702080000000  0.5174250000000 1.0
C      1  0.5590600000000  0.4977990000000  0.5349340000000 1.0
C      1  0.4799780000000  0.5702050000000  0.5162490000000 1.0
C      1  0.5396830000000  0.5432110000000  0.5410960000000 1.0
C      1  0.4777620000000  0.4532180000000  0.4485610000000 1.0
C      1  0.4370950000000  0.5309830000000  0.5082940000000 1.0
C      1  0.5659450000000  0.5232210000000  0.4768630000000 1.0
C      1  0.5634160000000  0.4725690000000  0.4939490000000 1.0
C      1  0.5059430000000  0.5584730000000  0.4561740000000 1.0
C      1  0.4277260000000  0.5032170000000  0.5098560000000 1.0
C      1  0.5417950000000  0.5162460000000  0.5511820000000 1.0
C      1  0.5291940000000  0.4945010000000  0.4263520000000 1.0
C      1  0.5358950000000  0.4516040000000  0.5310880000000 1.0
C      1  0.4910420000000  0.4700320000000  0.4927560000000 1.0
C      1  0.5146500000000  0.4348100000000  0.5187520000000 1.0
C      1  0.4755780000000  0.5251440000000  0.4398170000000 1.0
C      1  0.4487290000000  0.5123650000000  0.5499180000000 1.0
C      1  0.5153790000000  0.5578160000000  0.5426180000000 1.0
C      1  0.5176870000000  0.4581680000000  0.5525410000000 1.0
C      1  0.4705840000000  0.5064110000000  0.5665670000000 1.0
C      1  0.4954580000000  0.4438010000000  0.5403610000000 1.0
C      1  0.4373090000000  0.4910070000000  0.5346770000000 1.0
C      1  0.4666250000000  0.5676050000000  0.4918370000000 1.0
C      1  0.5747450000000  0.4979540000000  0.4901520000000 1.0
C      1  0.5499570000000  0.5512500000000  0.5151670000000 1.0
C      1  0.4473390000000  0.4511520000000  0.5087300000000 1.0
C      1  0.4431590000000  0.4677810000000  0.4848750000000 1.0
C      1  0.4937230000000  0.5238430000000  0.5675730000000 1.0
C      1  0.5188150000000  0.4804120000000  0.4844400000000 1.0
END
