TITL C-211895-534-2 0.0990932348144327 125000 -634.292155480537 0 0 93 (C1) n - 1
REM
REM in /rds/project/t2_vol4/rds-t2-cs072/BORA/CARBON/from-Arr/AIRSS/Generating-Clusters/GAP-ML-2020/Only-C1/SD-CG/HFTN-CG
REM
REM
REM
REM
REM
REM ./C.cell (11c1c37f851c82e70ff6c80c92926a4b)
REM AIRSS Version 0.9.1 bugfix July 2018 build 013d7b7c2542+ Fri, 06 Jul 2018 19:26:36 +0100
REM compiler GCC version 9.3.0
REM options -cpp -mtune=generic -march=x86-64 -g -O0
REM seed -1877633379 -1513907525 -668363326 544800770 185100354 431737478 -1089721028 -1518197251 -991722039 -1574135275 -1294685434 2117057938 -837154920 -1092056749 405955297 994260996 294942100 -1855535484 -787717681 -534740210 -247959587 -808949339 -1586377279 1121542737 -824134969 66354469 -915733595 -370627013 51786472 1328358599 -976350234 -1577457656 1401337840
REM
CELL 1.54180   50.00000   50.00000   50.00000   90.00000   90.00000   90.00000
LATT -1
SFAC C  
C      1  0.5340620000000  0.4900750000000  0.5861580000000 1.0
C      1  0.4564590000000  0.4864010000000  0.5050870000000 1.0
C      1  0.5819740000000  0.4986020000000  0.5219290000000 1.0
C      1  0.5032230000000  0.4744700000000  0.5203960000000 1.0
C      1  0.5250720000000  0.4842100000000  0.4106020000000 1.0
C      1  0.5675180000000  0.4613560000000  0.4923240000000 1.0
C      1  0.4352680000000  0.5503080000000  0.4916800000000 1.0
C      1  0.5670210000000  0.5003880000000  0.4499360000000 1.0
C      1  0.4773900000000  0.4977910000000  0.5758950000000 1.0
C      1  0.4300750000000  0.5247480000000  0.5035480000000 1.0
C      1  0.5063730000000  0.4223930000000  0.5011070000000 1.0
C      1  0.5495200000000  0.5392430000000  0.5097220000000 1.0
C      1  0.4578430000000  0.4492800000000  0.5501860000000 1.0
C      1  0.4551290000000  0.4612090000000  0.4626360000000 1.0
C      1  0.5552210000000  0.5191260000000  0.4313230000000 1.0
C      1  0.4648010000000  0.4612970000000  0.4905320000000 1.0
C      1  0.4777660000000  0.4903240000000  0.4238420000000 1.0
C      1  0.4898210000000  0.5575200000000  0.4545160000000 1.0
C      1  0.4906450000000  0.5369460000000  0.4947960000000 1.0
C      1  0.5083510000000  0.5338080000000  0.4162810000000 1.0
C      1  0.5051830000000  0.5348580000000  0.5213260000000 1.0
C      1  0.5709830000000  0.5331960000000  0.4883630000000 1.0
C      1  0.5263950000000  0.5848740000000  0.4971130000000 1.0
C      1  0.4421070000000  0.4726980000000  0.5498030000000 1.0
C      1  0.4517360000000  0.4968540000000  0.5630220000000 1.0
C      1  0.4992450000000  0.5165020000000  0.5643480000000 1.0
C      1  0.4246860000000  0.4654040000000  0.4745780000000 1.0
C      1  0.5025700000000  0.4378140000000  0.4746940000000 1.0
C      1  0.4975980000000  0.4722090000000  0.4157210000000 1.0
C      1  0.5244400000000  0.5228500000000  0.4643570000000 1.0
C      1  0.4719270000000  0.5320670000000  0.4470940000000 1.0
C      1  0.5478380000000  0.5377420000000  0.4503630000000 1.0
C      1  0.4193250000000  0.5496680000000  0.4695100000000 1.0
C      1  0.5103330000000  0.5465460000000  0.4742420000000 1.0
C      1  0.4518060000000  0.5125540000000  0.4573260000000 1.0
C      1  0.5348590000000  0.4289460000000  0.5001820000000 1.0
C      1  0.5516310000000  0.5217610000000  0.5545440000000 1.0
C      1  0.5799230000000  0.4871780000000  0.4973180000000 1.0
C      1  0.5032410000000  0.4471790000000  0.5416600000000 1.0
C      1  0.4652830000000  0.4865480000000  0.4504150000000 1.0
C      1  0.4679910000000  0.5628390000000  0.5249900000000 1.0
C      1  0.5369100000000  0.5606220000000  0.4884140000000 1.0
C      1  0.5457990000000  0.5447800000000  0.5392350000000 1.0
C      1  0.5548480000000  0.4712280000000  0.5812530000000 1.0
C      1  0.4904770000000  0.4270670000000  0.5240210000000 1.0
C      1  0.4216400000000  0.5125840000000  0.4509100000000 1.0
C      1  0.5558010000000  0.4445550000000  0.5126660000000 1.0
C      1  0.4313770000000  0.4803670000000  0.5237750000000 1.0
C      1  0.5090920000000  0.5039430000000  0.4483350000000 1.0
C      1  0.5656360000000  0.4729350000000  0.5557590000000 1.0
C      1  0.4746730000000  0.5528040000000  0.5690650000000 1.0
C      1  0.4476500000000  0.4412030000000  0.5051020000000 1.0
C      1  0.4185470000000  0.4918940000000  0.4723750000000 1.0
C      1  0.4858310000000  0.5195530000000  0.5367610000000 1.0
C      1  0.4995980000000  0.5846810000000  0.4994770000000 1.0
C      1  0.4260840000000  0.5105680000000  0.5278150000000 1.0
C      1  0.5329830000000  0.4510450000000  0.5812200000000 1.0
C      1  0.4639350000000  0.5582700000000  0.4959570000000 1.0
C      1  0.5007920000000  0.5469270000000  0.5667120000000 1.0
C      1  0.4414570000000  0.5196050000000  0.5493600000000 1.0
C      1  0.4809450000000  0.4411160000000  0.4524690000000 1.0
C      1  0.4806910000000  0.5754450000000  0.4788270000000 1.0
C      1  0.4081600000000  0.5367330000000  0.4500420000000 1.0
C      1  0.4902000000000  0.4494000000000  0.4291490000000 1.0
C      1  0.5268600000000  0.5054110000000  0.5616690000000 1.0
C      1  0.5329390000000  0.4385290000000  0.4729780000000 1.0
C      1  0.4945110000000  0.5734110000000  0.5260320000000 1.0
C      1  0.5284880000000  0.5159760000000  0.5129890000000 1.0
C      1  0.5463490000000  0.4701710000000  0.4197910000000 1.0
C      1  0.4878110000000  0.5171820000000  0.4286780000000 1.0
C      1  0.4622010000000  0.4327360000000  0.5269500000000 1.0
C      1  0.5599230000000  0.5521580000000  0.4706320000000 1.0
C      1  0.5765990000000  0.5071810000000  0.4766720000000 1.0
C      1  0.4627480000000  0.5412170000000  0.5452950000000 1.0
C      1  0.4425640000000  0.5055180000000  0.4866350000000 1.0
C      1  0.5543160000000  0.4508460000000  0.5400160000000 1.0
C      1  0.5140330000000  0.4700120000000  0.5919590000000 1.0
C      1  0.4944820000000  0.4636160000000  0.4877680000000 1.0
C      1  0.5583700000000  0.4736790000000  0.4444280000000 1.0
C      1  0.5220790000000  0.5052960000000  0.4880840000000 1.0
C      1  0.5309640000000  0.5127600000000  0.4160520000000 1.0
C      1  0.5710910000000  0.5003610000000  0.5460540000000 1.0
C      1  0.4240820000000  0.4576440000000  0.5034260000000 1.0
C      1  0.5255510000000  0.4913650000000  0.5301920000000 1.0
C      1  0.4825130000000  0.4522720000000  0.5625530000000 1.0
C      1  0.5028670000000  0.5580590000000  0.4273350000000 1.0
C      1  0.5546880000000  0.4563500000000  0.4674060000000 1.0
C      1  0.4910860000000  0.4883000000000  0.4682570000000 1.0
C      1  0.4913750000000  0.5070180000000  0.4912190000000 1.0
C      1  0.4821700000000  0.4955930000000  0.5171900000000 1.0
C      1  0.5152000000000  0.5552800000000  0.5412640000000 1.0
C      1  0.4881620000000  0.4721960000000  0.5821450000000 1.0
C      1  0.5302220000000  0.4427550000000  0.5541660000000 1.0
END
