TITL C-21807-4618-5 0.0863418429860879 125000 -827.002704006057 0 0 117 (C1) n - 1
REM
REM in /rds/project/t2_vol4/rds-t2-cs072/BORA/CARBON/from-Arr/AIRSS/Generating-Clusters/GAP-ML-2020/Only-C1/SD-CG/HFTN-CG
REM
REM
REM
REM
REM
REM ./C.cell (11c1c37f851c82e70ff6c80c92926a4b)
REM AIRSS Version 0.9.1 bugfix July 2018 build 013d7b7c2542+ Fri, 06 Jul 2018 19:26:36 +0100
REM compiler GCC version 9.3.0
REM options -cpp -mtune=generic -march=x86-64 -g -O0
REM seed 413783771 139419334 139867280 -1274667403 2033510488 -324032229 207511352 -774344983 2026853342 -1308344322 -1128795952 1287159856 -251619936 -1402956019 -331599590 1752819159 686809998 1113571565 94989619 -1247747915 1365595966 -1036521418 -2137631230 -687074360 -1208015967 -1897822237 1572581852 404657257 866508913 634704133 -80408996 1579476762 -836700923
REM
CELL 1.54180   50.00000   50.00000   50.00000   90.00000   90.00000   90.00000
LATT -1
SFAC C  
C      1  0.5202670000000  0.5721590000000  0.5195430000000 1.0
C      1  0.4362510000000  0.5479870000000  0.5426370000000 1.0
C      1  0.4220660000000  0.4433780000000  0.5100370000000 1.0
C      1  0.4542760000000  0.5163780000000  0.5038910000000 1.0
C      1  0.4672060000000  0.4210020000000  0.5330290000000 1.0
C      1  0.4367350000000  0.5627210000000  0.5181440000000 1.0
C      1  0.5296750000000  0.5888510000000  0.4751180000000 1.0
C      1  0.5424960000000  0.4773480000000  0.5038100000000 1.0
C      1  0.4664280000000  0.5678320000000  0.5123770000000 1.0
C      1  0.5297540000000  0.5162230000000  0.4168120000000 1.0
C      1  0.4919190000000  0.5965960000000  0.4840320000000 1.0
C      1  0.5052710000000  0.5921030000000  0.4593870000000 1.0
C      1  0.4719890000000  0.5371130000000  0.5160230000000 1.0
C      1  0.4189410000000  0.4792620000000  0.5453850000000 1.0
C      1  0.3978570000000  0.4842640000000  0.5004720000000 1.0
C      1  0.5360670000000  0.4244210000000  0.4334060000000 1.0
C      1  0.4838110000000  0.5583130000000  0.5563510000000 1.0
C      1  0.5548680000000  0.4460890000000  0.4340930000000 1.0
C      1  0.5009140000000  0.5114590000000  0.4172760000000 1.0
C      1  0.4925070000000  0.4554190000000  0.5726460000000 1.0
C      1  0.4802460000000  0.5034830000000  0.5852990000000 1.0
C      1  0.5284560000000  0.5375430000000  0.5660660000000 1.0
C      1  0.5406350000000  0.5397280000000  0.4281770000000 1.0
C      1  0.5048410000000  0.5037850000000  0.5280740000000 1.0
C      1  0.4276930000000  0.4523000000000  0.5374400000000 1.0
C      1  0.5374410000000  0.5099890000000  0.4706880000000 1.0
C      1  0.4665860000000  0.4809650000000  0.4229300000000 1.0
C      1  0.4630440000000  0.4147900000000  0.5052090000000 1.0
C      1  0.5450050000000  0.5049340000000  0.4962810000000 1.0
C      1  0.5735400000000  0.5345710000000  0.5603120000000 1.0
C      1  0.4925110000000  0.5143930000000  0.4790010000000 1.0
C      1  0.5168840000000  0.5941930000000  0.5000590000000 1.0
C      1  0.5414700000000  0.4691430000000  0.4229190000000 1.0
C      1  0.5659090000000  0.5359610000000  0.4408000000000 1.0
C      1  0.4398860000000  0.4276710000000  0.4933020000000 1.0
C      1  0.4944670000000  0.4839080000000  0.4198150000000 1.0
C      1  0.5382320000000  0.5602600000000  0.4715150000000 1.0
C      1  0.5152250000000  0.4703070000000  0.4631260000000 1.0
C      1  0.4966980000000  0.4220510000000  0.5376650000000 1.0
C      1  0.4757600000000  0.5541650000000  0.4400340000000 1.0
C      1  0.4214710000000  0.5529650000000  0.4954420000000 1.0
C      1  0.5258320000000  0.5561550000000  0.4444840000000 1.0
C      1  0.4048190000000  0.5296000000000  0.4994060000000 1.0
C      1  0.5507190000000  0.4408250000000  0.5313570000000 1.0
C      1  0.4928810000000  0.4503120000000  0.5294720000000 1.0
C      1  0.5992920000000  0.4972420000000  0.5031610000000 1.0
C      1  0.5799510000000  0.4818910000000  0.5412100000000 1.0
C      1  0.4883010000000  0.4117130000000  0.4919600000000 1.0
C      1  0.4756500000000  0.4928680000000  0.5410080000000 1.0
C      1  0.5039730000000  0.4480350000000  0.4801990000000 1.0
C      1  0.5096630000000  0.4115090000000  0.5138040000000 1.0
C      1  0.4902510000000  0.4275790000000  0.4628760000000 1.0
C      1  0.4528790000000  0.4426630000000  0.5451750000000 1.0
C      1  0.5846330000000  0.4714010000000  0.4691020000000 1.0
C      1  0.4192430000000  0.5262930000000  0.5472360000000 1.0
C      1  0.4614140000000  0.5101150000000  0.5620860000000 1.0
C      1  0.5637910000000  0.4549590000000  0.4595120000000 1.0
C      1  0.5936880000000  0.5039650000000  0.5295230000000 1.0
C      1  0.5357260000000  0.4245700000000  0.5125020000000 1.0
C      1  0.4973750000000  0.5248890000000  0.5910500000000 1.0
C      1  0.4280960000000  0.4677200000000  0.4686690000000 1.0
C      1  0.4940520000000  0.4629420000000  0.5036470000000 1.0
C      1  0.5725870000000  0.5088720000000  0.4374300000000 1.0
C      1  0.5112650000000  0.4367560000000  0.5606940000000 1.0
C      1  0.5256110000000  0.5161090000000  0.5886830000000 1.0
C      1  0.4325090000000  0.5537600000000  0.4684550000000 1.0
C      1  0.5676970000000  0.4646700000000  0.5203400000000 1.0
C      1  0.5112920000000  0.4328180000000  0.4389010000000 1.0
C      1  0.4110990000000  0.4618540000000  0.4920540000000 1.0
C      1  0.4606380000000  0.4561940000000  0.4322250000000 1.0
C      1  0.4977450000000  0.4795290000000  0.5859510000000 1.0
C      1  0.3999660000000  0.4914550000000  0.5273860000000 1.0
C      1  0.5863060000000  0.5308860000000  0.5356460000000 1.0
C      1  0.4631140000000  0.5388460000000  0.5491950000000 1.0
C      1  0.5379140000000  0.4468050000000  0.5570220000000 1.0
C      1  0.5698550000000  0.5447100000000  0.5154490000000 1.0
C      1  0.4677760000000  0.4726580000000  0.4989400000000 1.0
C      1  0.4588170000000  0.5636540000000  0.4624650000000 1.0
C      1  0.4550530000000  0.5078720000000  0.4262470000000 1.0
C      1  0.5006120000000  0.5684260000000  0.4436720000000 1.0
C      1  0.5128000000000  0.4990690000000  0.4685850000000 1.0
C      1  0.4750580000000  0.4623940000000  0.5499550000000 1.0
C      1  0.4981450000000  0.5277040000000  0.5041120000000 1.0
C      1  0.5520070000000  0.5538180000000  0.5582000000000 1.0
C      1  0.4638510000000  0.4363490000000  0.4507180000000 1.0
C      1  0.4764110000000  0.5276420000000  0.4254630000000 1.0
C      1  0.5426890000000  0.5273920000000  0.5142120000000 1.0
C      1  0.5678690000000  0.4864710000000  0.5664150000000 1.0
C      1  0.5249550000000  0.4873390000000  0.5863040000000 1.0
C      1  0.5950480000000  0.5158390000000  0.4816360000000 1.0
C      1  0.4702660000000  0.5783470000000  0.4856060000000 1.0
C      1  0.4583310000000  0.4919390000000  0.5176220000000 1.0
C      1  0.5886040000000  0.4716500000000  0.4973420000000 1.0
C      1  0.4292550000000  0.5116020000000  0.4391510000000 1.0
C      1  0.4156750000000  0.4944330000000  0.4586300000000 1.0
C      1  0.5499680000000  0.4959530000000  0.4220470000000 1.0
C      1  0.4025510000000  0.5059390000000  0.4817660000000 1.0
C      1  0.5709030000000  0.5122470000000  0.5759300000000 1.0
C      1  0.5135200000000  0.4646360000000  0.4330100000000 1.0
C      1  0.5275560000000  0.5185170000000  0.5386850000000 1.0
C      1  0.5229880000000  0.5466910000000  0.5007080000000 1.0
C      1  0.5660610000000  0.5495820000000  0.4660550000000 1.0
C      1  0.5817310000000  0.5412380000000  0.4873710000000 1.0
C      1  0.4649850000000  0.5076560000000  0.4778810000000 1.0
C      1  0.5018990000000  0.5482140000000  0.5750510000000 1.0
C      1  0.4318030000000  0.5026980000000  0.5583590000000 1.0
C      1  0.5882600000000  0.4985410000000  0.4591220000000 1.0
C      1  0.4017380000000  0.5197460000000  0.5263340000000 1.0
C      1  0.5445260000000  0.4708070000000  0.5724810000000 1.0
C      1  0.4248080000000  0.5360750000000  0.4495910000000 1.0
C      1  0.5146250000000  0.4797220000000  0.5145850000000 1.0
C      1  0.5503370000000  0.5649570000000  0.5320130000000 1.0
C      1  0.4909670000000  0.5722810000000  0.5326860000000 1.0
C      1  0.4409560000000  0.4387370000000  0.4671150000000 1.0
C      1  0.5309690000000  0.4348500000000  0.4872790000000 1.0
C      1  0.5418690000000  0.4595470000000  0.4778540000000 1.0
C      1  0.4586260000000  0.4802340000000  0.4733070000000 1.0
END
