TITL C-21783-2244-10 -0.170046753022171 125000 -448.605665601964 0 0 67 (C1) n - 1
REM
REM in /rds/project/t2_vol4/rds-t2-cs072/BORA/CARBON/from-Arr/AIRSS/Generating-Clusters/GAP-ML-2020/Only-C1/SD-CG/HFTN-CG
REM
REM
REM
REM
REM
REM ./C.cell (11c1c37f851c82e70ff6c80c92926a4b)
REM AIRSS Version 0.9.1 bugfix July 2018 build 013d7b7c2542+ Fri, 06 Jul 2018 19:26:36 +0100
REM compiler GCC version 9.3.0
REM options -cpp -mtune=generic -march=x86-64 -g -O0
REM seed -1325739964 1222666107 1899068127 -376525827 -1172422473 -118523079 -635943468 -1500111638 -510357095 241215691 528855560 -1038445803 -1701411857 -112104100 1501340794 444295460 -275301182 163084908 287043759 -228366184 1802252425 -1097695449 1732091172 688479685 763700173 1408305528 -58532068 1039253161 2072725373 -147006035 218588656 1245300476 -970120846
REM
CELL 1.54180   50.00000   50.00000   50.00000   90.00000   90.00000   90.00000
LATT -1
SFAC C  
C      1  0.4671690000000  0.4406170000000  0.4613530000000 1.0
C      1  0.4549130000000  0.4505540000000  0.5008950000000 1.0
C      1  0.5516520000000  0.5154870000000  0.4614060000000 1.0
C      1  0.4492480000000  0.5392770000000  0.5326700000000 1.0
C      1  0.5108010000000  0.4990100000000  0.4572250000000 1.0
C      1  0.4861770000000  0.5320690000000  0.4335420000000 1.0
C      1  0.5379400000000  0.4600840000000  0.5066970000000 1.0
C      1  0.4871040000000  0.4589730000000  0.4493290000000 1.0
C      1  0.5453600000000  0.5633630000000  0.5189290000000 1.0
C      1  0.4740340000000  0.4208680000000  0.4809420000000 1.0
C      1  0.4744940000000  0.4606240000000  0.5648820000000 1.0
C      1  0.4525910000000  0.4869130000000  0.4612340000000 1.0
C      1  0.5588770000000  0.4628040000000  0.4853240000000 1.0
C      1  0.4426000000000  0.5147800000000  0.4628130000000 1.0
C      1  0.5179940000000  0.4585200000000  0.5648970000000 1.0
C      1  0.4653470000000  0.4691610000000  0.5200260000000 1.0
C      1  0.4720250000000  0.5477580000000  0.4986980000000 1.0
C      1  0.5035670000000  0.5853720000000  0.5078330000000 1.0
C      1  0.5121880000000  0.5668420000000  0.4622890000000 1.0
C      1  0.4379300000000  0.5143530000000  0.5397400000000 1.0
C      1  0.5500530000000  0.5475910000000  0.4976700000000 1.0
C      1  0.5391840000000  0.4920460000000  0.4538380000000 1.0
C      1  0.4496810000000  0.4592450000000  0.4741620000000 1.0
C      1  0.5364000000000  0.4461410000000  0.4405630000000 1.0
C      1  0.4531730000000  0.4671260000000  0.5470090000000 1.0
C      1  0.5042240000000  0.5490490000000  0.5410960000000 1.0
C      1  0.5099720000000  0.4759890000000  0.4981930000000 1.0
C      1  0.5189530000000  0.5693870000000  0.5263800000000 1.0
C      1  0.4493070000000  0.4948900000000  0.5557590000000 1.0
C      1  0.5284590000000  0.5462240000000  0.4767270000000 1.0
C      1  0.4790770000000  0.5396120000000  0.5276680000000 1.0
C      1  0.4726870000000  0.4962960000000  0.4817920000000 1.0
C      1  0.4949940000000  0.4646730000000  0.5211000000000 1.0
C      1  0.4752260000000  0.4904330000000  0.5667520000000 1.0
C      1  0.4958740000000  0.4788940000000  0.4733870000000 1.0
C      1  0.5400800000000  0.4813130000000  0.5294070000000 1.0
C      1  0.4750080000000  0.4281910000000  0.5066780000000 1.0
C      1  0.4715470000000  0.4829760000000  0.4382610000000 1.0
C      1  0.4807040000000  0.5759180000000  0.4955900000000 1.0
C      1  0.5089540000000  0.5214240000000  0.4797630000000 1.0
C      1  0.5390060000000  0.5088890000000  0.5172890000000 1.0
C      1  0.5109160000000  0.4486490000000  0.4378550000000 1.0
C      1  0.4803540000000  0.5269450000000  0.4787790000000 1.0
C      1  0.4658740000000  0.5308780000000  0.4535550000000 1.0
C      1  0.4322950000000  0.5233660000000  0.4885800000000 1.0
C      1  0.5009570000000  0.5864940000000  0.4782670000000 1.0
C      1  0.5262880000000  0.4370070000000  0.5183520000000 1.0
C      1  0.5821560000000  0.4787760000000  0.4896870000000 1.0
C      1  0.4648950000000  0.4959330000000  0.5093160000000 1.0
C      1  0.5410620000000  0.5174220000000  0.5478890000000 1.0
C      1  0.5116330000000  0.5062490000000  0.5050750000000 1.0
C      1  0.5107890000000  0.5478620000000  0.4399170000000 1.0
C      1  0.4870250000000  0.5108570000000  0.5238310000000 1.0
C      1  0.4978080000000  0.5019520000000  0.5501540000000 1.0
C      1  0.5497350000000  0.4899740000000  0.5566320000000 1.0
C      1  0.5586410000000  0.5192760000000  0.4947720000000 1.0
C      1  0.5155540000000  0.5264350000000  0.5542510000000 1.0
C      1  0.5125800000000  0.4778130000000  0.5420020000000 1.0
C      1  0.4382490000000  0.5072730000000  0.5114290000000 1.0
C      1  0.5851840000000  0.5039260000000  0.4939020000000 1.0
C      1  0.4900250000000  0.5045340000000  0.4363260000000 1.0
C      1  0.5411310000000  0.4698690000000  0.5736880000000 1.0
C      1  0.5473880000000  0.4651500000000  0.4584590000000 1.0
C      1  0.5372280000000  0.5376250000000  0.4491160000000 1.0
C      1  0.4993030000000  0.4355360000000  0.5264590000000 1.0
C      1  0.4951930000000  0.4422880000000  0.5580040000000 1.0
C      1  0.4431630000000  0.5441740000000  0.5038980000000 1.0
END
