TITL C-21085-1336-3 -0.116384191943925 125000 -373.981579196868 0 0 57 (C1) n - 1
REM
REM in /rds/project/t2_vol4/rds-t2-cs072/BORA/CARBON/from-Arr/AIRSS/Generating-Clusters/GAP-ML-2020/Only-C1/SD-CG/HFTN-CG
REM
REM
REM
REM
REM
REM ./C.cell (11c1c37f851c82e70ff6c80c92926a4b)
REM AIRSS Version 0.9.1 bugfix July 2018 build 013d7b7c2542+ Fri, 06 Jul 2018 19:26:36 +0100
REM compiler GCC version 9.3.0
REM options -cpp -mtune=generic -march=x86-64 -g -O0
REM seed -1516623825 -714718215 -1611701418 1377754086 -525120352 -203839973 -1453826706 -881611243 -987359956 -206999881 -461889382 514794722 935345077 -236500652 -1631770465 63175708 1120173320 -1454121510 1406840453 970312322 34358430 -381445092 -560110410 -970015417 1307682007 -1300840433 -1901224779 1428273490 -1052217221 1242742118 -83053614 -1300420969 823037892
REM
CELL 1.54180   50.00000   50.00000   50.00000   90.00000   90.00000   90.00000
LATT -1
SFAC C  
C      1  0.5098320000000  0.4631210000000  0.5465960000000 1.0
C      1  0.4468080000000  0.4960340000000  0.5037900000000 1.0
C      1  0.5367020000000  0.5116030000000  0.5485930000000 1.0
C      1  0.4932630000000  0.5375900000000  0.5055280000000 1.0
C      1  0.4519440000000  0.5257890000000  0.4541250000000 1.0
C      1  0.5242820000000  0.5693610000000  0.4952350000000 1.0
C      1  0.5540150000000  0.5262750000000  0.4801990000000 1.0
C      1  0.5044010000000  0.4505460000000  0.4536720000000 1.0
C      1  0.4932440000000  0.5155090000000  0.5238560000000 1.0
C      1  0.4975650000000  0.4816960000000  0.5637340000000 1.0
C      1  0.4789540000000  0.5633550000000  0.4743140000000 1.0
C      1  0.5482750000000  0.4452290000000  0.5168380000000 1.0
C      1  0.4692850000000  0.4678140000000  0.5298680000000 1.0
C      1  0.4223860000000  0.5211790000000  0.5396980000000 1.0
C      1  0.4739830000000  0.4391320000000  0.4927600000000 1.0
C      1  0.4542490000000  0.4535220000000  0.5068060000000 1.0
C      1  0.5656370000000  0.4840200000000  0.4914960000000 1.0
C      1  0.4970830000000  0.4345790000000  0.5090930000000 1.0
C      1  0.4479180000000  0.5340150000000  0.5410320000000 1.0
C      1  0.4550240000000  0.5551540000000  0.5237520000000 1.0
C      1  0.5168690000000  0.5011770000000  0.5688940000000 1.0
C      1  0.5288120000000  0.4940470000000  0.4569510000000 1.0
C      1  0.5243580000000  0.4407680000000  0.4981800000000 1.0
C      1  0.5381210000000  0.4867420000000  0.4840120000000 1.0
C      1  0.5220680000000  0.5074490000000  0.5234130000000 1.0
C      1  0.5100040000000  0.5653970000000  0.4712310000000 1.0
C      1  0.5148170000000  0.5564480000000  0.5149100000000 1.0
C      1  0.4715370000000  0.4867810000000  0.5546550000000 1.0
C      1  0.4289490000000  0.5032430000000  0.5226940000000 1.0
C      1  0.5277250000000  0.4657430000000  0.4503750000000 1.0
C      1  0.4564430000000  0.4986890000000  0.4497340000000 1.0
C      1  0.4918630000000  0.5284720000000  0.5525310000000 1.0
C      1  0.4537540000000  0.4733950000000  0.4631620000000 1.0
C      1  0.4836550000000  0.5022210000000  0.4398540000000 1.0
C      1  0.5168730000000  0.5411880000000  0.4565150000000 1.0
C      1  0.4700960000000  0.5557960000000  0.5014360000000 1.0
C      1  0.4668920000000  0.5168710000000  0.5555550000000 1.0
C      1  0.5596310000000  0.4921470000000  0.5408860000000 1.0
C      1  0.5257600000000  0.4429410000000  0.4682210000000 1.0
C      1  0.5710340000000  0.4984220000000  0.5162460000000 1.0
C      1  0.5171810000000  0.5273610000000  0.5648750000000 1.0
C      1  0.4764060000000  0.4922220000000  0.5107340000000 1.0
C      1  0.4420350000000  0.4718410000000  0.4887770000000 1.0
C      1  0.4999920000000  0.5000100000000  0.4654770000000 1.0
C      1  0.5224150000000  0.4781430000000  0.5253620000000 1.0
C      1  0.4708490000000  0.5459140000000  0.4539140000000 1.0
C      1  0.4791610000000  0.4568330000000  0.4691330000000 1.0
C      1  0.5308830000000  0.5141140000000  0.4955400000000 1.0
C      1  0.4908670000000  0.4478530000000  0.5331780000000 1.0
C      1  0.5176250000000  0.4702150000000  0.4976460000000 1.0
C      1  0.4922850000000  0.4802300000000  0.4867000000000 1.0
C      1  0.5470840000000  0.4659590000000  0.5348610000000 1.0
C      1  0.5069700000000  0.5245000000000  0.4808460000000 1.0
C      1  0.5408290000000  0.5227090000000  0.4548890000000 1.0
C      1  0.4911580000000  0.5194280000000  0.4185110000000 1.0
C      1  0.4945030000000  0.5379300000000  0.4374890000000 1.0
C      1  0.5756460000000  0.5112790000000  0.4916290000000 1.0
END
