TITL C-2109092-4430-22 9.21144843368643 125000 -384.364029743945 0 0 57 (C1) n - 1
REM
REM in /nfs/bkarasulu/CARBON/AIRSS/Generating-Clusters/GAP-ML-2020/Only-C1/SD-CG/HFTN-CG
REM
REM
REM
REM
REM
REM ./C.cell (11c1c37f851c82e70ff6c80c92926a4b)
REM
REM compiler GCC version 9.2.1 20190827 (Red Hat 9.2.1-1)
REM options -cpp -mtune=generic -march=x86-64 -g -O0 -fpre-include=/usr/include/finclude/math-vector-fortran.h
REM seed 557265604 2125967499 1656545747 -131184886 179870913 382820301 598382342 -528438485 332831757 -490958293 2022146007 1750350277 471552802 -1341068527 -2091415365 1388585175 4097025 977681542 1199956828 -1778179844 443776603 -55496011 -2071398870 159018442 -353783357 -270070298 -1286799761 1803462447 1685039525 1474999746 842742617 502369670 1306141566
REM
CELL 1.54180   50.00000   50.00000   50.00000   90.00000   90.00000   90.00000
LATT -1
SFAC C  
C      1  0.4789510000000  0.5186210000000  0.5652260000000 1.0
C      1  0.5600380000000  0.5206320000000  0.5217070000000 1.0
C      1  0.5077040000000  0.4623760000000  0.4544850000000 1.0
C      1  0.5185630000000  0.5189600000000  0.5148290000000 1.0
C      1  0.4899210000000  0.5004560000000  0.4771490000000 1.0
C      1  0.4869450000000  0.5299590000000  0.4320410000000 1.0
C      1  0.4618160000000  0.4737540000000  0.5055060000000 1.0
C      1  0.4674700000000  0.5525630000000  0.5166130000000 1.0
C      1  0.5127030000000  0.4564430000000  0.5544140000000 1.0
C      1  0.4651310000000  0.4623810000000  0.5521340000000 1.0
C      1  0.5062830000000  0.5282990000000  0.5603440000000 1.0
C      1  0.5603890000000  0.4824040000000  0.5385060000000 1.0
C      1  0.5103790000000  0.5725060000000  0.5010530000000 1.0
C      1  0.5248970000000  0.5059860000000  0.5623980000000 1.0
C      1  0.5512270000000  0.5058940000000  0.4313100000000 1.0
C      1  0.5063120000000  0.5097340000000  0.4290070000000 1.0
C      1  0.5025730000000  0.5422700000000  0.4539510000000 1.0
C      1  0.5244660000000  0.4275500000000  0.4793610000000 1.0
C      1  0.5102220000000  0.4924740000000  0.4541960000000 1.0
C      1  0.4554750000000  0.5371770000000  0.5381090000000 1.0
C      1  0.5398250000000  0.4958660000000  0.4597900000000 1.0
C      1  0.4814290000000  0.5303050000000  0.4720530000000 1.0
C      1  0.5675500000000  0.5224990000000  0.4466280000000 1.0
C      1  0.4348890000000  0.4653450000000  0.5129180000000 1.0
C      1  0.4640480000000  0.5236630000000  0.4465220000000 1.0
C      1  0.5706820000000  0.4949530000000  0.5132130000000 1.0
C      1  0.4985660000000  0.5008350000000  0.5052100000000 1.0
C      1  0.4369870000000  0.5290100000000  0.4836130000000 1.0
C      1  0.4799580000000  0.4896460000000  0.5534870000000 1.0
C      1  0.4260520000000  0.4852300000000  0.4945120000000 1.0
C      1  0.4862720000000  0.4534160000000  0.4704230000000 1.0
C      1  0.4293590000000  0.5116960000000  0.5046380000000 1.0
C      1  0.5504840000000  0.4599690000000  0.5229980000000 1.0
C      1  0.5282570000000  0.5464590000000  0.4627030000000 1.0
C      1  0.5499050000000  0.4713650000000  0.4724700000000 1.0
C      1  0.4479500000000  0.5121940000000  0.5261250000000 1.0
C      1  0.5295350000000  0.5573750000000  0.4897530000000 1.0
C      1  0.4417650000000  0.5129580000000  0.4584960000000 1.0
C      1  0.5076430000000  0.4831550000000  0.5618590000000 1.0
C      1  0.5273540000000  0.4464470000000  0.5314430000000 1.0
C      1  0.4736840000000  0.4947530000000  0.5223090000000 1.0
C      1  0.5477300000000  0.5240530000000  0.4697320000000 1.0
C      1  0.4589440000000  0.5369020000000  0.5653350000000 1.0
C      1  0.4411160000000  0.4615140000000  0.5384880000000 1.0
C      1  0.4981580000000  0.4341900000000  0.4911370000000 1.0
C      1  0.4687950000000  0.4766270000000  0.4774350000000 1.0
C      1  0.4875130000000  0.4451830000000  0.5442130000000 1.0
C      1  0.5498240000000  0.5071780000000  0.5477440000000 1.0
C      1  0.5103200000000  0.5405050000000  0.5355290000000 1.0
C      1  0.5613930000000  0.4718090000000  0.4981400000000 1.0
C      1  0.4404790000000  0.4855880000000  0.4687330000000 1.0
C      1  0.5420950000000  0.5313920000000  0.5002190000000 1.0
C      1  0.5020790000000  0.4361320000000  0.5198660000000 1.0
C      1  0.4614280000000  0.5427370000000  0.4900690000000 1.0
C      1  0.4951750000000  0.5603010000000  0.5210910000000 1.0
C      1  0.5319370000000  0.4498970000000  0.4646060000000 1.0
C      1  0.5293540000000  0.5084150000000  0.4141610000000 1.0
END
