TITL C-2114519-1652-31 95.8319307147243 125000 -285.415574698168 0 0 42 (C1) n - 1
REM
REM in /nfs/bkarasulu/CARBON/AIRSS/Generating-Clusters/GAP-ML-2020/Only-C1/SD-CG/HFTN-CG
REM
REM
REM
REM
REM
REM ./C.cell (11c1c37f851c82e70ff6c80c92926a4b)
REM
REM compiler GCC version 9.2.1 20190827 (Red Hat 9.2.1-1)
REM options -cpp -mtune=generic -march=x86-64 -g -O0 -fpre-include=/usr/include/finclude/math-vector-fortran.h
REM seed -398405901 -379599170 159665314 -158012987 -1646793530 2022499065 -1426401521 -1618679643 -752984894 1449373960 898574323 685963901 2120545892 -567475360 -2003267594 -1774778994 763378479 809805671 1981920152 -1045593420 -105431197 -1176874343 -522099629 991514417 442195383 1911201804 -384491653 -796494871 -1162317569 1562548158 -327853772 1380063580 1007815084
REM
CELL 1.54180   50.00000   50.00000   50.00000   90.00000   90.00000   90.00000
LATT -1
SFAC C  
C      1  0.4574080000000  0.4703010000000  0.4794040000000 1.0
C      1  0.4945670000000  0.4500980000000  0.4573520000000 1.0
C      1  0.5025880000000  0.4812430000000  0.4979870000000 1.0
C      1  0.4560610000000  0.5309270000000  0.5170510000000 1.0
C      1  0.5122750000000  0.5457010000000  0.4650280000000 1.0
C      1  0.4730070000000  0.4873710000000  0.5455050000000 1.0
C      1  0.4893500000000  0.4472840000000  0.5122720000000 1.0
C      1  0.4769290000000  0.4703670000000  0.4574550000000 1.0
C      1  0.4639770000000  0.4603710000000  0.5055540000000 1.0
C      1  0.4534510000000  0.4805450000000  0.5250640000000 1.0
C      1  0.5509060000000  0.5195680000000  0.4704660000000 1.0
C      1  0.4828940000000  0.4641690000000  0.5570660000000 1.0
C      1  0.5517340000000  0.4849100000000  0.5058110000000 1.0
C      1  0.5287860000000  0.5251990000000  0.4516830000000 1.0
C      1  0.5135160000000  0.5439670000000  0.5155390000000 1.0
C      1  0.4876320000000  0.4957550000000  0.4464120000000 1.0
C      1  0.5516200000000  0.4914180000000  0.4775990000000 1.0
C      1  0.5232310000000  0.4678950000000  0.5399080000000 1.0
C      1  0.4958920000000  0.4968900000000  0.5211420000000 1.0
C      1  0.4696860000000  0.5370900000000  0.4912520000000 1.0
C      1  0.5113870000000  0.5056550000000  0.4854090000000 1.0
C      1  0.5444190000000  0.5060190000000  0.5246800000000 1.0
C      1  0.4449680000000  0.5037160000000  0.5123600000000 1.0
C      1  0.4542830000000  0.5187820000000  0.4724960000000 1.0
C      1  0.5063960000000  0.5191960000000  0.5560390000000 1.0
C      1  0.4984820000000  0.4538600000000  0.5385960000000 1.0
C      1  0.5212490000000  0.4980020000000  0.5411300000000 1.0
C      1  0.5191750000000  0.4547150000000  0.4680950000000 1.0
C      1  0.5358910000000  0.4627280000000  0.5147650000000 1.0
C      1  0.5153340000000  0.4528670000000  0.4970210000000 1.0
C      1  0.5332780000000  0.4778350000000  0.4599200000000 1.0
C      1  0.5426970000000  0.5320180000000  0.5170920000000 1.0
C      1  0.4773660000000  0.5133000000000  0.5568970000000 1.0
C      1  0.4998930000000  0.5433420000000  0.5401060000000 1.0
C      1  0.4449750000000  0.4960050000000  0.4844930000000 1.0
C      1  0.5238410000000  0.5535770000000  0.4891910000000 1.0
C      1  0.4950870000000  0.5223060000000  0.5044240000000 1.0
C      1  0.5483910000000  0.5385110000000  0.4904430000000 1.0
C      1  0.4853040000000  0.5428800000000  0.4652340000000 1.0
C      1  0.4715210000000  0.5349070000000  0.5401010000000 1.0
C      1  0.4742890000000  0.5193500000000  0.4527090000000 1.0
C      1  0.5162600000000  0.4993600000000  0.4492480000000 1.0
END
