TITL C-2114529-1331-22 -0.335728555512451 125000 -1064.18015074814 0 0 149 (C1) n - 1
REM
REM in /nfs/bkarasulu/CARBON/AIRSS/Generating-Clusters/GAP-ML-2020/Only-C1/SD-CG/HFTN-CG
REM
REM
REM
REM
REM
REM ./C.cell (11c1c37f851c82e70ff6c80c92926a4b)
REM
REM compiler GCC version 9.2.1 20190827 (Red Hat 9.2.1-1)
REM options -cpp -mtune=generic -march=x86-64 -g -O0 -fpre-include=/usr/include/finclude/math-vector-fortran.h
REM seed 254008673 480640158 776728293 -1538203771 435644310 -1958272969 -1399648260 -1795330091 -2015602362 1076193108 1881983611 -1119132113 1963121824 528212434 1618414670 -1014691187 -582779862 -1369849157 -1988312289 -1562582590 222448751 736556490 656142765 1558990382 -704133275 2070597874 -1912903013 1804388907 -159468361 -300617368 -477366452 -1625334642 1490582649
REM
CELL 1.54180   50.00000   50.00000   50.00000   90.00000   90.00000   90.00000
LATT -1
SFAC C  
C      1  0.5926830000000  0.5029950000000  0.4683000000000 1.0
C      1  0.5047210000000  0.5901530000000  0.4937700000000 1.0
C      1  0.4639900000000  0.4404700000000  0.4565450000000 1.0
C      1  0.5938180000000  0.4606710000000  0.5292360000000 1.0
C      1  0.4524730000000  0.5765800000000  0.5341730000000 1.0
C      1  0.5511130000000  0.4247890000000  0.5514580000000 1.0
C      1  0.5708140000000  0.5035950000000  0.4244760000000 1.0
C      1  0.5083090000000  0.4796150000000  0.5660410000000 1.0
C      1  0.5251720000000  0.5189010000000  0.4022230000000 1.0
C      1  0.5113580000000  0.4941050000000  0.3975070000000 1.0
C      1  0.5124810000000  0.4516400000000  0.4836670000000 1.0
C      1  0.5737470000000  0.4373340000000  0.5305150000000 1.0
C      1  0.5214880000000  0.4667250000000  0.4072390000000 1.0
C      1  0.4243580000000  0.4564680000000  0.5358070000000 1.0
C      1  0.5270200000000  0.4478760000000  0.5266990000000 1.0
C      1  0.5364030000000  0.5774480000000  0.5616030000000 1.0
C      1  0.4787450000000  0.5580170000000  0.5814690000000 1.0
C      1  0.5272520000000  0.4605690000000  0.5536220000000 1.0
C      1  0.4052800000000  0.4738800000000  0.5219830000000 1.0
C      1  0.4276450000000  0.5592950000000  0.4503180000000 1.0
C      1  0.4407780000000  0.5782190000000  0.4667450000000 1.0
C      1  0.5330610000000  0.4580050000000  0.5930590000000 1.0
C      1  0.4353770000000  0.5560510000000  0.5174140000000 1.0
C      1  0.4437890000000  0.5529730000000  0.4262640000000 1.0
C      1  0.4481890000000  0.5011540000000  0.5129750000000 1.0
C      1  0.5035910000000  0.4114680000000  0.5444750000000 1.0
C      1  0.4971970000000  0.5050840000000  0.4997220000000 1.0
C      1  0.4380210000000  0.4943490000000  0.5726610000000 1.0
C      1  0.5366990000000  0.4086980000000  0.5026980000000 1.0
C      1  0.5008780000000  0.5484150000000  0.5208220000000 1.0
C      1  0.4645000000000  0.4937690000000  0.6155530000000 1.0
C      1  0.6006900000000  0.5189930000000  0.4897710000000 1.0
C      1  0.4545820000000  0.5271510000000  0.5465330000000 1.0
C      1  0.4340410000000  0.4617710000000  0.4262950000000 1.0
C      1  0.4867110000000  0.4418260000000  0.5795480000000 1.0
C      1  0.5110830000000  0.5883220000000  0.5693990000000 1.0
C      1  0.4463800000000  0.4257180000000  0.4993740000000 1.0
C      1  0.3972890000000  0.5052440000000  0.4841850000000 1.0
C      1  0.4763590000000  0.5273080000000  0.5841860000000 1.0
C      1  0.5362910000000  0.5768110000000  0.5326910000000 1.0
C      1  0.4187970000000  0.4726340000000  0.4468640000000 1.0
C      1  0.5841390000000  0.4749350000000  0.4773740000000 1.0
C      1  0.5704430000000  0.5547510000000  0.4735040000000 1.0
C      1  0.4828840000000  0.4185120000000  0.4543640000000 1.0
C      1  0.4281550000000  0.5056310000000  0.4139830000000 1.0
C      1  0.5495890000000  0.4769450000000  0.5433190000000 1.0
C      1  0.4510330000000  0.4933930000000  0.4837870000000 1.0
C      1  0.4568110000000  0.4240410000000  0.5447940000000 1.0
C      1  0.5337210000000  0.4374600000000  0.5720410000000 1.0
C      1  0.5532250000000  0.4799380000000  0.5908150000000 1.0
C      1  0.4101680000000  0.5406420000000  0.5193890000000 1.0
C      1  0.3966610000000  0.4961150000000  0.5357180000000 1.0
C      1  0.5056170000000  0.5361410000000  0.5455280000000 1.0
C      1  0.4052840000000  0.4792530000000  0.4932960000000 1.0
C      1  0.5271150000000  0.5611200000000  0.4258710000000 1.0
C      1  0.4934080000000  0.5885480000000  0.5480020000000 1.0
C      1  0.4548670000000  0.5296930000000  0.5177680000000 1.0
C      1  0.4993520000000  0.4862520000000  0.4523150000000 1.0
C      1  0.6056830000000  0.5014300000000  0.5114690000000 1.0
C      1  0.4086720000000  0.5199650000000  0.5392400000000 1.0
C      1  0.5507020000000  0.5216360000000  0.4144110000000 1.0
C      1  0.5082170000000  0.5791230000000  0.5216730000000 1.0
C      1  0.4418860000000  0.4419450000000  0.4765630000000 1.0
C      1  0.5681940000000  0.4785230000000  0.5659830000000 1.0
C      1  0.4093480000000  0.5415720000000  0.4653710000000 1.0
C      1  0.4641960000000  0.4807090000000  0.5330080000000 1.0
C      1  0.5631940000000  0.3992610000000  0.4991480000000 1.0
C      1  0.5057640000000  0.5666990000000  0.5879600000000 1.0
C      1  0.4368130000000  0.4325550000000  0.5262020000000 1.0
C      1  0.5568590000000  0.4737960000000  0.4939750000000 1.0
C      1  0.5523250000000  0.5338560000000  0.5883520000000 1.0
C      1  0.5216390000000  0.5049350000000  0.5764450000000 1.0
C      1  0.5087220000000  0.4913020000000  0.5226070000000 1.0
C      1  0.5264430000000  0.5106410000000  0.4837260000000 1.0
C      1  0.4777310000000  0.5956820000000  0.4882630000000 1.0
C      1  0.4016810000000  0.5148810000000  0.4572380000000 1.0
C      1  0.5517020000000  0.5464580000000  0.4285050000000 1.0
C      1  0.4438120000000  0.5289140000000  0.4093970000000 1.0
C      1  0.4535170000000  0.5072150000000  0.5938930000000 1.0
C      1  0.5433580000000  0.5621590000000  0.4840610000000 1.0
C      1  0.4560180000000  0.4453700000000  0.4294530000000 1.0
C      1  0.4849970000000  0.5101620000000  0.4490430000000 1.0
C      1  0.4903350000000  0.4886120000000  0.6071410000000 1.0
C      1  0.5441590000000  0.5060060000000  0.5947220000000 1.0
C      1  0.5367140000000  0.4651040000000  0.4725800000000 1.0
C      1  0.5763140000000  0.5490060000000  0.5189180000000 1.0
C      1  0.5968370000000  0.5073700000000  0.5377120000000 1.0
C      1  0.5189710000000  0.4189950000000  0.4811280000000 1.0
C      1  0.4669500000000  0.5894350000000  0.4624210000000 1.0
C      1  0.4999560000000  0.5128680000000  0.5950560000000 1.0
C      1  0.5546830000000  0.4582330000000  0.5200510000000 1.0
C      1  0.4891630000000  0.4925930000000  0.5459730000000 1.0
C      1  0.5590640000000  0.5317360000000  0.5604450000000 1.0
C      1  0.5021120000000  0.4459740000000  0.4152440000000 1.0
C      1  0.4839110000000  0.5819020000000  0.4407370000000 1.0
C      1  0.4717420000000  0.4112120000000  0.5020770000000 1.0
C      1  0.5451860000000  0.4611760000000  0.4215150000000 1.0
C      1  0.4608850000000  0.4432060000000  0.5656780000000 1.0
C      1  0.4782530000000  0.4639340000000  0.5128270000000 1.0
C      1  0.5467480000000  0.5012150000000  0.5026020000000 1.0
C      1  0.4404840000000  0.4814720000000  0.4068090000000 1.0
C      1  0.4115470000000  0.4985350000000  0.4372330000000 1.0
C      1  0.4768340000000  0.4808850000000  0.4887220000000 1.0
C      1  0.5698190000000  0.4751080000000  0.4273040000000 1.0
C      1  0.4370120000000  0.5769520000000  0.4948980000000 1.0
C      1  0.5124190000000  0.5449160000000  0.4068570000000 1.0
C      1  0.4884430000000  0.4638770000000  0.4675960000000 1.0
C      1  0.5071570000000  0.4615450000000  0.5120190000000 1.0
C      1  0.4449250000000  0.4679830000000  0.5555560000000 1.0
C      1  0.5241230000000  0.5369520000000  0.4738550000000 1.0
C      1  0.5808470000000  0.5315520000000  0.5415080000000 1.0
C      1  0.5828990000000  0.5169800000000  0.4461490000000 1.0
C      1  0.4814140000000  0.5202360000000  0.5553420000000 1.0
C      1  0.4698520000000  0.5249340000000  0.3971730000000 1.0
C      1  0.5290280000000  0.4182220000000  0.5305210000000 1.0
C      1  0.4667130000000  0.4769770000000  0.3978270000000 1.0
C      1  0.5225020000000  0.5819140000000  0.4729110000000 1.0
C      1  0.5254700000000  0.4908320000000  0.4624660000000 1.0
C      1  0.4275370000000  0.4687370000000  0.4752820000000 1.0
C      1  0.4693740000000  0.5750950000000  0.5571900000000 1.0
C      1  0.4699060000000  0.5650700000000  0.4220020000000 1.0
C      1  0.5129970000000  0.5787340000000  0.4447890000000 1.0
C      1  0.5025800000000  0.4648580000000  0.5922990000000 1.0
C      1  0.5758580000000  0.4601580000000  0.4515600000000 1.0
C      1  0.4757860000000  0.5371380000000  0.4773940000000 1.0
C      1  0.5053630000000  0.4263210000000  0.4368450000000 1.0
C      1  0.6010830000000  0.4738010000000  0.5047830000000 1.0
C      1  0.4833020000000  0.4990630000000  0.3929560000000 1.0
C      1  0.4308390000000  0.5163090000000  0.5568730000000 1.0
C      1  0.5360310000000  0.4998600000000  0.5300740000000 1.0
C      1  0.4609860000000  0.5141220000000  0.4652090000000 1.0
C      1  0.4023370000000  0.5331870000000  0.4930050000000 1.0
C      1  0.4821740000000  0.5326770000000  0.5047660000000 1.0
C      1  0.4780450000000  0.4103720000000  0.5309180000000 1.0
C      1  0.5063540000000  0.4250240000000  0.5689840000000 1.0
C      1  0.4756240000000  0.4527480000000  0.4103560000000 1.0
C      1  0.4904750000000  0.4093000000000  0.4799650000000 1.0
C      1  0.5309010000000  0.5209100000000  0.5509390000000 1.0
C      1  0.5871460000000  0.5435890000000  0.4934390000000 1.0
C      1  0.5288360000000  0.4242210000000  0.4522340000000 1.0
C      1  0.4848540000000  0.5479610000000  0.4042460000000 1.0
C      1  0.4574030000000  0.5910070000000  0.5086870000000 1.0
C      1  0.5771360000000  0.4155070000000  0.5128810000000 1.0
C      1  0.4988480000000  0.5352600000000  0.4599490000000 1.0
C      1  0.5911070000000  0.4814580000000  0.5496540000000 1.0
C      1  0.5528530000000  0.5647360000000  0.5136310000000 1.0
C      1  0.5344980000000  0.5562570000000  0.5843820000000 1.0
C      1  0.5472010000000  0.4474510000000  0.4491890000000 1.0
C      1  0.5719780000000  0.5433630000000  0.4482090000000 1.0
END
