TITL C-21783-2244-3 162.982107891293 125000 -318.434650501313 0 0 49 (C1) n - 1
REM
REM in /rds/project/t2_vol4/rds-t2-cs072/BORA/CARBON/from-Arr/AIRSS/Generating-Clusters/GAP-ML-2020/Only-C1/SD-CG/HFTN-CG
REM
REM
REM
REM
REM
REM ./C.cell (11c1c37f851c82e70ff6c80c92926a4b)
REM AIRSS Version 0.9.1 bugfix July 2018 build 013d7b7c2542+ Fri, 06 Jul 2018 19:26:36 +0100
REM compiler GCC version 9.3.0
REM options -cpp -mtune=generic -march=x86-64 -g -O0
REM seed 1261510116 1849874612 -973405597 1119230461 -525413776 -312264701 -1560044486 1532771423 404245975 -266414230 308726712 1130961553 -2135521107 -466907244 791753776 436571081 -1306390064 897883251 -20649388 1729265431 450187004 826508583 477738666 1112541516 1451862265 -1456098593 246835114 -34019660 1580487563 -1156710001 642829310 -1697769809 -307547885
REM
CELL 1.54180   50.00000   50.00000   50.00000   90.00000   90.00000   90.00000
LATT -1
SFAC C  
C      1  0.5210160000000  0.4469900000000  0.4782170000000 1.0
C      1  0.4751160000000  0.4942300000000  0.5188860000000 1.0
C      1  0.5475460000000  0.5067030000000  0.5464620000000 1.0
C      1  0.4504410000000  0.5215790000000  0.4943220000000 1.0
C      1  0.5000130000000  0.5013780000000  0.4544200000000 1.0
C      1  0.5125620000000  0.4766930000000  0.4433360000000 1.0
C      1  0.5584140000000  0.5315020000000  0.4673430000000 1.0
C      1  0.5280450000000  0.5101740000000  0.5663130000000 1.0
C      1  0.4987670000000  0.4597620000000  0.5581290000000 1.0
C      1  0.5525420000000  0.5250950000000  0.5243040000000 1.0
C      1  0.5021550000000  0.4992540000000  0.5312410000000 1.0
C      1  0.5521820000000  0.4799480000000  0.4779420000000 1.0
C      1  0.5342160000000  0.4657330000000  0.4616990000000 1.0
C      1  0.5651540000000  0.5067470000000  0.4784340000000 1.0
C      1  0.5489630000000  0.4840310000000  0.5083420000000 1.0
C      1  0.4717900000000  0.4607740000000  0.5481090000000 1.0
C      1  0.4788260000000  0.4512490000000  0.4609070000000 1.0
C      1  0.4768620000000  0.5597220000000  0.5055680000000 1.0
C      1  0.4696750000000  0.5594980000000  0.4783120000000 1.0
C      1  0.4966610000000  0.5382460000000  0.5117980000000 1.0
C      1  0.4598520000000  0.4678970000000  0.4748070000000 1.0
C      1  0.4530350000000  0.4824290000000  0.5545690000000 1.0
C      1  0.4519860000000  0.4872280000000  0.4577740000000 1.0
C      1  0.4803080000000  0.5146200000000  0.4979880000000 1.0
C      1  0.4924300000000  0.4585250000000  0.4379890000000 1.0
C      1  0.4442650000000  0.5260810000000  0.5229580000000 1.0
C      1  0.5008470000000  0.4933790000000  0.4854100000000 1.0
C      1  0.5275400000000  0.5325510000000  0.5066950000000 1.0
C      1  0.5087400000000  0.4877150000000  0.5590690000000 1.0
C      1  0.5332340000000  0.5413820000000  0.4566390000000 1.0
C      1  0.5127760000000  0.5326460000000  0.5620830000000 1.0
C      1  0.4843670000000  0.5470160000000  0.4555750000000 1.0
C      1  0.5075040000000  0.5306020000000  0.4519710000000 1.0
C      1  0.5403550000000  0.5453450000000  0.4836000000000 1.0
C      1  0.5083330000000  0.4637940000000  0.4979720000000 1.0
C      1  0.4539390000000  0.5511880000000  0.5219250000000 1.0
C      1  0.4616880000000  0.4691070000000  0.5039860000000 1.0
C      1  0.5466480000000  0.4791770000000  0.5373660000000 1.0
C      1  0.4665450000000  0.4481880000000  0.5226710000000 1.0
C      1  0.5673830000000  0.5076040000000  0.5065960000000 1.0
C      1  0.4982300000000  0.5281910000000  0.5393620000000 1.0
C      1  0.4942380000000  0.4351310000000  0.4785330000000 1.0
C      1  0.4881340000000  0.4438250000000  0.5054480000000 1.0
C      1  0.5206660000000  0.5016530000000  0.5060260000000 1.0
C      1  0.5249470000000  0.4648960000000  0.5505580000000 1.0
C      1  0.4529870000000  0.5028650000000  0.5375340000000 1.0
C      1  0.4695680000000  0.5051160000000  0.4480730000000 1.0
C      1  0.4474030000000  0.5411720000000  0.4732010000000 1.0
C      1  0.4611070000000  0.5313710000000  0.4495370000000 1.0
END
