TITL C-211912-465-3 -0.053434618876997 125000 -402.760740170783 0 0 59 (C1) n - 1
REM
REM in /rds/project/t2_vol4/rds-t2-cs072/BORA/CARBON/from-Arr/AIRSS/Generating-Clusters/GAP-ML-2020/Only-C1/SD-CG/HFTN-CG
REM
REM
REM
REM
REM
REM ./C.cell (11c1c37f851c82e70ff6c80c92926a4b)
REM AIRSS Version 0.9.1 bugfix July 2018 build 013d7b7c2542+ Fri, 06 Jul 2018 19:26:36 +0100
REM compiler GCC version 9.3.0
REM options -cpp -mtune=generic -march=x86-64 -g -O0
REM seed -1149873836 389528691 -1152954335 -1744553213 726431570 -1279503960 -1553667284 -533880702 908984634 -1476280396 642072325 413638730 -1686476672 2057561003 -284509213 456906863 -1607523343 -544252387 1122240742 2009556509 1631873790 1729708776 1729750109 -115842557 771082022 969739836 -1792021920 979913295 -1037825888 1094695220 -355528603 -1392427242 625502502
REM
CELL 1.54180   50.00000   50.00000   50.00000   90.00000   90.00000   90.00000
LATT -1
SFAC C  
C      1  0.4633140000000  0.4409580000000  0.4852960000000 1.0
C      1  0.5340750000000  0.4427080000000  0.4793620000000 1.0
C      1  0.4631440000000  0.5103020000000  0.4501480000000 1.0
C      1  0.5186720000000  0.5264750000000  0.5175670000000 1.0
C      1  0.4536110000000  0.4964110000000  0.5560310000000 1.0
C      1  0.4708940000000  0.4750250000000  0.5666450000000 1.0
C      1  0.4613200000000  0.4562740000000  0.5466600000000 1.0
C      1  0.4554980000000  0.5308350000000  0.5046190000000 1.0
C      1  0.4477620000000  0.4966410000000  0.4691060000000 1.0
C      1  0.5038120000000  0.4952990000000  0.4297630000000 1.0
C      1  0.5545250000000  0.4558010000000  0.4679870000000 1.0
C      1  0.5443770000000  0.4847570000000  0.4687990000000 1.0
C      1  0.4882630000000  0.5699060000000  0.4992350000000 1.0
C      1  0.5396730000000  0.5213800000000  0.5410980000000 1.0
C      1  0.4416080000000  0.4765840000000  0.5381010000000 1.0
C      1  0.4884600000000  0.4437270000000  0.5020240000000 1.0
C      1  0.4400810000000  0.4694490000000  0.4663890000000 1.0
C      1  0.4538240000000  0.5022830000000  0.4973250000000 1.0
C      1  0.4860700000000  0.5592130000000  0.5271670000000 1.0
C      1  0.5152810000000  0.4614480000000  0.5587670000000 1.0
C      1  0.5345050000000  0.4608970000000  0.5363750000000 1.0
C      1  0.4397280000000  0.4574460000000  0.4930660000000 1.0
C      1  0.5128430000000  0.5532590000000  0.5351350000000 1.0
C      1  0.4993090000000  0.5138870000000  0.4809250000000 1.0
C      1  0.4805210000000  0.5309260000000  0.4619840000000 1.0
C      1  0.4391890000000  0.4801250000000  0.5108700000000 1.0
C      1  0.5655350000000  0.5383450000000  0.4893580000000 1.0
C      1  0.4981150000000  0.5114660000000  0.5563100000000 1.0
C      1  0.4695130000000  0.5191930000000  0.5511030000000 1.0
C      1  0.5036250000000  0.5024740000000  0.5241390000000 1.0
C      1  0.4870940000000  0.4962220000000  0.4993560000000 1.0
C      1  0.5315350000000  0.5646070000000  0.5144810000000 1.0
C      1  0.4771000000000  0.4637970000000  0.4391230000000 1.0
C      1  0.5265970000000  0.4344810000000  0.5271550000000 1.0
C      1  0.4979320000000  0.4831370000000  0.5673040000000 1.0
C      1  0.4751160000000  0.4924610000000  0.4321080000000 1.0
C      1  0.5249500000000  0.4809250000000  0.5156170000000 1.0
C      1  0.4663950000000  0.5384210000000  0.5297980000000 1.0
C      1  0.5624970000000  0.5294690000000  0.5294730000000 1.0
C      1  0.4603480000000  0.4513450000000  0.4571000000000 1.0
C      1  0.5571390000000  0.5530240000000  0.5125880000000 1.0
C      1  0.5444540000000  0.5347080000000  0.4704540000000 1.0
C      1  0.4651480000000  0.5476490000000  0.4818960000000 1.0
C      1  0.5054590000000  0.5403180000000  0.4487600000000 1.0
C      1  0.5055150000000  0.4685780000000  0.4412800000000 1.0
C      1  0.5434550000000  0.4960620000000  0.4969380000000 1.0
C      1  0.5233740000000  0.5546240000000  0.4657630000000 1.0
C      1  0.5020910000000  0.4705040000000  0.4944740000000 1.0
C      1  0.4809920000000  0.4421530000000  0.5315040000000 1.0
C      1  0.4656040000000  0.5756080000000  0.4842560000000 1.0
C      1  0.5175420000000  0.4676700000000  0.4685520000000 1.0
C      1  0.5190110000000  0.5166500000000  0.4379730000000 1.0
C      1  0.5256770000000  0.5198190000000  0.4903050000000 1.0
C      1  0.5183900000000  0.4305310000000  0.5007670000000 1.0
C      1  0.5158040000000  0.5684160000000  0.4902550000000 1.0
C      1  0.5190900000000  0.5330740000000  0.5567670000000 1.0
C      1  0.5048760000000  0.4377490000000  0.5466180000000 1.0
C      1  0.5668470000000  0.5139520000000  0.5054570000000 1.0
C      1  0.5428210000000  0.5105490000000  0.4525260000000 1.0
END
