TITL C-21784-2032-7 -0.656598927079551 125000 -361.053142325775 0 0 52 (C1) n - 1
REM
REM in /rds/project/t2_vol4/rds-t2-cs072/BORA/CARBON/from-Arr/AIRSS/Generating-Clusters/GAP-ML-2020/Only-C1/SD-CG/HFTN-CG
REM
REM
REM
REM
REM
REM ./C.cell (11c1c37f851c82e70ff6c80c92926a4b)
REM AIRSS Version 0.9.1 bugfix July 2018 build 013d7b7c2542+ Fri, 06 Jul 2018 19:26:36 +0100
REM compiler GCC version 9.3.0
REM options -cpp -mtune=generic -march=x86-64 -g -O0
REM seed -1836629016 2119432075 564664854 -154032710 -403411091 1379782560 -1963512446 1127771226 -1573786491 38637237 1845069759 -1562261553 -475820946 -153074791 2023230196 -746117843 -1486926751 837027498 442710132 1906062433 -1280853378 770845394 -567471992 1614953838 1511031606 974335296 -291404682 -730228537 1583638851 881924181 -1270352592 732004380 1981787290
REM
CELL 1.54180   50.00000   50.00000   50.00000   90.00000   90.00000   90.00000
LATT -1
SFAC C  
C      1  0.4564860000000  0.5095360000000  0.5502980000000 1.0
C      1  0.4853630000000  0.4928800000000  0.5163430000000 1.0
C      1  0.5259560000000  0.5434270000000  0.5322600000000 1.0
C      1  0.5285270000000  0.4568820000000  0.4653100000000 1.0
C      1  0.4528700000000  0.5300010000000  0.5301370000000 1.0
C      1  0.5584550000000  0.4966380000000  0.4691740000000 1.0
C      1  0.4811340000000  0.5246170000000  0.4406030000000 1.0
C      1  0.5562220000000  0.4921490000000  0.4977650000000 1.0
C      1  0.4926800000000  0.5615510000000  0.4793580000000 1.0
C      1  0.5087290000000  0.5038190000000  0.4782300000000 1.0
C      1  0.4793920000000  0.4960320000000  0.4346890000000 1.0
C      1  0.4438560000000  0.4863490000000  0.5396190000000 1.0
C      1  0.5306460000000  0.5195660000000  0.4383920000000 1.0
C      1  0.4802870000000  0.4533400000000  0.4717810000000 1.0
C      1  0.5104430000000  0.4473120000000  0.5115110000000 1.0
C      1  0.4789640000000  0.4597370000000  0.5572790000000 1.0
C      1  0.4598520000000  0.4520620000000  0.5132740000000 1.0
C      1  0.4416250000000  0.5187420000000  0.5062460000000 1.0
C      1  0.4565650000000  0.4708220000000  0.4701660000000 1.0
C      1  0.4366180000000  0.4916900000000  0.5122550000000 1.0
C      1  0.4565630000000  0.4926560000000  0.4523280000000 1.0
C      1  0.4989490000000  0.5290310000000  0.5601490000000 1.0
C      1  0.5266950000000  0.5053800000000  0.5008410000000 1.0
C      1  0.5280440000000  0.5273420000000  0.5566580000000 1.0
C      1  0.5624830000000  0.5144490000000  0.5164240000000 1.0
C      1  0.4848390000000  0.5012770000000  0.4898480000000 1.0
C      1  0.5273340000000  0.4916940000000  0.4343380000000 1.0
C      1  0.5493700000000  0.5229220000000  0.4604030000000 1.0
C      1  0.5219980000000  0.4782010000000  0.5569180000000 1.0
C      1  0.5125060000000  0.4937750000000  0.5234930000000 1.0
C      1  0.4970010000000  0.5475940000000  0.5378220000000 1.0
C      1  0.5318660000000  0.4506750000000  0.4923270000000 1.0
C      1  0.5254960000000  0.4658790000000  0.5304830000000 1.0
C      1  0.5402770000000  0.5336960000000  0.5077120000000 1.0
C      1  0.5013240000000  0.4794490000000  0.4350050000000 1.0
C      1  0.4731880000000  0.5484950000000  0.5226430000000 1.0
C      1  0.5073480000000  0.5360370000000  0.4426080000000 1.0
C      1  0.4569000000000  0.5218590000000  0.4575480000000 1.0
C      1  0.4576620000000  0.4611800000000  0.5408720000000 1.0
C      1  0.4943090000000  0.4805070000000  0.5655260000000 1.0
C      1  0.4518580000000  0.5326160000000  0.4831120000000 1.0
C      1  0.5481830000000  0.4664340000000  0.5100320000000 1.0
C      1  0.5401640000000  0.5010260000000  0.5604150000000 1.0
C      1  0.4817600000000  0.5071480000000  0.5638820000000 1.0
C      1  0.5576280000000  0.5049900000000  0.5408740000000 1.0
C      1  0.4455000000000  0.4702530000000  0.4964510000000 1.0
C      1  0.4843720000000  0.4459880000000  0.5000010000000 1.0
C      1  0.5019290000000  0.4577250000000  0.4544730000000 1.0
C      1  0.5398080000000  0.5427300000000  0.4785210000000 1.0
C      1  0.5436790000000  0.4781260000000  0.4535900000000 1.0
C      1  0.5143520000000  0.5520500000000  0.4663970000000 1.0
C      1  0.4719420000000  0.5516610000000  0.4936180000000 1.0
END
