TITL C-21848-6202-7 0.0817259353463555 125000 -618.544801564351 0 0 92 (C1) n - 1
REM
REM in /rds/project/t2_vol4/rds-t2-cs072/BORA/CARBON/from-Arr/AIRSS/Generating-Clusters/GAP-ML-2020/Only-C1/SD-CG/HFTN-CG
REM
REM
REM
REM
REM
REM ./C.cell (11c1c37f851c82e70ff6c80c92926a4b)
REM AIRSS Version 0.9.1 bugfix July 2018 build 013d7b7c2542+ Fri, 06 Jul 2018 19:26:36 +0100
REM compiler GCC version 9.3.0
REM options -cpp -mtune=generic -march=x86-64 -g -O0
REM seed -1526683889 1329735401 1466686234 -2041472491 2004281398 -360380255 798537593 -1374341467 1978138469 -457422381 1090569688 2022949366 -206054002 890047563 1534531697 2116192505 -155304588 109734903 -602067756 -1518122508 1177424919 16395372 284943054 1220853323 35822652 424901739 -1404838580 -1483847178 1007024635 -468277924 -1876462112 -1864921357 1835950059
REM
CELL 1.54180   50.00000   50.00000   50.00000   90.00000   90.00000   90.00000
LATT -1
SFAC C  
C      1  0.4601120000000  0.4941310000000  0.5646420000000 1.0
C      1  0.4386440000000  0.4320770000000  0.4962300000000 1.0
C      1  0.5831090000000  0.5251370000000  0.4947550000000 1.0
C      1  0.5287880000000  0.5178460000000  0.4601530000000 1.0
C      1  0.5499410000000  0.4337760000000  0.4635430000000 1.0
C      1  0.5088380000000  0.4852150000000  0.5697710000000 1.0
C      1  0.4453750000000  0.5513270000000  0.4838920000000 1.0
C      1  0.4389200000000  0.4615600000000  0.4597810000000 1.0
C      1  0.5628070000000  0.4603130000000  0.4634500000000 1.0
C      1  0.4816560000000  0.5744090000000  0.4638310000000 1.0
C      1  0.5525780000000  0.5026050000000  0.5674840000000 1.0
C      1  0.5715160000000  0.4715360000000  0.4884690000000 1.0
C      1  0.4997980000000  0.5107860000000  0.4902870000000 1.0
C      1  0.4835040000000  0.4536870000000  0.5544540000000 1.0
C      1  0.4705320000000  0.4207140000000  0.4723900000000 1.0
C      1  0.4182290000000  0.5008740000000  0.5379720000000 1.0
C      1  0.4314550000000  0.5199830000000  0.5223460000000 1.0
C      1  0.4718320000000  0.4810740000000  0.4218440000000 1.0
C      1  0.4919410000000  0.4773040000000  0.4590360000000 1.0
C      1  0.5456000000000  0.4665840000000  0.4387470000000 1.0
C      1  0.5263130000000  0.5108820000000  0.4319550000000 1.0
C      1  0.5294060000000  0.5566050000000  0.4418110000000 1.0
C      1  0.5282370000000  0.4366400000000  0.5375330000000 1.0
C      1  0.4579650000000  0.5080770000000  0.5137120000000 1.0
C      1  0.5645740000000  0.4924530000000  0.5440420000000 1.0
C      1  0.5278120000000  0.5714170000000  0.5514490000000 1.0
C      1  0.5065900000000  0.4394580000000  0.4380810000000 1.0
C      1  0.4815450000000  0.5818400000000  0.4904570000000 1.0
C      1  0.4954690000000  0.4256140000000  0.4612630000000 1.0
C      1  0.4966620000000  0.5381840000000  0.4960270000000 1.0
C      1  0.4452080000000  0.5372820000000  0.5431400000000 1.0
C      1  0.4708780000000  0.4957020000000  0.5375570000000 1.0
C      1  0.5082500000000  0.4685280000000  0.4822610000000 1.0
C      1  0.4467310000000  0.4802680000000  0.4384920000000 1.0
C      1  0.4747500000000  0.4230710000000  0.5280770000000 1.0
C      1  0.4585660000000  0.4421650000000  0.5433340000000 1.0
C      1  0.5353330000000  0.4780920000000  0.5730140000000 1.0
C      1  0.5171140000000  0.5365780000000  0.4232560000000 1.0
C      1  0.4637820000000  0.4182430000000  0.5021720000000 1.0
C      1  0.5458620000000  0.5300690000000  0.5599010000000 1.0
C      1  0.4885850000000  0.5280680000000  0.4234740000000 1.0
C      1  0.4787780000000  0.5297930000000  0.4518500000000 1.0
C      1  0.4775580000000  0.5058360000000  0.4117160000000 1.0
C      1  0.5608680000000  0.5435880000000  0.4841050000000 1.0
C      1  0.5426220000000  0.4555950000000  0.5542860000000 1.0
C      1  0.5055310000000  0.5713830000000  0.5352660000000 1.0
C      1  0.4347800000000  0.4771550000000  0.4847250000000 1.0
C      1  0.4908890000000  0.5383520000000  0.5610490000000 1.0
C      1  0.4305480000000  0.4564970000000  0.5073190000000 1.0
C      1  0.4776390000000  0.5299270000000  0.5158700000000 1.0
C      1  0.5344120000000  0.4399450000000  0.4397260000000 1.0
C      1  0.4865360000000  0.4710490000000  0.5018050000000 1.0
C      1  0.5115390000000  0.4940770000000  0.5409580000000 1.0
C      1  0.5233370000000  0.5461200000000  0.5650880000000 1.0
C      1  0.4980620000000  0.4680290000000  0.4318650000000 1.0
C      1  0.4618200000000  0.5556790000000  0.5291310000000 1.0
C      1  0.5654610000000  0.4547560000000  0.5127330000000 1.0
C      1  0.4826210000000  0.4756610000000  0.5741120000000 1.0
C      1  0.5250110000000  0.4831580000000  0.4273950000000 1.0
C      1  0.4826620000000  0.5628260000000  0.5471350000000 1.0
C      1  0.5483350000000  0.5406360000000  0.4597160000000 1.0
C      1  0.4296720000000  0.5283050000000  0.4920100000000 1.0
C      1  0.5422330000000  0.5377960000000  0.5076850000000 1.0
C      1  0.5654080000000  0.4645660000000  0.5393240000000 1.0
C      1  0.5243570000000  0.4973790000000  0.4834800000000 1.0
C      1  0.5849550000000  0.5375190000000  0.5199690000000 1.0
C      1  0.4449610000000  0.4348300000000  0.4676240000000 1.0
C      1  0.5453490000000  0.4344860000000  0.5130760000000 1.0
C      1  0.5039400000000  0.5381710000000  0.4664780000000 1.0
C      1  0.4633570000000  0.4890900000000  0.4920890000000 1.0
C      1  0.5161600000000  0.5546440000000  0.5091400000000 1.0
C      1  0.5488080000000  0.5750780000000  0.5319890000000 1.0
C      1  0.4341420000000  0.5032470000000  0.4484560000000 1.0
C      1  0.4342180000000  0.4826310000000  0.5514160000000 1.0
C      1  0.4257110000000  0.5057060000000  0.4745140000000 1.0
C      1  0.5112160000000  0.5681180000000  0.4617800000000 1.0
C      1  0.4999040000000  0.4315960000000  0.5419270000000 1.0
C      1  0.4374020000000  0.4590450000000  0.5352720000000 1.0
C      1  0.5381100000000  0.4940290000000  0.5287400000000 1.0
C      1  0.4931630000000  0.5184130000000  0.5395350000000 1.0
C      1  0.4908490000000  0.4753780000000  0.5299890000000 1.0
C      1  0.4619600000000  0.5246740000000  0.5634230000000 1.0
C      1  0.4622770000000  0.5530210000000  0.4607890000000 1.0
C      1  0.5712210000000  0.4996070000000  0.4945040000000 1.0
C      1  0.5384980000000  0.5876640000000  0.5078430000000 1.0
C      1  0.5129220000000  0.4372380000000  0.4813430000000 1.0
C      1  0.4583240000000  0.5695940000000  0.5032690000000 1.0
C      1  0.5377550000000  0.4257540000000  0.4872970000000 1.0
C      1  0.5597520000000  0.5450350000000  0.5322630000000 1.0
C      1  0.5167760000000  0.5790060000000  0.4911760000000 1.0
C      1  0.5432740000000  0.5063550000000  0.5043630000000 1.0
C      1  0.4795130000000  0.5017910000000  0.4693020000000 1.0
END
