TITL C-2109088-1588-22 119.406296844211 125000 -439.471476216098 0 0 64 (C1) n - 1
REM
REM in /nfs/bkarasulu/CARBON/AIRSS/Generating-Clusters/GAP-ML-2020/Only-C1/SD-CG/HFTN-CG
REM
REM
REM
REM
REM
REM ./C.cell (11c1c37f851c82e70ff6c80c92926a4b)
REM
REM compiler GCC version 9.2.1 20190827 (Red Hat 9.2.1-1)
REM options -cpp -mtune=generic -march=x86-64 -g -O0 -fpre-include=/usr/include/finclude/math-vector-fortran.h
REM seed -1852367208 52378531 -43187769 -275563764 -376062768 -1093041377 -1256144951 1525864719 -1570147867 -1436377940 -566444366 -1778274101 -1713143939 1672942690 -2091082328 1962350223 -267227185 -545759092 1507686841 -1789713137 1358472070 -1355827469 -663647085 1175200572 564565413 755564590 -1638685094 1856685126 -440563001 -305761478 446310940 988480103 -283189187
REM
CELL 1.54180   50.00000   50.00000   50.00000   90.00000   90.00000   90.00000
LATT -1
SFAC C  
C      1  0.5123260000000  0.5050040000000  0.4971100000000 1.0
C      1  0.5113830000000  0.4790790000000  0.4464120000000 1.0
C      1  0.4655470000000  0.4413000000000  0.4892490000000 1.0
C      1  0.4376020000000  0.5364410000000  0.5084040000000 1.0
C      1  0.5001230000000  0.5882140000000  0.4696540000000 1.0
C      1  0.5570220000000  0.5326830000000  0.5237250000000 1.0
C      1  0.4665090000000  0.5073550000000  0.5395110000000 1.0
C      1  0.4319580000000  0.4902040000000  0.5008740000000 1.0
C      1  0.4831900000000  0.4210310000000  0.4938090000000 1.0
C      1  0.4771550000000  0.5013720000000  0.5656180000000 1.0
C      1  0.4750390000000  0.4880660000000  0.5201440000000 1.0
C      1  0.4992640000000  0.5170910000000  0.4740930000000 1.0
C      1  0.5347950000000  0.4628940000000  0.4528030000000 1.0
C      1  0.4266850000000  0.5183250000000  0.4637230000000 1.0
C      1  0.4644480000000  0.4444930000000  0.5399680000000 1.0
C      1  0.4495950000000  0.5583110000000  0.4940970000000 1.0
C      1  0.5716810000000  0.5134550000000  0.5077540000000 1.0
C      1  0.5162390000000  0.5321970000000  0.5514970000000 1.0
C      1  0.5122280000000  0.4628970000000  0.5454780000000 1.0
C      1  0.5037370000000  0.5501300000000  0.5331060000000 1.0
C      1  0.5591240000000  0.5050630000000  0.4604590000000 1.0
C      1  0.4688650000000  0.5435200000000  0.4800230000000 1.0
C      1  0.4757850000000  0.5552290000000  0.5291810000000 1.0
C      1  0.4967890000000  0.4671610000000  0.5194290000000 1.0
C      1  0.5689310000000  0.5219370000000  0.4807380000000 1.0
C      1  0.5561670000000  0.4764520000000  0.4663840000000 1.0
C      1  0.4671610000000  0.4911620000000  0.4325410000000 1.0
C      1  0.5163570000000  0.5545300000000  0.5083160000000 1.0
C      1  0.4944500000000  0.4944560000000  0.4289300000000 1.0
C      1  0.4844710000000  0.5874980000000  0.4904410000000 1.0
C      1  0.5705440000000  0.4858330000000  0.5133250000000 1.0
C      1  0.5112440000000  0.4782830000000  0.4965330000000 1.0
C      1  0.4799120000000  0.4416330000000  0.5155150000000 1.0
C      1  0.4576780000000  0.5325670000000  0.5294540000000 1.0
C      1  0.5118650000000  0.5106270000000  0.4465750000000 1.0
C      1  0.5040030000000  0.5097390000000  0.5650740000000 1.0
C      1  0.5411010000000  0.4549850000000  0.5347210000000 1.0
C      1  0.4378920000000  0.4551700000000  0.5353750000000 1.0
C      1  0.4243200000000  0.4695040000000  0.5182510000000 1.0
C      1  0.5384150000000  0.5497060000000  0.4572610000000 1.0
C      1  0.5090710000000  0.4179470000000  0.4821550000000 1.0
C      1  0.5134600000000  0.5645060000000  0.4619210000000 1.0
C      1  0.5440270000000  0.5508340000000  0.5059720000000 1.0
C      1  0.5552060000000  0.5474320000000  0.4798690000000 1.0
C      1  0.4611430000000  0.4895040000000  0.4950700000000 1.0
C      1  0.5435380000000  0.5244310000000  0.5466040000000 1.0
C      1  0.4839900000000  0.4555610000000  0.5589520000000 1.0
C      1  0.4679060000000  0.5752200000000  0.5090070000000 1.0
C      1  0.4747010000000  0.4751900000000  0.5745850000000 1.0
C      1  0.4989100000000  0.5465650000000  0.4809580000000 1.0
C      1  0.5632420000000  0.4668160000000  0.4931830000000 1.0
C      1  0.5180630000000  0.4431170000000  0.4680480000000 1.0
C      1  0.5583960000000  0.4774910000000  0.5380210000000 1.0
C      1  0.5313280000000  0.4308880000000  0.4912770000000 1.0
C      1  0.5383170000000  0.5224600000000  0.4465400000000 1.0
C      1  0.4981790000000  0.4666900000000  0.4713310000000 1.0
C      1  0.5462290000000  0.4970620000000  0.5536930000000 1.0
C      1  0.4541230000000  0.4766110000000  0.4511510000000 1.0
C      1  0.5211100000000  0.4872070000000  0.5615530000000 1.0
C      1  0.4680270000000  0.4668400000000  0.4755920000000 1.0
C      1  0.5475080000000  0.4460060000000  0.5076020000000 1.0
C      1  0.4486260000000  0.5053300000000  0.4532220000000 1.0
C      1  0.4247380000000  0.5164260000000  0.4922430000000 1.0
C      1  0.4685620000000  0.5142650000000  0.4758970000000 1.0
END
