TITL C-21826-6845-11 0.444889606408995 125000 -123.817030453194 0 0 19 (C1) n - 1
REM
REM in /rds/project/t2_vol4/rds-t2-cs072/BORA/CARBON/from-Arr/AIRSS/Generating-Clusters/GAP-ML-2020/Only-C1/SD-CG/HFTN-CG
REM
REM
REM
REM
REM
REM ./C.cell (11c1c37f851c82e70ff6c80c92926a4b)
REM AIRSS Version 0.9.1 bugfix July 2018 build 013d7b7c2542+ Fri, 06 Jul 2018 19:26:36 +0100
REM compiler GCC version 9.3.0
REM options -cpp -mtune=generic -march=x86-64 -g -O0
REM seed 1035165834 707477047 -290456541 841691560 1429453429 -184438822 1294278126 -2052034594 -813730518 -1468291362 -955560464 974771188 -649773690 -851200582 1740044678 -2016367287 205133543 -917004547 299971583 520030268 -1594643875 -751224348 1046068224 810122226 -1827902129 -1215633035 -1355643428 -1181652013 797433196 -325502132 1194960769 89282040 1066346674
REM
CELL 1.54180   50.00000   50.00000   50.00000   90.00000   90.00000   90.00000
LATT -1
SFAC C  
C      1  0.4452650000000  0.4975840000000  0.5110660000000 1.0
C      1  0.4681690000000  0.4822230000000  0.5163230000000 1.0
C      1  0.5064210000000  0.4767220000000  0.4880780000000 1.0
C      1  0.5648460000000  0.5195410000000  0.5320690000000 1.0
C      1  0.5284480000000  0.4984280000000  0.5564080000000 1.0
C      1  0.5222790000000  0.4960590000000  0.4727120000000 1.0
C      1  0.5222830000000  0.4814770000000  0.5112930000000 1.0
C      1  0.4435340000000  0.5264640000000  0.4700220000000 1.0
C      1  0.5613600000000  0.5139990000000  0.5065200000000 1.0
C      1  0.5110130000000  0.4855900000000  0.5378740000000 1.0
C      1  0.4609600000000  0.4798130000000  0.4700560000000 1.0
C      1  0.5412460000000  0.4983640000000  0.4968210000000 1.0
C      1  0.4656770000000  0.5318500000000  0.4579250000000 1.0
C      1  0.5097670000000  0.5142560000000  0.4580440000000 1.0
C      1  0.4832700000000  0.4819190000000  0.5389300000000 1.0
C      1  0.5497790000000  0.5119890000000  0.5523260000000 1.0
C      1  0.4791220000000  0.4737120000000  0.4901150000000 1.0
C      1  0.4466320000000  0.5018830000000  0.4832130000000 1.0
C      1  0.4899290000000  0.5281280000000  0.4502030000000 1.0
END
