TITL C-21791-4437-6 -0.0181731535210577 125000 -406.163816149621 0 0 60 (C1) n - 1
REM
REM in /rds/project/t2_vol4/rds-t2-cs072/BORA/CARBON/from-Arr/AIRSS/Generating-Clusters/GAP-ML-2020/Only-C1/SD-CG/HFTN-CG
REM
REM
REM
REM
REM
REM ./C.cell (11c1c37f851c82e70ff6c80c92926a4b)
REM AIRSS Version 0.9.1 bugfix July 2018 build 013d7b7c2542+ Fri, 06 Jul 2018 19:26:36 +0100
REM compiler GCC version 9.3.0
REM options -cpp -mtune=generic -march=x86-64 -g -O0
REM seed -786524418 925476111 -398239258 -509226026 1851193578 -55215259 -771249891 -1932596208 -305758818 -2060206769 -580540991 411692086 -489763957 -1455460603 535645512 -1451924950 -1162819387 85115303 647820398 -176712158 -363070535 -631967310 -513313353 -84495444 1587363817 -1320504688 2132637907 -1508545625 -1691564986 -1268860824 1599967418 -285043522 1431962310
REM
CELL 1.54180   50.00000   50.00000   50.00000   90.00000   90.00000   90.00000
LATT -1
SFAC C  
C      1  0.5119930000000  0.5102740000000  0.4321930000000 1.0
C      1  0.4640970000000  0.4968210000000  0.4346710000000 1.0
C      1  0.5251400000000  0.4698580000000  0.5489620000000 1.0
C      1  0.4792840000000  0.5098240000000  0.5077540000000 1.0
C      1  0.5712140000000  0.5107660000000  0.4667280000000 1.0
C      1  0.4844160000000  0.4340130000000  0.4854450000000 1.0
C      1  0.5392100000000  0.5028110000000  0.4347860000000 1.0
C      1  0.5222280000000  0.4424360000000  0.5481890000000 1.0
C      1  0.5634630000000  0.4843630000000  0.4692340000000 1.0
C      1  0.5620380000000  0.4895040000000  0.5164540000000 1.0
C      1  0.4811810000000  0.4520330000000  0.4632320000000 1.0
C      1  0.5106470000000  0.5364910000000  0.4452670000000 1.0
C      1  0.5254450000000  0.5177530000000  0.5011330000000 1.0
C      1  0.5311590000000  0.4487560000000  0.4781060000000 1.0
C      1  0.4339550000000  0.4962960000000  0.5104870000000 1.0
C      1  0.5458460000000  0.5308540000000  0.5403030000000 1.0
C      1  0.4830980000000  0.5563940000000  0.4837900000000 1.0
C      1  0.4995830000000  0.4639650000000  0.4448190000000 1.0
C      1  0.4911620000000  0.4897060000000  0.4331960000000 1.0
C      1  0.5269770000000  0.5524190000000  0.5353140000000 1.0
C      1  0.5008200000000  0.5049210000000  0.5734630000000 1.0
C      1  0.5164290000000  0.4965800000000  0.4809100000000 1.0
C      1  0.5269080000000  0.4930870000000  0.5666550000000 1.0
C      1  0.5268080000000  0.4590510000000  0.4509140000000 1.0
C      1  0.4872260000000  0.5440080000000  0.4582760000000 1.0
C      1  0.4411330000000  0.5417390000000  0.5062030000000 1.0
C      1  0.4670820000000  0.4753300000000  0.5436530000000 1.0
C      1  0.4654890000000  0.4727710000000  0.4796720000000 1.0
C      1  0.4806050000000  0.5620520000000  0.5304350000000 1.0
C      1  0.4462100000000  0.5112260000000  0.4496490000000 1.0
C      1  0.4812720000000  0.4916050000000  0.5897800000000 1.0
C      1  0.5317440000000  0.5443150000000  0.4892530000000 1.0
C      1  0.4244270000000  0.5204300000000  0.4979000000000 1.0
C      1  0.4379990000000  0.4833070000000  0.4846010000000 1.0
C      1  0.4944620000000  0.5691170000000  0.5060330000000 1.0
C      1  0.4573050000000  0.4982090000000  0.5280040000000 1.0
C      1  0.4918980000000  0.5220820000000  0.5515790000000 1.0
C      1  0.4696860000000  0.5212100000000  0.4651080000000 1.0
C      1  0.5258060000000  0.4724470000000  0.4957530000000 1.0
C      1  0.5237960000000  0.4237710000000  0.4869430000000 1.0
C      1  0.5046440000000  0.5085160000000  0.5229870000000 1.0
C      1  0.5512110000000  0.5141350000000  0.5170060000000 1.0
C      1  0.4263810000000  0.5048650000000  0.4700140000000 1.0
C      1  0.5111480000000  0.4781210000000  0.5236420000000 1.0
C      1  0.5560760000000  0.4738870000000  0.4942750000000 1.0
C      1  0.5462630000000  0.4783050000000  0.4462270000000 1.0
C      1  0.5009350000000  0.5500180000000  0.5471940000000 1.0
C      1  0.5343840000000  0.5421540000000  0.4604940000000 1.0
C      1  0.4850720000000  0.4975450000000  0.4811260000000 1.0
C      1  0.5034700000000  0.4212010000000  0.5045450000000 1.0
C      1  0.4685240000000  0.4787120000000  0.5714320000000 1.0
C      1  0.4624460000000  0.5229980000000  0.5440300000000 1.0
C      1  0.4854750000000  0.4589880000000  0.5261630000000 1.0
C      1  0.5029200000000  0.4340010000000  0.5305360000000 1.0
C      1  0.4655570000000  0.5344910000000  0.4927310000000 1.0
C      1  0.4554280000000  0.5468700000000  0.5310750000000 1.0
C      1  0.5229510000000  0.5626300000000  0.5089590000000 1.0
C      1  0.4715680000000  0.4528880000000  0.5015480000000 1.0
C      1  0.5432210000000  0.5136060000000  0.5607590000000 1.0
C      1  0.5530850000000  0.5234720000000  0.4504110000000 1.0
END
