TITL C-214956-5759-2 0.0719869315750994 125000 -646.466803797939 0 0 92 (C1) n - 1
REM
REM in /rds/project/t2_vol4/rds-t2-cs072/BORA/CARBON/from-Arr/AIRSS/Generating-Clusters/GAP-ML-2020/Only-C1/SD-CG/HFTN-CG
REM
REM
REM
REM
REM
REM ./C.cell (11c1c37f851c82e70ff6c80c92926a4b)
REM AIRSS Version 0.9.1 bugfix July 2018 build 013d7b7c2542+ Fri, 06 Jul 2018 19:26:36 +0100
REM compiler GCC version 9.3.0
REM options -cpp -mtune=generic -march=x86-64 -g -O0
REM seed -2118241000 977498422 1764795413 -1544953155 402838514 -492298593 -1722491156 1477970355 161812383 -735362996 -89499117 323363568 1685235825 1058485232 271465872 -1626881491 -516703263 -676967443 668105925 1009526294 -678964312 278297712 1281541001 795938296 -1973423317 247663952 -44013817 816912555 -1132577357 730937253 744032594 -1911731673 2037238378
REM
CELL 1.54180   50.00000   50.00000   50.00000   90.00000   90.00000   90.00000
LATT -1
SFAC C  
C      1  0.4294110000000  0.5058520000000  0.5554660000000 1.0
C      1  0.4841100000000  0.5742330000000  0.4794730000000 1.0
C      1  0.4510290000000  0.5259490000000  0.5557820000000 1.0
C      1  0.5667760000000  0.5346460000000  0.4609790000000 1.0
C      1  0.5600570000000  0.5569640000000  0.4789410000000 1.0
C      1  0.4875390000000  0.5266680000000  0.4898870000000 1.0
C      1  0.5314770000000  0.5628960000000  0.4737480000000 1.0
C      1  0.4414970000000  0.4403000000000  0.4915020000000 1.0
C      1  0.4806010000000  0.4550220000000  0.4325100000000 1.0
C      1  0.4861500000000  0.4941050000000  0.5322620000000 1.0
C      1  0.4390840000000  0.5484910000000  0.4841210000000 1.0
C      1  0.4427340000000  0.5461600000000  0.5378090000000 1.0
C      1  0.5574700000000  0.4791310000000  0.4462720000000 1.0
C      1  0.4710950000000  0.4856880000000  0.5087020000000 1.0
C      1  0.5038390000000  0.4234560000000  0.5102100000000 1.0
C      1  0.4932950000000  0.4218850000000  0.4825140000000 1.0
C      1  0.5315120000000  0.4281040000000  0.5143180000000 1.0
C      1  0.5699920000000  0.5109640000000  0.4788980000000 1.0
C      1  0.5244400000000  0.4567150000000  0.4274820000000 1.0
C      1  0.5015480000000  0.5294380000000  0.4579460000000 1.0
C      1  0.5369330000000  0.5004800000000  0.4387010000000 1.0
C      1  0.4620190000000  0.4501020000000  0.4524710000000 1.0
C      1  0.4371480000000  0.4437170000000  0.5191610000000 1.0
C      1  0.4670350000000  0.5534920000000  0.4951750000000 1.0
C      1  0.5574600000000  0.5074270000000  0.5447630000000 1.0
C      1  0.4685970000000  0.4388730000000  0.4796160000000 1.0
C      1  0.4173900000000  0.5076070000000  0.4845600000000 1.0
C      1  0.5740010000000  0.5239550000000  0.5282030000000 1.0
C      1  0.5870510000000  0.4807970000000  0.5106040000000 1.0
C      1  0.4174690000000  0.5372320000000  0.5263850000000 1.0
C      1  0.4271510000000  0.4614270000000  0.4781990000000 1.0
C      1  0.4062120000000  0.5181150000000  0.5439400000000 1.0
C      1  0.4984310000000  0.4631720000000  0.5447990000000 1.0
C      1  0.4791340000000  0.5176070000000  0.5565620000000 1.0
C      1  0.4845240000000  0.5619760000000  0.5377310000000 1.0
C      1  0.5362740000000  0.5414210000000  0.4960240000000 1.0
C      1  0.4235140000000  0.4683660000000  0.5235710000000 1.0
C      1  0.4993450000000  0.4854720000000  0.5827980000000 1.0
C      1  0.4994580000000  0.4865440000000  0.4717700000000 1.0
C      1  0.4974860000000  0.5350860000000  0.5398790000000 1.0
C      1  0.4914400000000  0.5125860000000  0.5848140000000 1.0
C      1  0.4332400000000  0.4781650000000  0.5493400000000 1.0
C      1  0.5460140000000  0.5301270000000  0.4425050000000 1.0
C      1  0.5440550000000  0.4851950000000  0.5298370000000 1.0
C      1  0.5189770000000  0.5061160000000  0.4627320000000 1.0
C      1  0.4873020000000  0.4823960000000  0.4237620000000 1.0
C      1  0.4619690000000  0.5493890000000  0.4436330000000 1.0
C      1  0.5374890000000  0.5128110000000  0.4870800000000 1.0
C      1  0.4759980000000  0.5716760000000  0.4538500000000 1.0
C      1  0.4588920000000  0.4411440000000  0.5374080000000 1.0
C      1  0.5116840000000  0.5780190000000  0.4881980000000 1.0
C      1  0.5462640000000  0.4528600000000  0.4447010000000 1.0
C      1  0.5436740000000  0.4452440000000  0.5348050000000 1.0
C      1  0.4207570000000  0.5325560000000  0.4986800000000 1.0
C      1  0.4170170000000  0.4809270000000  0.4965610000000 1.0
C      1  0.5250000000000  0.4957490000000  0.5073190000000 1.0
C      1  0.4788210000000  0.5275250000000  0.4383340000000 1.0
C      1  0.5242600000000  0.5468010000000  0.4512610000000 1.0
C      1  0.5697150000000  0.4464940000000  0.4969960000000 1.0
C      1  0.4289010000000  0.5130430000000  0.4579500000000 1.0
C      1  0.4560680000000  0.4613110000000  0.5576880000000 1.0
C      1  0.5219070000000  0.5783290000000  0.5151180000000 1.0
C      1  0.5105690000000  0.4253660000000  0.4600610000000 1.0
C      1  0.5018330000000  0.5145790000000  0.5165500000000 1.0
C      1  0.5481810000000  0.4302220000000  0.4904960000000 1.0
C      1  0.5850680000000  0.4669580000000  0.4851200000000 1.0
C      1  0.4385060000000  0.5401350000000  0.4572610000000 1.0
C      1  0.4825890000000  0.4664160000000  0.5689450000000 1.0
C      1  0.5690010000000  0.5522780000000  0.5226590000000 1.0
C      1  0.5660670000000  0.4615220000000  0.5226360000000 1.0
C      1  0.4683030000000  0.5022670000000  0.4302660000000 1.0
C      1  0.5826630000000  0.5083950000000  0.5059730000000 1.0
C      1  0.5758080000000  0.4854480000000  0.4660060000000 1.0
C      1  0.5412330000000  0.5102550000000  0.5675350000000 1.0
C      1  0.5382600000000  0.4320160000000  0.4640590000000 1.0
C      1  0.4863390000000  0.4424430000000  0.5262340000000 1.0
C      1  0.4835470000000  0.4600480000000  0.5021620000000 1.0
C      1  0.5164460000000  0.4834160000000  0.4228780000000 1.0
C      1  0.5277000000000  0.4665870000000  0.5489190000000 1.0
C      1  0.5771670000000  0.5651550000000  0.4991010000000 1.0
C      1  0.5103220000000  0.4724520000000  0.4930660000000 1.0
C      1  0.5035340000000  0.4396100000000  0.4359170000000 1.0
C      1  0.4615880000000  0.5605600000000  0.5233170000000 1.0
C      1  0.5098190000000  0.5309130000000  0.5944470000000 1.0
C      1  0.4767070000000  0.5006010000000  0.4848410000000 1.0
C      1  0.4428950000000  0.4939260000000  0.4425260000000 1.0
C      1  0.4405130000000  0.4679180000000  0.4539750000000 1.0
C      1  0.5229830000000  0.5505370000000  0.5487350000000 1.0
C      1  0.5287800000000  0.5357790000000  0.5746030000000 1.0
C      1  0.5263660000000  0.4851710000000  0.5719760000000 1.0
C      1  0.5391150000000  0.5550760000000  0.5232800000000 1.0
C      1  0.5083700000000  0.5759570000000  0.5401540000000 1.0
END
