TITL C-21811-2997-4 -13.5977299295051 125000 -652.762831057731 0 0 94 (C1) n - 1
REM
REM in /rds/project/t2_vol4/rds-t2-cs072/BORA/CARBON/from-Arr/AIRSS/Generating-Clusters/GAP-ML-2020/Only-C1/SD-CG/HFTN-CG
REM
REM
REM
REM
REM
REM ./C.cell (11c1c37f851c82e70ff6c80c92926a4b)
REM AIRSS Version 0.9.1 bugfix July 2018 build 013d7b7c2542+ Fri, 06 Jul 2018 19:26:36 +0100
REM compiler GCC version 9.3.0
REM options -cpp -mtune=generic -march=x86-64 -g -O0
REM seed -1676300049 -241537263 1999045266 856042833 -1792225315 -841422504 749269312 -1846496394 1122870396 -1442234833 -335983962 1192621371 -925916538 -1140200902 -1170945002 -1476430067 -120005709 503969095 1433472105 198337251 1079628851 355708194 -816035404 1577446992 492731244 -2022697774 1145496243 1187735542 -727918896 61908728 865153653 1061065882 -1975170285
REM
CELL 1.54180   50.00000   50.00000   50.00000   90.00000   90.00000   90.00000
LATT -1
SFAC C  
C      1  0.4350560000000  0.4838880000000  0.4435050000000 1.0
C      1  0.5313000000000  0.5126860000000  0.4914830000000 1.0
C      1  0.5190480000000  0.5361460000000  0.5073930000000 1.0
C      1  0.5051920000000  0.4247380000000  0.4818070000000 1.0
C      1  0.5835200000000  0.5344550000000  0.5269780000000 1.0
C      1  0.5677580000000  0.4830660000000  0.4492300000000 1.0
C      1  0.5270300000000  0.4803720000000  0.4234220000000 1.0
C      1  0.5830940000000  0.5019520000000  0.4642680000000 1.0
C      1  0.4771260000000  0.4287530000000  0.5565110000000 1.0
C      1  0.4354630000000  0.4489960000000  0.4767670000000 1.0
C      1  0.5262420000000  0.4065880000000  0.4851640000000 1.0
C      1  0.4155760000000  0.4684710000000  0.5150880000000 1.0
C      1  0.5503390000000  0.5186540000000  0.5664530000000 1.0
C      1  0.4797900000000  0.5473940000000  0.4402670000000 1.0
C      1  0.5950280000000  0.5239370000000  0.5040590000000 1.0
C      1  0.4724930000000  0.5267470000000  0.4902270000000 1.0
C      1  0.5701330000000  0.5495750000000  0.4733940000000 1.0
C      1  0.4842270000000  0.4675290000000  0.4845530000000 1.0
C      1  0.5068890000000  0.5511820000000  0.4359560000000 1.0
C      1  0.5744470000000  0.5278970000000  0.4551610000000 1.0
C      1  0.5136020000000  0.4594340000000  0.5698390000000 1.0
C      1  0.4741370000000  0.5091930000000  0.4653460000000 1.0
C      1  0.4587860000000  0.5037000000000  0.5039200000000 1.0
C      1  0.5294760000000  0.4939580000000  0.5126760000000 1.0
C      1  0.4530930000000  0.5390770000000  0.5484540000000 1.0
C      1  0.4863160000000  0.4510760000000  0.5699680000000 1.0
C      1  0.5084550000000  0.5882670000000  0.4916330000000 1.0
C      1  0.5745980000000  0.4876970000000  0.5382720000000 1.0
C      1  0.4555390000000  0.5595340000000  0.5284130000000 1.0
C      1  0.4615050000000  0.4691920000000  0.5712910000000 1.0
C      1  0.4558870000000  0.4968580000000  0.5686030000000 1.0
C      1  0.5169530000000  0.5147660000000  0.5289620000000 1.0
C      1  0.4862830000000  0.4312040000000  0.4595920000000 1.0
C      1  0.5667970000000  0.4403230000000  0.4820030000000 1.0
C      1  0.4203380000000  0.5316830000000  0.5138250000000 1.0
C      1  0.4901290000000  0.4788440000000  0.5297950000000 1.0
C      1  0.4481700000000  0.5456420000000  0.4793860000000 1.0
C      1  0.5267220000000  0.5374850000000  0.5704390000000 1.0
C      1  0.4681620000000  0.5618400000000  0.4626940000000 1.0
C      1  0.5030960000000  0.5008670000000  0.5922370000000 1.0
C      1  0.4519320000000  0.4318790000000  0.5447540000000 1.0
C      1  0.4933400000000  0.4902780000000  0.4694100000000 1.0
C      1  0.5344770000000  0.5769990000000  0.4874770000000 1.0
C      1  0.4281170000000  0.4434810000000  0.5039700000000 1.0
C      1  0.4126920000000  0.5154150000000  0.4911970000000 1.0
C      1  0.4577530000000  0.4662820000000  0.4403640000000 1.0
C      1  0.5114550000000  0.4526740000000  0.4910350000000 1.0
C      1  0.5299260000000  0.4660260000000  0.4695840000000 1.0
C      1  0.5713400000000  0.5162710000000  0.5451360000000 1.0
C      1  0.5206660000000  0.4952690000000  0.4728080000000 1.0
C      1  0.4663610000000  0.5199880000000  0.4357050000000 1.0
C      1  0.4312090000000  0.4991830000000  0.5537330000000 1.0
C      1  0.4368580000000  0.5134950000000  0.4411960000000 1.0
C      1  0.5463030000000  0.5631060000000  0.4655830000000 1.0
C      1  0.5459280000000  0.4919650000000  0.5741360000000 1.0
C      1  0.5813010000000  0.5473790000000  0.4991470000000 1.0
C      1  0.5245240000000  0.5754740000000  0.5355290000000 1.0
C      1  0.4458610000000  0.4982790000000  0.4756850000000 1.0
C      1  0.4724580000000  0.4802670000000  0.5086800000000 1.0
C      1  0.5548630000000  0.4738420000000  0.5539510000000 1.0
C      1  0.5023740000000  0.5866870000000  0.5211520000000 1.0
C      1  0.4104550000000  0.4861810000000  0.4929220000000 1.0
C      1  0.4919640000000  0.5462420000000  0.4999050000000 1.0
C      1  0.4230740000000  0.4738120000000  0.5428900000000 1.0
C      1  0.4302220000000  0.5235900000000  0.4684630000000 1.0
C      1  0.5497100000000  0.4967470000000  0.4309460000000 1.0
C      1  0.4409520000000  0.4560500000000  0.5566100000000 1.0
C      1  0.5003180000000  0.5238470000000  0.5781890000000 1.0
C      1  0.4230940000000  0.4740180000000  0.4689540000000 1.0
C      1  0.5214530000000  0.4823250000000  0.5851590000000 1.0
C      1  0.5845560000000  0.4781320000000  0.5114810000000 1.0
C      1  0.4875150000000  0.5706130000000  0.4818430000000 1.0
C      1  0.4413780000000  0.4260140000000  0.5203150000000 1.0
C      1  0.4292510000000  0.5245460000000  0.5412360000000 1.0
C      1  0.4984740000000  0.4459200000000  0.4378440000000 1.0
C      1  0.4802150000000  0.5040910000000  0.4154280000000 1.0
C      1  0.5569450000000  0.4605410000000  0.4629040000000 1.0
C      1  0.5531910000000  0.5260650000000  0.4361050000000 1.0
C      1  0.4749040000000  0.5196570000000  0.5602960000000 1.0
C      1  0.4628920000000  0.4494720000000  0.4654530000000 1.0
C      1  0.4813960000000  0.4655110000000  0.4251080000000 1.0
C      1  0.4808950000000  0.5675990000000  0.5193540000000 1.0
C      1  0.5910910000000  0.4992490000000  0.4917990000000 1.0
C      1  0.5337500000000  0.5487600000000  0.4418260000000 1.0
C      1  0.5258280000000  0.5621930000000  0.5592000000000 1.0
C      1  0.5311760000000  0.4584280000000  0.5463810000000 1.0
C      1  0.4938740000000  0.5046240000000  0.5408770000000 1.0
C      1  0.4998060000000  0.4858630000000  0.4136340000000 1.0
C      1  0.4371390000000  0.5530250000000  0.5058990000000 1.0
C      1  0.5810390000000  0.4524820000000  0.5025540000000 1.0
C      1  0.5366450000000  0.5611510000000  0.5123350000000 1.0
C      1  0.5239260000000  0.4582130000000  0.4413090000000 1.0
C      1  0.5172730000000  0.4668990000000  0.5187940000000 1.0
C      1  0.5480670000000  0.4202360000000  0.4847240000000 1.0
END
