TITL C-2114528-2131-28 0.356960497694992 125000 -535.258210159434 0 0 75 (C1) n - 1
REM
REM in /nfs/bkarasulu/CARBON/AIRSS/Generating-Clusters/GAP-ML-2020/Only-C1/SD-CG/HFTN-CG
REM
REM
REM
REM
REM
REM ./C.cell (11c1c37f851c82e70ff6c80c92926a4b)
REM
REM compiler GCC version 9.2.1 20190827 (Red Hat 9.2.1-1)
REM options -cpp -mtune=generic -march=x86-64 -g -O0 -fpre-include=/usr/include/finclude/math-vector-fortran.h
REM seed -2111042113 -136151354 1439524811 512595609 1963134257 -933372522 674766880 -364731948 -2103646087 -205631099 1718828314 1137281511 -76668732 -2009029318 -1030395398 719502192 783542374 -1081992957 304899614 -572074908 -1299598685 9086950 -1400786876 1706552322 -1750578588 -1540840988 -836902536 -537900607 857539227 1100803886 1028070359 508108947 -268180585
REM
CELL 1.54180   50.00000   50.00000   50.00000   90.00000   90.00000   90.00000
LATT -1
SFAC C  
C      1  0.5084980000000  0.4546670000000  0.4110640000000 1.0
C      1  0.5470270000000  0.4864240000000  0.5629290000000 1.0
C      1  0.4666880000000  0.5049020000000  0.4978390000000 1.0
C      1  0.5485600000000  0.4421830000000  0.4898500000000 1.0
C      1  0.5025370000000  0.4432390000000  0.4353640000000 1.0
C      1  0.5066660000000  0.4792520000000  0.4246500000000 1.0
C      1  0.5243550000000  0.4996070000000  0.5748070000000 1.0
C      1  0.4438970000000  0.4573780000000  0.4916550000000 1.0
C      1  0.5348940000000  0.5654690000000  0.5130950000000 1.0
C      1  0.5171370000000  0.4743640000000  0.5169090000000 1.0
C      1  0.4739830000000  0.4579990000000  0.5462300000000 1.0
C      1  0.4768140000000  0.5293120000000  0.5612420000000 1.0
C      1  0.4886400000000  0.5371820000000  0.4414510000000 1.0
C      1  0.5607410000000  0.5055300000000  0.5459110000000 1.0
C      1  0.4271420000000  0.5118110000000  0.5219590000000 1.0
C      1  0.4616790000000  0.4661650000000  0.4436580000000 1.0
C      1  0.5318900000000  0.4904590000000  0.4372830000000 1.0
C      1  0.5526460000000  0.5480130000000  0.5283430000000 1.0
C      1  0.5240360000000  0.4297230000000  0.5002120000000 1.0
C      1  0.4706230000000  0.5145580000000  0.4365160000000 1.0
C      1  0.5100650000000  0.4421690000000  0.5227160000000 1.0
C      1  0.5364550000000  0.5180980000000  0.4445700000000 1.0
C      1  0.5134630000000  0.4985150000000  0.5306650000000 1.0
C      1  0.4802990000000  0.4421530000000  0.5227170000000 1.0
C      1  0.5655780000000  0.4918700000000  0.4705660000000 1.0
C      1  0.5025820000000  0.5418700000000  0.5642830000000 1.0
C      1  0.5084730000000  0.5725350000000  0.5212090000000 1.0
C      1  0.5717360000000  0.5053560000000  0.5182340000000 1.0
C      1  0.4713330000000  0.5490630000000  0.5095370000000 1.0
C      1  0.4467460000000  0.4749900000000  0.4673550000000 1.0
C      1  0.4851220000000  0.5236270000000  0.5024430000000 1.0
C      1  0.4502190000000  0.5472470000000  0.4646240000000 1.0
C      1  0.5650650000000  0.4581930000000  0.5066680000000 1.0
C      1  0.4467830000000  0.5211240000000  0.4513210000000 1.0
C      1  0.4980380000000  0.4766320000000  0.4749670000000 1.0
C      1  0.5402580000000  0.5600710000000  0.4850670000000 1.0
C      1  0.5451460000000  0.4594270000000  0.5542800000000 1.0
C      1  0.4658180000000  0.4384180000000  0.4977990000000 1.0
C      1  0.5598110000000  0.5389310000000  0.4828500000000 1.0
C      1  0.4800910000000  0.4304390000000  0.4744940000000 1.0
C      1  0.5154000000000  0.4880870000000  0.4913300000000 1.0
C      1  0.4271210000000  0.5587950000000  0.5132160000000 1.0
C      1  0.5103460000000  0.5136520000000  0.5059980000000 1.0
C      1  0.5671950000000  0.5320000000000  0.5093090000000 1.0
C      1  0.4344700000000  0.5018050000000  0.4684110000000 1.0
C      1  0.4314190000000  0.4673000000000  0.5133750000000 1.0
C      1  0.4748350000000  0.5010210000000  0.5650600000000 1.0
C      1  0.4380340000000  0.5151290000000  0.4953440000000 1.0
C      1  0.5722160000000  0.4850000000000  0.4977440000000 1.0
C      1  0.5581620000000  0.5186870000000  0.4635200000000 1.0
C      1  0.4216350000000  0.5380130000000  0.5332530000000 1.0
C      1  0.4766200000000  0.4425680000000  0.4484170000000 1.0
C      1  0.4353250000000  0.4859740000000  0.5331910000000 1.0
C      1  0.4782220000000  0.4876790000000  0.4314860000000 1.0
C      1  0.4751760000000  0.5571910000000  0.4569330000000 1.0
C      1  0.5079320000000  0.4242270000000  0.4771510000000 1.0
C      1  0.5448870000000  0.4482320000000  0.4620990000000 1.0
C      1  0.4961420000000  0.5626200000000  0.5451080000000 1.0
C      1  0.4939130000000  0.5707270000000  0.4735670000000 1.0
C      1  0.5200220000000  0.5612810000000  0.4656780000000 1.0
C      1  0.4986220000000  0.4869960000000  0.5743390000000 1.0
C      1  0.5171830000000  0.5395830000000  0.4463720000000 1.0
C      1  0.5189720000000  0.4481690000000  0.5508320000000 1.0
C      1  0.5263430000000  0.5275160000000  0.5685050000000 1.0
C      1  0.4974130000000  0.4611200000000  0.5625170000000 1.0
C      1  0.4728630000000  0.4829300000000  0.4835820000000 1.0
C      1  0.5214190000000  0.4343780000000  0.4543060000000 1.0
C      1  0.4878820000000  0.5720670000000  0.5011310000000 1.0
C      1  0.5600310000000  0.4542920000000  0.5326340000000 1.0
C      1  0.4390870000000  0.5595540000000  0.5398740000000 1.0
C      1  0.4441700000000  0.5457610000000  0.4929950000000 1.0
C      1  0.4679710000000  0.5513730000000  0.5403460000000 1.0
C      1  0.5491620000000  0.5313220000000  0.5512740000000 1.0
C      1  0.4578570000000  0.4814920000000  0.5510300000000 1.0
C      1  0.5504220000000  0.4744960000000  0.4527430000000 1.0
END
