TITL C-216150-4450-4 21.0811862927908 125000 -209.208116582915 0 0 32 (C1) n - 1
REM
REM in /rds/project/t2_vol4/rds-t2-cs072/BORA/CARBON/from-Arr/AIRSS/Generating-Clusters/GAP-ML-2020/Only-C1/SD-CG/HFTN-CG
REM
REM
REM
REM
REM
REM ./C.cell (11c1c37f851c82e70ff6c80c92926a4b)
REM AIRSS Version 0.9.1 bugfix July 2018 build 013d7b7c2542+ Fri, 06 Jul 2018 19:26:36 +0100
REM compiler GCC version 9.3.0
REM options -cpp -mtune=generic -march=x86-64 -g -O0
REM seed 1120186224 704038876 -655430817 -284293940 272713810 1814895739 973231158 243979131 -1310380052 1465119120 -1779590362 -248484252 -2086866396 -267205027 -624575100 2002007438 1742146107 60506483 -1793670124 504739915 871680383 299513975 -933168459 891111094 -2136108050 -884436340 1536664558 -1348363743 -227993307 753109920 -19115897 822463269 -919463028
REM
CELL 1.54180   50.00000   50.00000   50.00000   90.00000   90.00000   90.00000
LATT -1
SFAC C  
C      1  0.4842770000000  0.5295820000000  0.4604500000000 1.0
C      1  0.5385000000000  0.5087450000000  0.4467550000000 1.0
C      1  0.5376520000000  0.5065020000000  0.4957480000000 1.0
C      1  0.5448340000000  0.4895880000000  0.5408360000000 1.0
C      1  0.4729130000000  0.4590680000000  0.4432360000000 1.0
C      1  0.4539000000000  0.5216540000000  0.5178010000000 1.0
C      1  0.5130900000000  0.5185180000000  0.5591830000000 1.0
C      1  0.4703940000000  0.4762170000000  0.4630580000000 1.0
C      1  0.5188820000000  0.4903000000000  0.4537710000000 1.0
C      1  0.4827850000000  0.5468110000000  0.5158150000000 1.0
C      1  0.4932870000000  0.5046450000000  0.4923140000000 1.0
C      1  0.4607310000000  0.5311920000000  0.4769000000000 1.0
C      1  0.4910500000000  0.5003020000000  0.4616270000000 1.0
C      1  0.5133310000000  0.4741550000000  0.5244630000000 1.0
C      1  0.5501530000000  0.4552150000000  0.5057810000000 1.0
C      1  0.4892510000000  0.4811870000000  0.5393440000000 1.0
C      1  0.5043420000000  0.5327010000000  0.5025680000000 1.0
C      1  0.5324720000000  0.5204420000000  0.4700690000000 1.0
C      1  0.4739990000000  0.5281680000000  0.5365350000000 1.0
C      1  0.5294500000000  0.5248810000000  0.5158330000000 1.0
C      1  0.5403490000000  0.4650620000000  0.5302620000000 1.0
C      1  0.5094900000000  0.5378520000000  0.4746850000000 1.0
C      1  0.4891890000000  0.5093000000000  0.5496410000000 1.0
C      1  0.4498420000000  0.4640300000000  0.5115500000000 1.0
C      1  0.5418800000000  0.4511890000000  0.4818710000000 1.0
C      1  0.4582220000000  0.5458900000000  0.4998370000000 1.0
C      1  0.4633190000000  0.5062100000000  0.4953670000000 1.0
C      1  0.5339480000000  0.5156190000000  0.5417210000000 1.0
C      1  0.5140120000000  0.4851870000000  0.4983280000000 1.0
C      1  0.4552560000000  0.4798420000000  0.4881740000000 1.0
C      1  0.5233730000000  0.4702270000000  0.4750920000000 1.0
C      1  0.4658270000000  0.4697200000000  0.5313870000000 1.0
END
