TITL C-211901-441-5 -68.7492080656665 125000 -133.935122503855 0 0 21 (C1) n - 1
REM
REM in /rds/project/t2_vol4/rds-t2-cs072/BORA/CARBON/from-Arr/AIRSS/Generating-Clusters/GAP-ML-2020/Only-C1/SD-CG/HFTN-CG
REM
REM
REM
REM
REM
REM ./C.cell (11c1c37f851c82e70ff6c80c92926a4b)
REM AIRSS Version 0.9.1 bugfix July 2018 build 013d7b7c2542+ Fri, 06 Jul 2018 19:26:36 +0100
REM compiler GCC version 9.3.0
REM options -cpp -mtune=generic -march=x86-64 -g -O0
REM seed 747829621 -1713835309 1809548560 -1599930353 -404060412 -340603980 -1950338854 -1105816819 -522826225 247768798 584046085 -112668613 -419390995 -591757412 -591995802 -1198511871 -2008825011 -114503459 1889067965 1284062474 -245265135 103576328 -1125347888 108568627 -835482150 1627098468 2094332735 -801639821 1463403062 1018975967 645369401 -613418104 -970038464
REM
CELL 1.54180   50.00000   50.00000   50.00000   90.00000   90.00000   90.00000
LATT -1
SFAC C  
C      1  0.4246850000000  0.4775060000000  0.5070470000000 1.0
C      1  0.5212000000000  0.4767000000000  0.5268820000000 1.0
C      1  0.5588770000000  0.5340030000000  0.4955690000000 1.0
C      1  0.5313580000000  0.5014190000000  0.5376780000000 1.0
C      1  0.5340880000000  0.5323800000000  0.5014790000000 1.0
C      1  0.4720610000000  0.5096410000000  0.4715430000000 1.0
C      1  0.4918040000000  0.4817630000000  0.5225820000000 1.0
C      1  0.4112610000000  0.4986410000000  0.5005230000000 1.0
C      1  0.4459980000000  0.5337510000000  0.5052060000000 1.0
C      1  0.5382000000000  0.4662760000000  0.5078450000000 1.0
C      1  0.4902320000000  0.5096590000000  0.5153670000000 1.0
C      1  0.5838360000000  0.5312550000000  0.4894660000000 1.0
C      1  0.5664890000000  0.5025570000000  0.4509950000000 1.0
C      1  0.5641990000000  0.4838390000000  0.4683470000000 1.0
C      1  0.4461330000000  0.4661910000000  0.5155480000000 1.0
C      1  0.5177780000000  0.5197670000000  0.5186310000000 1.0
C      1  0.5535040000000  0.4720700000000  0.4890170000000 1.0
C      1  0.4692540000000  0.5193330000000  0.4983140000000 1.0
C      1  0.4233790000000  0.5223350000000  0.5025120000000 1.0
C      1  0.4847960000000  0.4960460000000  0.4545600000000 1.0
C      1  0.4708720000000  0.4648690000000  0.5208920000000 1.0
END
