TITL C-21810-3078-1 -0.04525037875031 125000 -151.992820301374 0 0 24 (C1) n - 1
REM
REM in /rds/project/t2_vol4/rds-t2-cs072/BORA/CARBON/from-Arr/AIRSS/Generating-Clusters/GAP-ML-2020/Only-C1/SD-CG/HFTN-CG
REM
REM
REM
REM
REM
REM ./C.cell (11c1c37f851c82e70ff6c80c92926a4b)
REM AIRSS Version 0.9.1 bugfix July 2018 build 013d7b7c2542+ Fri, 06 Jul 2018 19:26:36 +0100
REM compiler GCC version 9.3.0
REM options -cpp -mtune=generic -march=x86-64 -g -O0
REM seed -1957946705 -665818255 -822045999 250988169 1990919019 -1892299528 -765512043 353146638 723602388 1960413462 428897044 584743738 338641365 1841301900 1665974787 -1918615392 -683890220 -716855156 891645355 1874794197 -222843309 117504993 1387143801 302799004 117171065 1416654673 1679455436 713014209 1903908616 -1714598365 -1950520922 -1178773610 1930308377
REM
CELL 1.54180   50.00000   50.00000   50.00000   90.00000   90.00000   90.00000
LATT -1
SFAC C  
C      1  0.5198700000000  0.5410220000000  0.5298120000000 1.0
C      1  0.5217180000000  0.4472640000000  0.4860420000000 1.0
C      1  0.4841400000000  0.5253180000000  0.4557410000000 1.0
C      1  0.5427720000000  0.5300760000000  0.5170500000000 1.0
C      1  0.4869070000000  0.5065190000000  0.4748720000000 1.0
C      1  0.5319040000000  0.5317600000000  0.4886430000000 1.0
C      1  0.5316620000000  0.4731330000000  0.4846180000000 1.0
C      1  0.4800460000000  0.4666910000000  0.5408930000000 1.0
C      1  0.4308720000000  0.4758340000000  0.5130040000000 1.0
C      1  0.5075430000000  0.5144650000000  0.4954170000000 1.0
C      1  0.4970530000000  0.5266080000000  0.5232330000000 1.0
C      1  0.4951990000000  0.5479410000000  0.4507290000000 1.0
C      1  0.5425820000000  0.4920230000000  0.4669820000000 1.0
C      1  0.4906810000000  0.4504230000000  0.5249370000000 1.0
C      1  0.5433550000000  0.5175250000000  0.4663510000000 1.0
C      1  0.4649600000000  0.4903940000000  0.5427770000000 1.0
C      1  0.4380820000000  0.4859560000000  0.5361370000000 1.0
C      1  0.5248220000000  0.4906100000000  0.5068360000000 1.0
C      1  0.5130240000000  0.5666250000000  0.4526920000000 1.0
C      1  0.5053820000000  0.4413350000000  0.5050900000000 1.0
C      1  0.4512260000000  0.4772790000000  0.4956710000000 1.0
C      1  0.4728020000000  0.4845970000000  0.4850120000000 1.0
C      1  0.4775360000000  0.5133790000000  0.5349280000000 1.0
C      1  0.5458620000000  0.5032220000000  0.5225340000000 1.0
END
