TITL C-214958-6494-2 213.517696026926 125000 -295.906832452559 0 0 45 (C1) n - 1
REM
REM in /rds/project/t2_vol4/rds-t2-cs072/BORA/CARBON/from-Arr/AIRSS/Generating-Clusters/GAP-ML-2020/Only-C1/SD-CG/HFTN-CG
REM
REM
REM
REM
REM
REM ./C.cell (11c1c37f851c82e70ff6c80c92926a4b)
REM AIRSS Version 0.9.1 bugfix July 2018 build 013d7b7c2542+ Fri, 06 Jul 2018 19:26:36 +0100
REM compiler GCC version 9.3.0
REM options -cpp -mtune=generic -march=x86-64 -g -O0
REM seed -1085973380 -1246352248 431364683 -922182361 1424368066 1830107380 -2077912527 -149994968 -109026955 -712198646 -705459177 -1765661022 1528191877 -113361812 -79044116 31656146 -1149051977 1175774006 -1692841536 -270696216 -1076929645 -238871450 -1587192435 572850247 -641459304 -511435744 1930484053 188865000 -77328060 898382807 1651202115 -1149124247 1940975549
REM
CELL 1.54180   50.00000   50.00000   50.00000   90.00000   90.00000   90.00000
LATT -1
SFAC C  
C      1  0.5468200000000  0.4765190000000  0.5354380000000 1.0
C      1  0.5283860000000  0.5429360000000  0.5256080000000 1.0
C      1  0.4855910000000  0.5010080000000  0.5729500000000 1.0
C      1  0.5212560000000  0.5122070000000  0.4371410000000 1.0
C      1  0.5004930000000  0.4375380000000  0.4942690000000 1.0
C      1  0.4947400000000  0.4485460000000  0.4672670000000 1.0
C      1  0.5233750000000  0.5315770000000  0.4584110000000 1.0
C      1  0.4720970000000  0.4363780000000  0.4997410000000 1.0
C      1  0.4432910000000  0.4982840000000  0.4827810000000 1.0
C      1  0.4981530000000  0.5451510000000  0.4629000000000 1.0
C      1  0.4663540000000  0.4501450000000  0.4747740000000 1.0
C      1  0.5049920000000  0.4758880000000  0.4658770000000 1.0
C      1  0.5093460000000  0.5057490000000  0.5564830000000 1.0
C      1  0.5336580000000  0.4843880000000  0.4743550000000 1.0
C      1  0.4941180000000  0.5126920000000  0.4887330000000 1.0
C      1  0.4824860000000  0.5189130000000  0.4599190000000 1.0
C      1  0.5537010000000  0.5440050000000  0.5161380000000 1.0
C      1  0.4982460000000  0.4981660000000  0.4467470000000 1.0
C      1  0.4620650000000  0.5559850000000  0.4905620000000 1.0
C      1  0.5483460000000  0.4858590000000  0.4478750000000 1.0
C      1  0.5232640000000  0.4793790000000  0.5497320000000 1.0
C      1  0.5259410000000  0.5133960000000  0.4826470000000 1.0
C      1  0.5170510000000  0.4436260000000  0.5161380000000 1.0
C      1  0.4896890000000  0.5592440000000  0.4867200000000 1.0
C      1  0.4543490000000  0.5173590000000  0.4624790000000 1.0
C      1  0.4888440000000  0.4846010000000  0.4908890000000 1.0
C      1  0.5428190000000  0.4545210000000  0.5148370000000 1.0
C      1  0.5039590000000  0.4604100000000  0.5364670000000 1.0
C      1  0.4842140000000  0.5261330000000  0.5142990000000 1.0
C      1  0.4722600000000  0.4891230000000  0.5527230000000 1.0
C      1  0.5557710000000  0.4942340000000  0.5151170000000 1.0
C      1  0.4611860000000  0.4572930000000  0.5166220000000 1.0
C      1  0.5013770000000  0.4827150000000  0.5165090000000 1.0
C      1  0.4566230000000  0.5377780000000  0.5121380000000 1.0
C      1  0.4439720000000  0.5411160000000  0.4749730000000 1.0
C      1  0.4899160000000  0.5037410000000  0.5322590000000 1.0
C      1  0.4749500000000  0.4627340000000  0.5406850000000 1.0
C      1  0.4597980000000  0.4758410000000  0.4904030000000 1.0
C      1  0.4931880000000  0.5517250000000  0.5439770000000 1.0
C      1  0.5496790000000  0.4734470000000  0.4953270000000 1.0
C      1  0.5013960000000  0.5526530000000  0.5155410000000 1.0
C      1  0.5151640000000  0.5350880000000  0.5519900000000 1.0
C      1  0.5441760000000  0.4999470000000  0.4272260000000 1.0
C      1  0.5466700000000  0.5197090000000  0.5047230000000 1.0
C      1  0.4362310000000  0.5222520000000  0.4976070000000 1.0
END
