TITL C-2114532-4476-13 15.4954879299091 125000 -218.627740236339 0 0 34 (C1) n - 1
REM
REM in /nfs/bkarasulu/CARBON/AIRSS/Generating-Clusters/GAP-ML-2020/Only-C1/SD-CG/HFTN-CG
REM
REM
REM
REM
REM
REM ./C.cell (11c1c37f851c82e70ff6c80c92926a4b)
REM
REM compiler GCC version 9.2.1 20190827 (Red Hat 9.2.1-1)
REM options -cpp -mtune=generic -march=x86-64 -g -O0 -fpre-include=/usr/include/finclude/math-vector-fortran.h
REM seed 355564440 769004582 -1204873647 289014594 1329033554 -2083139697 644442153 -1148596413 1579703395 241227319 869105990 -838433868 -1708796725 887964010 -1751458806 -967351505 1899341055 -237785842 1453168198 1801153870 -1755078230 -1303715012 1735783926 -774635559 1045877916 -1747796841 -1478976182 -1182397641 1356744938 1264696556 146598021 -682133261 1913818731
REM
CELL 1.54180   50.00000   50.00000   50.00000   90.00000   90.00000   90.00000
LATT -1
SFAC C  
C      1  0.4698300000000  0.4462240000000  0.5141300000000 1.0
C      1  0.4959720000000  0.5488070000000  0.5241070000000 1.0
C      1  0.5523750000000  0.5176360000000  0.5332680000000 1.0
C      1  0.4759360000000  0.4521640000000  0.4620010000000 1.0
C      1  0.4557160000000  0.4623160000000  0.5316780000000 1.0
C      1  0.4434540000000  0.4864150000000  0.5241040000000 1.0
C      1  0.5312050000000  0.5489190000000  0.4824980000000 1.0
C      1  0.5388270000000  0.4744270000000  0.5114700000000 1.0
C      1  0.5126510000000  0.4684250000000  0.5129240000000 1.0
C      1  0.4790990000000  0.4408820000000  0.4884650000000 1.0
C      1  0.5482020000000  0.5006060000000  0.5083740000000 1.0
C      1  0.4983290000000  0.4449750000000  0.5083990000000 1.0
C      1  0.5471650000000  0.5434490000000  0.5211430000000 1.0
C      1  0.5097860000000  0.5014920000000  0.5577040000000 1.0
C      1  0.4783640000000  0.5348600000000  0.5353250000000 1.0
C      1  0.5314150000000  0.5097340000000  0.5490890000000 1.0
C      1  0.5189180000000  0.5406640000000  0.5090290000000 1.0
C      1  0.4489320000000  0.4612030000000  0.4582460000000 1.0
C      1  0.5137030000000  0.4805400000000  0.4590630000000 1.0
C      1  0.4851430000000  0.5036910000000  0.5410010000000 1.0
C      1  0.4862690000000  0.5159650000000  0.4728200000000 1.0
C      1  0.4947900000000  0.4954260000000  0.5141240000000 1.0
C      1  0.4993010000000  0.4621370000000  0.4486380000000 1.0
C      1  0.4481020000000  0.4929650000000  0.4968680000000 1.0
C      1  0.5579380000000  0.5459180000000  0.4942170000000 1.0
C      1  0.4744010000000  0.5029600000000  0.4941970000000 1.0
C      1  0.5144720000000  0.5059750000000  0.4721080000000 1.0
C      1  0.4396350000000  0.4764970000000  0.4763630000000 1.0
C      1  0.4829510000000  0.5366630000000  0.4551790000000 1.0
C      1  0.4612750000000  0.4872030000000  0.5446170000000 1.0
C      1  0.5578320000000  0.5192440000000  0.4842180000000 1.0
C      1  0.5362120000000  0.5245140000000  0.4663560000000 1.0
C      1  0.5183220000000  0.5105240000000  0.5044600000000 1.0
C      1  0.4934780000000  0.5565780000000  0.4438150000000 1.0
END
