TITL C-216155-3271-7 -276.597817651907 125000 -652.947044131393 0 0 92 (C1) n - 1
REM
REM in /rds/project/t2_vol4/rds-t2-cs072/BORA/CARBON/from-Arr/AIRSS/Generating-Clusters/GAP-ML-2020/Only-C1/SD-CG/HFTN-CG
REM
REM
REM
REM
REM
REM ./C.cell (11c1c37f851c82e70ff6c80c92926a4b)
REM AIRSS Version 0.9.1 bugfix July 2018 build 013d7b7c2542+ Fri, 06 Jul 2018 19:26:36 +0100
REM compiler GCC version 9.3.0
REM options -cpp -mtune=generic -march=x86-64 -g -O0
REM seed 488325921 -1596699049 1491204190 1241362838 -2000182386 800463159 -1379752072 -644555003 148349967 1674600294 2012596187 -1344437960 165368036 594217478 624036950 -213635178 -1395002988 -1732217872 1066537447 -698903316 1537336504 -119945400 540725275 -2132128020 -595466852 2012495683 -1842817577 -47350165 -807395560 -1180740089 -88099480 -1881806454 1512023433
REM
CELL 1.54180   50.00000   50.00000   50.00000   90.00000   90.00000   90.00000
LATT -1
SFAC C  
C      1  0.4173710000000  0.5049920000000  0.5368880000000 1.0
C      1  0.4198880000000  0.5056280000000  0.4636900000000 1.0
C      1  0.4864400000000  0.5476750000000  0.5624730000000 1.0
C      1  0.5448060000000  0.4731410000000  0.4415110000000 1.0
C      1  0.4789650000000  0.4988670000000  0.5378770000000 1.0
C      1  0.4613060000000  0.5035880000000  0.5611980000000 1.0
C      1  0.4794950000000  0.5212740000000  0.5757210000000 1.0
C      1  0.4296700000000  0.4594120000000  0.4808560000000 1.0
C      1  0.5659140000000  0.5228930000000  0.5181130000000 1.0
C      1  0.4211570000000  0.4681850000000  0.5070790000000 1.0
C      1  0.4146840000000  0.5376660000000  0.5047490000000 1.0
C      1  0.5131390000000  0.5242480000000  0.5076210000000 1.0
C      1  0.4698450000000  0.4844810000000  0.4909530000000 1.0
C      1  0.5653810000000  0.4921300000000  0.4500500000000 1.0
C      1  0.4906230000000  0.4416900000000  0.5512870000000 1.0
C      1  0.5008110000000  0.5061730000000  0.4638380000000 1.0
C      1  0.4092920000000  0.4932600000000  0.5113440000000 1.0
C      1  0.4946650000000  0.4817290000000  0.4778710000000 1.0
C      1  0.4622370000000  0.5113820000000  0.5175800000000 1.0
C      1  0.5170300000000  0.4224930000000  0.4858250000000 1.0
C      1  0.5055180000000  0.5126270000000  0.5328190000000 1.0
C      1  0.5133070000000  0.4699520000000  0.5227630000000 1.0
C      1  0.5433390000000  0.4271200000000  0.4976120000000 1.0
C      1  0.5131720000000  0.4835490000000  0.5834070000000 1.0
C      1  0.5167170000000  0.4408740000000  0.5642670000000 1.0
C      1  0.4805650000000  0.5641300000000  0.4544930000000 1.0
C      1  0.4683380000000  0.4358400000000  0.4992700000000 1.0
C      1  0.4970430000000  0.4672080000000  0.4281070000000 1.0
C      1  0.5210850000000  0.4827960000000  0.4291920000000 1.0
C      1  0.4692460000000  0.5142160000000  0.4923850000000 1.0
C      1  0.4424460000000  0.5468040000000  0.5449500000000 1.0
C      1  0.5761500000000  0.4629430000000  0.4897800000000 1.0
C      1  0.5288410000000  0.5534200000000  0.4604890000000 1.0
C      1  0.4855010000000  0.4669130000000  0.5347440000000 1.0
C      1  0.5161540000000  0.4760140000000  0.4953550000000 1.0
C      1  0.4994630000000  0.4217160000000  0.5314070000000 1.0
C      1  0.5357330000000  0.5313140000000  0.4433150000000 1.0
C      1  0.5585440000000  0.4429110000000  0.4793140000000 1.0
C      1  0.5301600000000  0.4628550000000  0.5753350000000 1.0
C      1  0.5270570000000  0.5719480000000  0.5160910000000 1.0
C      1  0.4510990000000  0.4673900000000  0.4407030000000 1.0
C      1  0.4693740000000  0.5075860000000  0.4193820000000 1.0
C      1  0.4933680000000  0.4221650000000  0.5038540000000 1.0
C      1  0.4514000000000  0.4399040000000  0.4769970000000 1.0
C      1  0.5486530000000  0.5717740000000  0.4989020000000 1.0
C      1  0.4647060000000  0.4602580000000  0.5159400000000 1.0
C      1  0.4747520000000  0.5709930000000  0.5156930000000 1.0
C      1  0.5022380000000  0.5578590000000  0.4737920000000 1.0
C      1  0.5056450000000  0.5095680000000  0.5844050000000 1.0
C      1  0.5148700000000  0.5121790000000  0.4352840000000 1.0
C      1  0.5629370000000  0.4531940000000  0.5368790000000 1.0
C      1  0.5342170000000  0.5588620000000  0.5420550000000 1.0
C      1  0.5961970000000  0.5046950000000  0.4849060000000 1.0
C      1  0.4096730000000  0.5123840000000  0.4903050000000 1.0
C      1  0.4530860000000  0.5285080000000  0.4316610000000 1.0
C      1  0.5559950000000  0.4679080000000  0.5611750000000 1.0
C      1  0.5518790000000  0.5207980000000  0.5635470000000 1.0
C      1  0.5164070000000  0.4344380000000  0.4592900000000 1.0
C      1  0.4641220000000  0.4445810000000  0.4517650000000 1.0
C      1  0.5395880000000  0.5168360000000  0.5003220000000 1.0
C      1  0.5558300000000  0.5390170000000  0.5420110000000 1.0
C      1  0.5758210000000  0.4704490000000  0.5183050000000 1.0
C      1  0.5007240000000  0.5717860000000  0.5027950000000 1.0
C      1  0.4763470000000  0.5459750000000  0.4331760000000 1.0
C      1  0.4393280000000  0.4668370000000  0.5292180000000 1.0
C      1  0.5641780000000  0.4951360000000  0.5571130000000 1.0
C      1  0.4675420000000  0.5588130000000  0.5428650000000 1.0
C      1  0.4930210000000  0.4437230000000  0.4445090000000 1.0
C      1  0.5831120000000  0.4844600000000  0.4719060000000 1.0
C      1  0.4369370000000  0.4890370000000  0.5495150000000 1.0
C      1  0.5614130000000  0.5211590000000  0.4497870000000 1.0
C      1  0.4293830000000  0.4779840000000  0.4587660000000 1.0
C      1  0.4314740000000  0.5293110000000  0.4504480000000 1.0
C      1  0.4218970000000  0.5333860000000  0.5328670000000 1.0
C      1  0.5268330000000  0.5277970000000  0.5762600000000 1.0
C      1  0.5837050000000  0.5271940000000  0.4934310000000 1.0
C      1  0.5477180000000  0.4307410000000  0.5262500000000 1.0
C      1  0.4712490000000  0.4801570000000  0.4243600000000 1.0
C      1  0.5722040000000  0.5387410000000  0.4698110000000 1.0
C      1  0.5236150000000  0.4921920000000  0.5368320000000 1.0
C      1  0.4951950000000  0.5268120000000  0.4835030000000 1.0
C      1  0.4568520000000  0.5701380000000  0.4675170000000 1.0
C      1  0.5524330000000  0.5594580000000  0.4752300000000 1.0
C      1  0.4273620000000  0.5585930000000  0.4919430000000 1.0
C      1  0.5747600000000  0.4969450000000  0.5308420000000 1.0
C      1  0.5257960000000  0.4239310000000  0.5428300000000 1.0
C      1  0.4925710000000  0.5247190000000  0.4214410000000 1.0
C      1  0.5378650000000  0.4920440000000  0.4891520000000 1.0
C      1  0.5420030000000  0.4478770000000  0.4556820000000 1.0
C      1  0.5154290000000  0.5508510000000  0.5629370000000 1.0
C      1  0.4328080000000  0.5543330000000  0.4638820000000 1.0
C      1  0.4532920000000  0.5724660000000  0.4963400000000 1.0
END
