TITL C-216142-3287-7 -0.169397667377682 125000 -660.15502741949 0 0 93 (C1) n - 1
REM
REM in /rds/project/t2_vol4/rds-t2-cs072/BORA/CARBON/from-Arr/AIRSS/Generating-Clusters/GAP-ML-2020/Only-C1/SD-CG/HFTN-CG
REM
REM
REM
REM
REM
REM ./C.cell (11c1c37f851c82e70ff6c80c92926a4b)
REM AIRSS Version 0.9.1 bugfix July 2018 build 013d7b7c2542+ Fri, 06 Jul 2018 19:26:36 +0100
REM compiler GCC version 9.3.0
REM options -cpp -mtune=generic -march=x86-64 -g -O0
REM seed 1011410463 -1442885398 1031876785 1229903347 1704444690 474536262 -1936672686 -113290878 -1705498326 -1249923738 -2092574708 -1686024977 -651691902 -961611879 846593006 1220198486 1153450900 -188704616 -2028744220 -1884195648 -1822583434 -1887420918 -865086669 -420739774 908378646 -1009265332 -49320649 -1998545330 1283567934 1887035343 -1812921013 -1158086615 1310838623
REM
CELL 1.54180   50.00000   50.00000   50.00000   90.00000   90.00000   90.00000
LATT -1
SFAC C  
C      1  0.4144550000000  0.5240750000000  0.4902210000000 1.0
C      1  0.4804620000000  0.4715680000000  0.5111930000000 1.0
C      1  0.4299820000000  0.5367620000000  0.5424250000000 1.0
C      1  0.4396790000000  0.5829410000000  0.5288590000000 1.0
C      1  0.5594720000000  0.5228790000000  0.5611960000000 1.0
C      1  0.4811540000000  0.4809750000000  0.5606830000000 1.0
C      1  0.4380110000000  0.4996900000000  0.5583770000000 1.0
C      1  0.4185020000000  0.4773860000000  0.4981440000000 1.0
C      1  0.5460100000000  0.5518540000000  0.4614210000000 1.0
C      1  0.5446920000000  0.4790110000000  0.4468310000000 1.0
C      1  0.4494740000000  0.5262140000000  0.5623480000000 1.0
C      1  0.5387740000000  0.4569510000000  0.5569550000000 1.0
C      1  0.4877140000000  0.5178330000000  0.4701970000000 1.0
C      1  0.5446820000000  0.4500980000000  0.4504740000000 1.0
C      1  0.4990570000000  0.4601350000000  0.4388500000000 1.0
C      1  0.5440230000000  0.5701800000000  0.4847710000000 1.0
C      1  0.5445740000000  0.4217870000000  0.5140740000000 1.0
C      1  0.5347700000000  0.5680530000000  0.5425190000000 1.0
C      1  0.5155060000000  0.4462580000000  0.5444870000000 1.0
C      1  0.4934920000000  0.4910310000000  0.4174730000000 1.0
C      1  0.5027060000000  0.5504130000000  0.4296580000000 1.0
C      1  0.4308400000000  0.5569910000000  0.5219900000000 1.0
C      1  0.4727930000000  0.4260040000000  0.4977060000000 1.0
C      1  0.4121340000000  0.5032920000000  0.5107570000000 1.0
C      1  0.5649360000000  0.4410440000000  0.5174390000000 1.0
C      1  0.4288080000000  0.5482180000000  0.4942090000000 1.0
C      1  0.5208590000000  0.4600050000000  0.4922950000000 1.0
C      1  0.5702500000000  0.5355140000000  0.5386130000000 1.0
C      1  0.5758190000000  0.4813140000000  0.5401590000000 1.0
C      1  0.5640800000000  0.5621820000000  0.5024040000000 1.0
C      1  0.5766000000000  0.5378280000000  0.4925560000000 1.0
C      1  0.4303420000000  0.4572220000000  0.5144490000000 1.0
C      1  0.5338960000000  0.5290930000000  0.5724810000000 1.0
C      1  0.5187490000000  0.4926570000000  0.5277290000000 1.0
C      1  0.5632210000000  0.4561090000000  0.5406510000000 1.0
C      1  0.5632010000000  0.4952930000000  0.5615700000000 1.0
C      1  0.4546800000000  0.4824310000000  0.4602590000000 1.0
C      1  0.5588840000000  0.5599580000000  0.5303900000000 1.0
C      1  0.4598190000000  0.4480250000000  0.5126590000000 1.0
C      1  0.5387370000000  0.4825560000000  0.5706590000000 1.0
C      1  0.4892360000000  0.5723900000000  0.5367540000000 1.0
C      1  0.4959180000000  0.5694720000000  0.4841000000000 1.0
C      1  0.4360720000000  0.5226090000000  0.4464780000000 1.0
C      1  0.4523400000000  0.5455520000000  0.4495580000000 1.0
C      1  0.4534120000000  0.4759220000000  0.5562210000000 1.0
C      1  0.4492800000000  0.5579380000000  0.4763270000000 1.0
C      1  0.4692330000000  0.5726260000000  0.4911770000000 1.0
C      1  0.4819560000000  0.5202410000000  0.5207280000000 1.0
C      1  0.4518720000000  0.5012250000000  0.4368360000000 1.0
C      1  0.4190720000000  0.5111450000000  0.4656500000000 1.0
C      1  0.4987290000000  0.4160470000000  0.5057700000000 1.0
C      1  0.5201880000000  0.5493990000000  0.4503910000000 1.0
C      1  0.4623000000000  0.4436680000000  0.4211520000000 1.0
C      1  0.4771330000000  0.5394160000000  0.4307820000000 1.0
C      1  0.5761470000000  0.4809090000000  0.4889180000000 1.0
C      1  0.4200270000000  0.5105030000000  0.5370250000000 1.0
C      1  0.5820870000000  0.4935720000000  0.5144560000000 1.0
C      1  0.5148610000000  0.5787720000000  0.5253050000000 1.0
C      1  0.5212140000000  0.5524580000000  0.5632000000000 1.0
C      1  0.5179820000000  0.4396000000000  0.4443930000000 1.0
C      1  0.4576120000000  0.4287900000000  0.4423850000000 1.0
C      1  0.4980460000000  0.4710230000000  0.5378110000000 1.0
C      1  0.5195960000000  0.5043040000000  0.5765510000000 1.0
C      1  0.5581230000000  0.4367130000000  0.4719500000000 1.0
C      1  0.4259100000000  0.4833920000000  0.4707360000000 1.0
C      1  0.5032310000000  0.4220460000000  0.4603240000000 1.0
C      1  0.4770910000000  0.5310140000000  0.5691430000000 1.0
C      1  0.4650430000000  0.5057650000000  0.4814890000000 1.0
C      1  0.5319300000000  0.4825750000000  0.5048600000000 1.0
C      1  0.4691340000000  0.4994990000000  0.5084360000000 1.0
C      1  0.4654850000000  0.5775780000000  0.5198740000000 1.0
C      1  0.5156760000000  0.4113600000000  0.4821450000000 1.0
C      1  0.4742090000000  0.5112370000000  0.4227780000000 1.0
C      1  0.5723020000000  0.4527850000000  0.4911270000000 1.0
C      1  0.4823380000000  0.4630990000000  0.4148730000000 1.0
C      1  0.5151370000000  0.4860150000000  0.4404840000000 1.0
C      1  0.5811190000000  0.5215750000000  0.5157330000000 1.0
C      1  0.4928690000000  0.5544040000000  0.5600740000000 1.0
C      1  0.4960960000000  0.4703700000000  0.4845090000000 1.0
C      1  0.4743280000000  0.4308130000000  0.4667160000000 1.0
C      1  0.5037880000000  0.5422140000000  0.4758460000000 1.0
C      1  0.5092390000000  0.5188150000000  0.5199650000000 1.0
C      1  0.5180860000000  0.4243110000000  0.5261600000000 1.0
C      1  0.4773540000000  0.4608880000000  0.4619210000000 1.0
C      1  0.5320130000000  0.5039810000000  0.4837150000000 1.0
C      1  0.5650430000000  0.5291710000000  0.4679070000000 1.0
C      1  0.5428910000000  0.4168050000000  0.4863310000000 1.0
C      1  0.4911690000000  0.5048760000000  0.5736210000000 1.0
C      1  0.5192490000000  0.5795710000000  0.4969040000000 1.0
C      1  0.4438960000000  0.4560700000000  0.5377490000000 1.0
C      1  0.5581410000000  0.4981320000000  0.4676840000000 1.0
C      1  0.5221270000000  0.5288810000000  0.4967010000000 1.0
C      1  0.5068320000000  0.4966300000000  0.4681440000000 1.0
END
