TITL C-211915-573-5 0.002135804758838 125000 -29.1208935574648 0 0 5 (C2v) n - 1
REM
REM in /rds/project/t2_vol4/rds-t2-cs072/BORA/CARBON/from-Arr/AIRSS/Generating-Clusters/GAP-ML-2020/Only-C1/SD-CG/HFTN-CG
REM
REM
REM
REM
REM
REM ./C.cell (11c1c37f851c82e70ff6c80c92926a4b)
REM AIRSS Version 0.9.1 bugfix July 2018 build 013d7b7c2542+ Fri, 06 Jul 2018 19:26:36 +0100
REM compiler GCC version 9.3.0
REM options -cpp -mtune=generic -march=x86-64 -g -O0
REM seed 1156270974 455346528 -2140380934 1588479962 -365228944 520611723 -507534849 2020631577 1571122507 -109253379 419612672 1590802859 -1488555829 1392374429 -2013182203 1910987179 1909870736 2107144944 1250607502 -350779698 -1976064217 1318070115 -1332604603 2114213676 166617258 -235690931 -399023869 774752735 -311530405 -937671881 -959072127 1869431887 -264197823
REM
CELL 1.54180   50.00000   50.00000   50.00000   90.00000   90.00000   90.00000
LATT -1
SFAC C  
C      1  0.5295480000000  0.5012060000000  0.4848720000000 1.0
C      1  0.5245310000000  0.5223240000000  0.4981970000000 1.0
C      1  0.4589120000000  0.4821230000000  0.5128630000000 1.0
C      1  0.5057350000000  0.5024950000000  0.4982050000000 1.0
C      1  0.4812740000000  0.4918520000000  0.5058630000000 1.0
END
