TITL C-2114521-4255-23 -0.0328795958651632 125000 -187.019357893083 0 0 29 (C1) n - 1
REM
REM in /nfs/bkarasulu/CARBON/AIRSS/Generating-Clusters/GAP-ML-2020/Only-C1/SD-CG/HFTN-CG
REM
REM
REM
REM
REM
REM ./C.cell (11c1c37f851c82e70ff6c80c92926a4b)
REM
REM compiler GCC version 9.2.1 20190827 (Red Hat 9.2.1-1)
REM options -cpp -mtune=generic -march=x86-64 -g -O0 -fpre-include=/usr/include/finclude/math-vector-fortran.h
REM seed 690796634 46147525 1132584182 -1694560943 -1185271834 -549492151 -1181989764 737315521 -1750792468 -302381630 -1704483024 -805698273 -326626626 -2055782122 -171824318 72459780 2028063024 -1488943436 443843056 -929973786 -1355425324 194238919 1167824308 2131266935 137907830 923289137 997329625 -2129305934 164740026 -909032512 16760453 1787954093 -611210645
REM
CELL 1.54180   50.00000   50.00000   50.00000   90.00000   90.00000   90.00000
LATT -1
SFAC C  
C      1  0.4882130000000  0.4824110000000  0.4857280000000 1.0
C      1  0.5444870000000  0.4982210000000  0.4418260000000 1.0
C      1  0.5385800000000  0.5146380000000  0.5354420000000 1.0
C      1  0.5173010000000  0.5335190000000  0.5269820000000 1.0
C      1  0.5224830000000  0.5344410000000  0.4493270000000 1.0
C      1  0.4903590000000  0.4476600000000  0.5050330000000 1.0
C      1  0.5041630000000  0.5151470000000  0.4384300000000 1.0
C      1  0.4683310000000  0.5296110000000  0.5281000000000 1.0
C      1  0.4642550000000  0.5285910000000  0.4996560000000 1.0
C      1  0.4883260000000  0.5322320000000  0.4851520000000 1.0
C      1  0.5095430000000  0.5211110000000  0.5016160000000 1.0
C      1  0.4959070000000  0.5336300000000  0.4587280000000 1.0
C      1  0.4594880000000  0.4783910000000  0.4908930000000 1.0
C      1  0.5235200000000  0.4953490000000  0.5503840000000 1.0
C      1  0.5139390000000  0.4803820000000  0.4721190000000 1.0
C      1  0.5423150000000  0.5164550000000  0.4619160000000 1.0
C      1  0.4545970000000  0.5038660000000  0.5315260000000 1.0
C      1  0.4786620000000  0.4593070000000  0.5285860000000 1.0
C      1  0.5030880000000  0.4556110000000  0.4821220000000 1.0
C      1  0.4966870000000  0.5028420000000  0.5534890000000 1.0
C      1  0.4777380000000  0.4870090000000  0.5377650000000 1.0
C      1  0.4929020000000  0.5296750000000  0.5419930000000 1.0
C      1  0.4511490000000  0.5020830000000  0.5027700000000 1.0
C      1  0.5232600000000  0.4808190000000  0.5257450000000 1.0
C      1  0.4965420000000  0.4934490000000  0.5124890000000 1.0
C      1  0.4622120000000  0.4543630000000  0.5071860000000 1.0
C      1  0.5300310000000  0.5039040000000  0.4879100000000 1.0
C      1  0.5182930000000  0.4894040000000  0.4442000000000 1.0
C      1  0.5436290000000  0.4958760000000  0.5128880000000 1.0
END
