TITL C-21939-1646-4 0.0666171327818526 125000 -685.509300477174 0 0 99 (C1) n - 1
REM
REM in /rds/project/t2_vol4/rds-t2-cs072/BORA/CARBON/from-Arr/AIRSS/Generating-Clusters/GAP-ML-2020/Only-C1/SD-CG/HFTN-CG
REM
REM
REM
REM
REM
REM ./C.cell (11c1c37f851c82e70ff6c80c92926a4b)
REM AIRSS Version 0.9.1 bugfix July 2018 build 013d7b7c2542+ Fri, 06 Jul 2018 19:26:36 +0100
REM compiler GCC version 9.3.0
REM options -cpp -mtune=generic -march=x86-64 -g -O0
REM seed -599962361 -2102064691 319490445 -387029373 -245782079 2055053684 -1771302721 -1971526152 -1519323096 801803236 964398325 16382423 484727084 -2017765298 -1816144391 -2010552708 1210328248 55846645 1046801689 893041098 -1220270759 -643298993 -677081602 214521123 1015076733 -556877309 -571014698 736049648 403590527 -963126280 -600095875 -613870520 -949671699
REM
CELL 1.54180   50.00000   50.00000   50.00000   90.00000   90.00000   90.00000
LATT -1
SFAC C  
C      1  0.4772650000000  0.5276710000000  0.5296160000000 1.0
C      1  0.4486930000000  0.5204610000000  0.5213700000000 1.0
C      1  0.4184490000000  0.4609030000000  0.5316830000000 1.0
C      1  0.4914050000000  0.4755000000000  0.4528870000000 1.0
C      1  0.4843170000000  0.4595320000000  0.5382730000000 1.0
C      1  0.4186490000000  0.4874030000000  0.5217470000000 1.0
C      1  0.5071040000000  0.4810090000000  0.5721460000000 1.0
C      1  0.5664430000000  0.5257010000000  0.4524770000000 1.0
C      1  0.4407390000000  0.5190660000000  0.4569240000000 1.0
C      1  0.4939090000000  0.4791740000000  0.4237840000000 1.0
C      1  0.4592920000000  0.5618130000000  0.4656570000000 1.0
C      1  0.5749130000000  0.5362130000000  0.5340470000000 1.0
C      1  0.4520560000000  0.5447080000000  0.4436000000000 1.0
C      1  0.5607380000000  0.4287760000000  0.4514640000000 1.0
C      1  0.4791810000000  0.5508890000000  0.5115740000000 1.0
C      1  0.5281270000000  0.4620170000000  0.5680040000000 1.0
C      1  0.5216960000000  0.4816580000000  0.4177380000000 1.0
C      1  0.4903070000000  0.5295790000000  0.5590310000000 1.0
C      1  0.5034520000000  0.5462080000000  0.4230360000000 1.0
C      1  0.4353660000000  0.5673200000000  0.5108800000000 1.0
C      1  0.5546350000000  0.5414440000000  0.5554000000000 1.0
C      1  0.5492450000000  0.4367820000000  0.5025890000000 1.0
C      1  0.4961430000000  0.5590330000000  0.5545710000000 1.0
C      1  0.4412530000000  0.4479740000000  0.4767940000000 1.0
C      1  0.4839430000000  0.4881490000000  0.5006900000000 1.0
C      1  0.5795840000000  0.5093760000000  0.5236010000000 1.0
C      1  0.4933930000000  0.5064000000000  0.5202620000000 1.0
C      1  0.5485930000000  0.5460560000000  0.4422390000000 1.0
C      1  0.4362560000000  0.5398670000000  0.5006350000000 1.0
C      1  0.4445020000000  0.4835130000000  0.4211880000000 1.0
C      1  0.4687750000000  0.5694290000000  0.5530300000000 1.0
C      1  0.5277930000000  0.4395830000000  0.5489090000000 1.0
C      1  0.4521680000000  0.4226710000000  0.5159250000000 1.0
C      1  0.4235340000000  0.5215640000000  0.4817920000000 1.0
C      1  0.5617120000000  0.5570770000000  0.5174030000000 1.0
C      1  0.5461780000000  0.4491680000000  0.5290260000000 1.0
C      1  0.4318140000000  0.5054360000000  0.5391600000000 1.0
C      1  0.4622910000000  0.5261910000000  0.5719590000000 1.0
C      1  0.4752530000000  0.4223660000000  0.4994970000000 1.0
C      1  0.4080930000000  0.4416900000000  0.5141290000000 1.0
C      1  0.5002730000000  0.5688230000000  0.4387550000000 1.0
C      1  0.5419260000000  0.5655340000000  0.4626010000000 1.0
C      1  0.5029170000000  0.4203850000000  0.5095140000000 1.0
C      1  0.5155940000000  0.4339040000000  0.4646010000000 1.0
C      1  0.5861970000000  0.4814620000000  0.5285950000000 1.0
C      1  0.5529420000000  0.5533890000000  0.4881230000000 1.0
C      1  0.5203280000000  0.5020350000000  0.5300870000000 1.0
C      1  0.5469820000000  0.4834680000000  0.4928580000000 1.0
C      1  0.5359770000000  0.5060110000000  0.4219730000000 1.0
C      1  0.4989080000000  0.5801700000000  0.4833680000000 1.0
C      1  0.4652530000000  0.5157930000000  0.4756670000000 1.0
C      1  0.5541000000000  0.4742170000000  0.5657930000000 1.0
C      1  0.4822260000000  0.4693850000000  0.5647380000000 1.0
C      1  0.4305270000000  0.4743190000000  0.4696290000000 1.0
C      1  0.4815390000000  0.4337910000000  0.5501400000000 1.0
C      1  0.5281110000000  0.4756370000000  0.5164040000000 1.0
C      1  0.5055470000000  0.4252070000000  0.5384260000000 1.0
C      1  0.5630980000000  0.4720500000000  0.4388550000000 1.0
C      1  0.4542320000000  0.5521500000000  0.5700330000000 1.0
C      1  0.5345230000000  0.4366590000000  0.4435030000000 1.0
C      1  0.5158050000000  0.5669050000000  0.5349430000000 1.0
C      1  0.5673420000000  0.4581470000000  0.4891790000000 1.0
C      1  0.5390610000000  0.4610200000000  0.4276200000000 1.0
C      1  0.5157640000000  0.5156380000000  0.4737630000000 1.0
C      1  0.4773640000000  0.5512360000000  0.4339440000000 1.0
C      1  0.4905540000000  0.4472400000000  0.4616260000000 1.0
C      1  0.5570570000000  0.5003050000000  0.4418480000000 1.0
C      1  0.5140090000000  0.5092790000000  0.5616660000000 1.0
C      1  0.5357950000000  0.5204640000000  0.5147320000000 1.0
C      1  0.4698040000000  0.5845390000000  0.4790900000000 1.0
C      1  0.4352620000000  0.4916690000000  0.4463350000000 1.0
C      1  0.4460550000000  0.5022800000000  0.5635980000000 1.0
C      1  0.5156300000000  0.5768940000000  0.4614720000000 1.0
C      1  0.5578280000000  0.4992680000000  0.5746990000000 1.0
C      1  0.5059060000000  0.5609650000000  0.5060400000000 1.0
C      1  0.4908640000000  0.5000970000000  0.4718190000000 1.0
C      1  0.4679650000000  0.4366070000000  0.4753190000000 1.0
C      1  0.4639510000000  0.5430470000000  0.4872390000000 1.0
C      1  0.5674840000000  0.4641710000000  0.5427510000000 1.0
C      1  0.5896830000000  0.4651250000000  0.5071510000000 1.0
C      1  0.5225410000000  0.5369460000000  0.4946880000000 1.0
C      1  0.5612810000000  0.5095420000000  0.5008080000000 1.0
C      1  0.4686700000000  0.4806820000000  0.4130660000000 1.0
C      1  0.5719160000000  0.4528100000000  0.4595420000000 1.0
C      1  0.4259340000000  0.4932620000000  0.4926720000000 1.0
C      1  0.4538820000000  0.4749800000000  0.5654370000000 1.0
C      1  0.4990260000000  0.4665460000000  0.5131370000000 1.0
C      1  0.5244370000000  0.4267460000000  0.4915460000000 1.0
C      1  0.4558320000000  0.4998570000000  0.4997020000000 1.0
C      1  0.4310550000000  0.4360910000000  0.5012170000000 1.0
C      1  0.5430100000000  0.5628730000000  0.5390750000000 1.0
C      1  0.5414690000000  0.5202710000000  0.5703570000000 1.0
C      1  0.5288730000000  0.5333440000000  0.4243520000000 1.0
C      1  0.4619000000000  0.5711970000000  0.5249420000000 1.0
C      1  0.4387190000000  0.4538720000000  0.5515340000000 1.0
C      1  0.5678840000000  0.5300230000000  0.4798070000000 1.0
C      1  0.4526230000000  0.5868830000000  0.5025930000000 1.0
C      1  0.5345660000000  0.4945720000000  0.4689990000000 1.0
C      1  0.4547400000000  0.4308450000000  0.5432910000000 1.0
END
