TITL C-2114520-3314-31 -0.0439177067350336 125000 -134.510357448234 0 0 21 (C1) n - 1
REM
REM in /nfs/bkarasulu/CARBON/AIRSS/Generating-Clusters/GAP-ML-2020/Only-C1/SD-CG/HFTN-CG
REM
REM
REM
REM
REM
REM ./C.cell (11c1c37f851c82e70ff6c80c92926a4b)
REM
REM compiler GCC version 9.2.1 20190827 (Red Hat 9.2.1-1)
REM options -cpp -mtune=generic -march=x86-64 -g -O0 -fpre-include=/usr/include/finclude/math-vector-fortran.h
REM seed 2050047659 -133868713 -603044634 -458300703 51083327 119358528 2080548769 1150669786 616113252 -1925682151 1153038613 1791151888 2111169273 1018111404 -1265747943 -1332310424 -692153440 1265154765 -1103133259 -17086087 228948687 -1127386346 1439101803 1440518931 783004328 1060028671 -2017639933 904804775 1083810798 882587391 -171768635 986973896 1141485930
REM
CELL 1.54180   50.00000   50.00000   50.00000   90.00000   90.00000   90.00000
LATT -1
SFAC C  
C      1  0.5133370000000  0.4930130000000  0.4815010000000 1.0
C      1  0.4928780000000  0.5117380000000  0.4713630000000 1.0
C      1  0.4684450000000  0.5183430000000  0.4869850000000 1.0
C      1  0.5575990000000  0.4885930000000  0.5022700000000 1.0
C      1  0.4672070000000  0.4636890000000  0.4826740000000 1.0
C      1  0.5554980000000  0.4740710000000  0.5238230000000 1.0
C      1  0.5042440000000  0.4692270000000  0.4951860000000 1.0
C      1  0.5295460000000  0.5488940000000  0.4984410000000 1.0
C      1  0.4987520000000  0.5389830000000  0.4656450000000 1.0
C      1  0.5025410000000  0.5471580000000  0.4921730000000 1.0
C      1  0.4789870000000  0.5362430000000  0.5069220000000 1.0
C      1  0.4527530000000  0.4988150000000  0.4990720000000 1.0
C      1  0.5316080000000  0.4698060000000  0.5344280000000 1.0
C      1  0.4600260000000  0.4977770000000  0.5270600000000 1.0
C      1  0.4886440000000  0.4489020000000  0.4826370000000 1.0
C      1  0.4857010000000  0.4917690000000  0.5357070000000 1.0
C      1  0.5436480000000  0.5306260000000  0.4862900000000 1.0
C      1  0.4778160000000  0.5203690000000  0.5305660000000 1.0
C      1  0.5057100000000  0.4726780000000  0.5266490000000 1.0
C      1  0.5405330000000  0.5027590000000  0.4857700000000 1.0
C      1  0.4445270000000  0.4765480000000  0.4848400000000 1.0
END
