TITL C-21705-8273-7 -9.35852933423605 125000 -255.750213894091 0 0 39 (C1) n - 1
REM
REM in /rds/project/t2_vol4/rds-t2-cs072/BORA/CARBON/from-Arr/AIRSS/Generating-Clusters/GAP-ML-2020/Only-C1/SD-CG/HFTN-CG
REM
REM
REM
REM
REM
REM ./C.cell (11c1c37f851c82e70ff6c80c92926a4b)
REM AIRSS Version 0.9.1 bugfix July 2018 build 013d7b7c2542+ Fri, 06 Jul 2018 19:26:36 +0100
REM compiler GCC version 9.3.0
REM options -cpp -mtune=generic -march=x86-64 -g -O0
REM seed -898678525 -1451592406 -1360914779 1406196538 2098394988 -366870213 -1522644224 1213048584 16402778 -135652420 -976109645 1419138451 1971067621 -1186248728 -407057882 -824571614 745654687 -1828620668 -1377950959 1606391775 1961336096 683116710 338916621 1178386436 -619115740 -587538441 711157488 -2011795816 -298236424 1762402124 -669924018 -55055928 -170316288
REM
CELL 1.54180   50.00000   50.00000   50.00000   90.00000   90.00000   90.00000
LATT -1
SFAC C  
C      1  0.5222570000000  0.5607990000000  0.5161670000000 1.0
C      1  0.4517110000000  0.5414140000000  0.5261930000000 1.0
C      1  0.4818700000000  0.4964300000000  0.5425870000000 1.0
C      1  0.4379860000000  0.4856050000000  0.5205820000000 1.0
C      1  0.5600710000000  0.5007830000000  0.5227220000000 1.0
C      1  0.5371410000000  0.4392470000000  0.5302660000000 1.0
C      1  0.5672520000000  0.5428800000000  0.4665670000000 1.0
C      1  0.5145800000000  0.4936010000000  0.4378010000000 1.0
C      1  0.4438530000000  0.4604470000000  0.5089950000000 1.0
C      1  0.5444050000000  0.5218670000000  0.5260070000000 1.0
C      1  0.4801870000000  0.4795620000000  0.4805250000000 1.0
C      1  0.4701850000000  0.4584280000000  0.5008450000000 1.0
C      1  0.5533040000000  0.4813460000000  0.5032610000000 1.0
C      1  0.4954060000000  0.4777060000000  0.5573420000000 1.0
C      1  0.4805390000000  0.5122540000000  0.4926890000000 1.0
C      1  0.4930930000000  0.5333950000000  0.4772260000000 1.0
C      1  0.5405800000000  0.4557680000000  0.5079400000000 1.0
C      1  0.4758720000000  0.5109730000000  0.4442980000000 1.0
C      1  0.5497020000000  0.4922980000000  0.4766080000000 1.0
C      1  0.4938420000000  0.4435170000000  0.5102080000000 1.0
C      1  0.5172680000000  0.5425940000000  0.4913600000000 1.0
C      1  0.5572850000000  0.5188400000000  0.4736480000000 1.0
C      1  0.5390130000000  0.5487570000000  0.5319840000000 1.0
C      1  0.4278630000000  0.5339120000000  0.5187350000000 1.0
C      1  0.4611160000000  0.4939190000000  0.4620300000000 1.0
C      1  0.5188110000000  0.5209180000000  0.5111240000000 1.0
C      1  0.5022960000000  0.4532550000000  0.5597450000000 1.0
C      1  0.5262360000000  0.4846090000000  0.4612190000000 1.0
C      1  0.4916500000000  0.5168010000000  0.5210120000000 1.0
C      1  0.5424760000000  0.5429350000000  0.4771710000000 1.0
C      1  0.4544600000000  0.4933340000000  0.5415450000000 1.0
C      1  0.4510110000000  0.5108100000000  0.4837200000000 1.0
C      1  0.5152130000000  0.4524780000000  0.4944050000000 1.0
C      1  0.4933480000000  0.5008280000000  0.4253460000000 1.0
C      1  0.4316040000000  0.5089950000000  0.5043580000000 1.0
C      1  0.4773340000000  0.5419910000000  0.5294000000000 1.0
C      1  0.4830480000000  0.5367370000000  0.4520080000000 1.0
C      1  0.5091270000000  0.4394050000000  0.5365030000000 1.0
C      1  0.5070050000000  0.4705630000000  0.4758550000000 1.0
END
