TITL C-21842-6244-8 -0.0203993827665525 125000 -434.792393264345 0 0 64 (C1) n - 1
REM
REM in /rds/project/t2_vol4/rds-t2-cs072/BORA/CARBON/from-Arr/AIRSS/Generating-Clusters/GAP-ML-2020/Only-C1/SD-CG/HFTN-CG
REM
REM
REM
REM
REM
REM ./C.cell (11c1c37f851c82e70ff6c80c92926a4b)
REM AIRSS Version 0.9.1 bugfix July 2018 build 013d7b7c2542+ Fri, 06 Jul 2018 19:26:36 +0100
REM compiler GCC version 9.3.0
REM options -cpp -mtune=generic -march=x86-64 -g -O0
REM seed -2041525891 563569318 -916784825 -899917507 -1979765738 -438172784 1193863611 -851375157 727167990 1301356088 1019226425 1367046553 1840184202 1820607943 -1117947144 -362060534 223585129 -1842147096 670752841 1085852686 1175681297 -778450755 570509247 -1826624379 157494480 -1033031387 -2029607258 -1758197021 63471522 1626666959 -1491109579 -940628841 835262202
REM
CELL 1.54180   50.00000   50.00000   50.00000   90.00000   90.00000   90.00000
LATT -1
SFAC C  
C      1  0.4690640000000  0.4657690000000  0.4741020000000 1.0
C      1  0.5142290000000  0.5690740000000  0.4888630000000 1.0
C      1  0.4402330000000  0.5067760000000  0.5489590000000 1.0
C      1  0.4993950000000  0.5258410000000  0.5366440000000 1.0
C      1  0.4992540000000  0.5106150000000  0.5893560000000 1.0
C      1  0.4621930000000  0.5101370000000  0.4852430000000 1.0
C      1  0.4986150000000  0.4851450000000  0.5085690000000 1.0
C      1  0.5818820000000  0.5159910000000  0.4851730000000 1.0
C      1  0.4316890000000  0.5360960000000  0.5039950000000 1.0
C      1  0.4279690000000  0.4728090000000  0.4995530000000 1.0
C      1  0.4378870000000  0.4729340000000  0.4729310000000 1.0
C      1  0.5339090000000  0.5464480000000  0.4496070000000 1.0
C      1  0.4755960000000  0.4617560000000  0.5033390000000 1.0
C      1  0.4502120000000  0.4788190000000  0.5468290000000 1.0
C      1  0.5107570000000  0.4452350000000  0.5334120000000 1.0
C      1  0.4585320000000  0.5004940000000  0.4403610000000 1.0
C      1  0.4736560000000  0.4988590000000  0.4174950000000 1.0
C      1  0.4757660000000  0.4952780000000  0.4643170000000 1.0
C      1  0.5603440000000  0.4760860000000  0.4635220000000 1.0
C      1  0.5290060000000  0.5609960000000  0.5111560000000 1.0
C      1  0.5386910000000  0.4511110000000  0.5286270000000 1.0
C      1  0.4778640000000  0.4809670000000  0.5554850000000 1.0
C      1  0.5486650000000  0.5210740000000  0.5335380000000 1.0
C      1  0.4602420000000  0.5228340000000  0.5608410000000 1.0
C      1  0.5509230000000  0.4526600000000  0.4771140000000 1.0
C      1  0.5450790000000  0.4734700000000  0.5457990000000 1.0
C      1  0.5408380000000  0.4927200000000  0.4484350000000 1.0
C      1  0.4949550000000  0.4392210000000  0.5097190000000 1.0
C      1  0.5249090000000  0.5229620000000  0.5494500000000 1.0
C      1  0.5053120000000  0.4333480000000  0.4843300000000 1.0
C      1  0.5653610000000  0.5369330000000  0.4892640000000 1.0
C      1  0.5112800000000  0.5576020000000  0.4624210000000 1.0
C      1  0.4345450000000  0.4990730000000  0.4574180000000 1.0
C      1  0.4861030000000  0.5012300000000  0.5279460000000 1.0
C      1  0.4560730000000  0.5512400000000  0.5039370000000 1.0
C      1  0.4899490000000  0.5391560000000  0.4643550000000 1.0
C      1  0.5193930000000  0.5056710000000  0.5712570000000 1.0
C      1  0.5596760000000  0.4938440000000  0.5318500000000 1.0
C      1  0.5580090000000  0.5402210000000  0.4610880000000 1.0
C      1  0.5751350000000  0.4902960000000  0.4835840000000 1.0
C      1  0.4777910000000  0.5036110000000  0.5751890000000 1.0
C      1  0.4137590000000  0.4931040000000  0.5101260000000 1.0
C      1  0.4990390000000  0.5127900000000  0.4627920000000 1.0
C      1  0.5232450000000  0.5032540000000  0.4737090000000 1.0
C      1  0.5499220000000  0.5414420000000  0.5134510000000 1.0
C      1  0.4651190000000  0.5395510000000  0.4787710000000 1.0
C      1  0.5015210000000  0.5675210000000  0.5135520000000 1.0
C      1  0.5469720000000  0.5215910000000  0.4427660000000 1.0
C      1  0.4884130000000  0.4462200000000  0.4631100000000 1.0
C      1  0.5697890000000  0.4791860000000  0.5092320000000 1.0
C      1  0.5188580000000  0.4768700000000  0.4331990000000 1.0
C      1  0.4296940000000  0.5137420000000  0.5221110000000 1.0
C      1  0.4770690000000  0.5412570000000  0.5468570000000 1.0
C      1  0.5556620000000  0.4546310000000  0.5056230000000 1.0
C      1  0.4591500000000  0.5020630000000  0.5128670000000 1.0
C      1  0.5284740000000  0.4392680000000  0.4679820000000 1.0
C      1  0.5221640000000  0.4882420000000  0.4960880000000 1.0
C      1  0.5013280000000  0.4624190000000  0.5551150000000 1.0
C      1  0.4375430000000  0.5230390000000  0.4759080000000 1.0
C      1  0.5241440000000  0.4784900000000  0.5634820000000 1.0
C      1  0.4517140000000  0.4721390000000  0.5177200000000 1.0
C      1  0.5120610000000  0.4530940000000  0.4478690000000 1.0
C      1  0.4757330000000  0.5576730000000  0.5239720000000 1.0
C      1  0.4976440000000  0.4880180000000  0.4186270000000 1.0
END
