TITL C-215712-9324-10 -0.0197159610975672 125000 -74.762548729313 0 0 12 (C1) n - 1
REM
REM in /rds/project/t2_vol4/rds-t2-cs072/BORA/CARBON/from-Arr/AIRSS/Generating-Clusters/GAP-ML-2020/Only-C1/SD-CG/HFTN-CG
REM
REM
REM
REM
REM
REM ./C.cell (11c1c37f851c82e70ff6c80c92926a4b)
REM AIRSS Version 0.9.1 bugfix July 2018 build 013d7b7c2542+ Fri, 06 Jul 2018 19:26:36 +0100
REM compiler GCC version 9.3.0
REM options -cpp -mtune=generic -march=x86-64 -g -O0
REM seed 240660637 -1163097328 1809233758 -1512791412 -567055706 1039563816 72326712 688852750 -1175590886 -2048735495 -580818149 1957540346 1727670906 1623510262 -474912334 843861414 1993340812 373287523 1497754841 401449511 765773949 703359717 -2143150499 -443750865 1432366750 218325988 -879341635 -270346005 -901878792 -2104143605 -1247150509 -1049854551 1148023016
REM
CELL 1.54180   50.00000   50.00000   50.00000   90.00000   90.00000   90.00000
LATT -1
SFAC C  
C      1  0.5097970000000  0.5263360000000  0.4796280000000 1.0
C      1  0.4886150000000  0.4765830000000  0.5146950000000 1.0
C      1  0.5123970000000  0.4874400000000  0.4756930000000 1.0
C      1  0.4646820000000  0.5239540000000  0.4794190000000 1.0
C      1  0.5516160000000  0.5029820000000  0.5466160000000 1.0
C      1  0.5094880000000  0.4783310000000  0.5307620000000 1.0
C      1  0.4872290000000  0.5379620000000  0.4808220000000 1.0
C      1  0.5316320000000  0.4910580000000  0.5350410000000 1.0
C      1  0.4658470000000  0.4982750000000  0.4881220000000 1.0
C      1  0.4890430000000  0.4786260000000  0.4852140000000 1.0
C      1  0.5270820000000  0.5092110000000  0.4691830000000 1.0
C      1  0.4625730000000  0.4892440000000  0.5148050000000 1.0
END
