TITL C-215736-9267-8 -0.0910606616020084 125000 -303.665787784107 0 0 46 (C1) n - 1
REM
REM in /rds/project/t2_vol4/rds-t2-cs072/BORA/CARBON/from-Arr/AIRSS/Generating-Clusters/GAP-ML-2020/Only-C1/SD-CG/HFTN-CG
REM
REM
REM
REM
REM
REM ./C.cell (11c1c37f851c82e70ff6c80c92926a4b)
REM AIRSS Version 0.9.1 bugfix July 2018 build 013d7b7c2542+ Fri, 06 Jul 2018 19:26:36 +0100
REM compiler GCC version 9.3.0
REM options -cpp -mtune=generic -march=x86-64 -g -O0
REM seed 1949211719 -2116205350 1027674477 -764573100 1012605717 1527921743 -1916111929 935595944 1967927637 7033554 -544285872 -466303304 1677139955 -173625539 -1341111234 -1524651764 -738053183 818910776 -1485077261 -703654864 -1158009803 318954562 -2115593340 -81343834 -606168690 -672172844 -170955266 -1517103542 2048317933 1536486190 -1269176572 1720941984 1055883081
REM
CELL 1.54180   50.00000   50.00000   50.00000   90.00000   90.00000   90.00000
LATT -1
SFAC C  
C      1  0.5360140000000  0.4562370000000  0.5268000000000 1.0
C      1  0.4713810000000  0.4569400000000  0.4679800000000 1.0
C      1  0.5475930000000  0.5345230000000  0.4803300000000 1.0
C      1  0.5367120000000  0.5253870000000  0.4579700000000 1.0
C      1  0.4740710000000  0.4902310000000  0.5168850000000 1.0
C      1  0.5259230000000  0.4318650000000  0.5166930000000 1.0
C      1  0.4855460000000  0.5412280000000  0.5405570000000 1.0
C      1  0.4800310000000  0.5455770000000  0.4595230000000 1.0
C      1  0.4882390000000  0.5133560000000  0.5284310000000 1.0
C      1  0.4493780000000  0.5029240000000  0.4658350000000 1.0
C      1  0.5365900000000  0.4717660000000  0.4602870000000 1.0
C      1  0.5141960000000  0.5449450000000  0.5453440000000 1.0
C      1  0.5446710000000  0.4555250000000  0.4809770000000 1.0
C      1  0.4936320000000  0.4982150000000  0.4509470000000 1.0
C      1  0.5501140000000  0.5417470000000  0.5063210000000 1.0
C      1  0.4541870000000  0.5512390000000  0.5029730000000 1.0
C      1  0.4833460000000  0.4258390000000  0.5043930000000 1.0
C      1  0.4854670000000  0.5759060000000  0.5049130000000 1.0
C      1  0.5474910000000  0.4958940000000  0.5056870000000 1.0
C      1  0.4986590000000  0.4286670000000  0.5266490000000 1.0
C      1  0.4449730000000  0.4890580000000  0.5111040000000 1.0
C      1  0.4671590000000  0.4669050000000  0.5394960000000 1.0
C      1  0.4354460000000  0.5077200000000  0.4909680000000 1.0
C      1  0.4732320000000  0.5174190000000  0.4582790000000 1.0
C      1  0.5559810000000  0.5174070000000  0.5215330000000 1.0
C      1  0.4984220000000  0.4760650000000  0.5055400000000 1.0
C      1  0.4860900000000  0.4509230000000  0.4910660000000 1.0
C      1  0.4799420000000  0.4736230000000  0.4466430000000 1.0
C      1  0.4412170000000  0.4716450000000  0.5329510000000 1.0
C      1  0.5014900000000  0.5524270000000  0.4408620000000 1.0
C      1  0.5086900000000  0.5195260000000  0.5093500000000 1.0
C      1  0.5250240000000  0.5434880000000  0.4376090000000 1.0
C      1  0.5095870000000  0.4995120000000  0.5430360000000 1.0
C      1  0.4724070000000  0.5601220000000  0.5253310000000 1.0
C      1  0.5239630000000  0.5424220000000  0.5181930000000 1.0
C      1  0.5263520000000  0.5187440000000  0.5552840000000 1.0
C      1  0.5361320000000  0.4302990000000  0.4910010000000 1.0
C      1  0.5521470000000  0.4688900000000  0.5069890000000 1.0
C      1  0.4908630000000  0.4521220000000  0.5429720000000 1.0
C      1  0.5184610000000  0.4975250000000  0.4940600000000 1.0
C      1  0.5533540000000  0.5168090000000  0.5493450000000 1.0
C      1  0.4349710000000  0.5338280000000  0.5000470000000 1.0
C      1  0.5217160000000  0.4977060000000  0.4633630000000 1.0
C      1  0.4741380000000  0.5605140000000  0.4832780000000 1.0
C      1  0.5116090000000  0.4714930000000  0.5350050000000 1.0
C      1  0.4533910000000  0.4757950000000  0.4572020000000 1.0
END
