TITL C-214959-5969-7 -0.134230105737903 125000 -595.9007121118 0 0 88 (C1) n - 1
REM
REM in /rds/project/t2_vol4/rds-t2-cs072/BORA/CARBON/from-Arr/AIRSS/Generating-Clusters/GAP-ML-2020/Only-C1/SD-CG/HFTN-CG
REM
REM
REM
REM
REM
REM ./C.cell (11c1c37f851c82e70ff6c80c92926a4b)
REM AIRSS Version 0.9.1 bugfix July 2018 build 013d7b7c2542+ Fri, 06 Jul 2018 19:26:36 +0100
REM compiler GCC version 9.3.0
REM options -cpp -mtune=generic -march=x86-64 -g -O0
REM seed 541106809 18516555 -1352129553 -546417524 -478211068 -1716627233 1585961184 -1697009023 1586908854 -1565227378 -1825256404 1697372887 -1156515226 -2031163610 840136972 1500822131 453808305 -1187598479 -1794473730 -983754840 1836316223 -2041728114 1745446000 830322226 -1478317737 265788370 359240885 1483684027 -337193424 -342623951 -1538353221 -1363470489 246268256
REM
CELL 1.54180   50.00000   50.00000   50.00000   90.00000   90.00000   90.00000
LATT -1
SFAC C  
C      1  0.4396200000000  0.5212410000000  0.4380940000000 1.0
C      1  0.5051120000000  0.5065920000000  0.5226990000000 1.0
C      1  0.4938290000000  0.5627240000000  0.5600300000000 1.0
C      1  0.5374490000000  0.5396680000000  0.5599040000000 1.0
C      1  0.4235640000000  0.5003060000000  0.4917890000000 1.0
C      1  0.4862880000000  0.4500230000000  0.4427640000000 1.0
C      1  0.5058680000000  0.5830130000000  0.5438180000000 1.0
C      1  0.4817490000000  0.5178430000000  0.4200170000000 1.0
C      1  0.5186930000000  0.4921450000000  0.4703240000000 1.0
C      1  0.4673760000000  0.5301300000000  0.5277310000000 1.0
C      1  0.5106490000000  0.4902560000000  0.5755210000000 1.0
C      1  0.4908330000000  0.5484590000000  0.4558050000000 1.0
C      1  0.5461830000000  0.5586910000000  0.4915100000000 1.0
C      1  0.4890540000000  0.4112600000000  0.4970830000000 1.0
C      1  0.5296730000000  0.5792240000000  0.5307730000000 1.0
C      1  0.5806260000000  0.5338710000000  0.5111300000000 1.0
C      1  0.5474310000000  0.4648800000000  0.4511910000000 1.0
C      1  0.5158230000000  0.4502380000000  0.5484920000000 1.0
C      1  0.4523910000000  0.4773990000000  0.4270730000000 1.0
C      1  0.5689020000000  0.4662120000000  0.5003880000000 1.0
C      1  0.4496540000000  0.5524340000000  0.5322730000000 1.0
C      1  0.4885240000000  0.5456110000000  0.5074550000000 1.0
C      1  0.5373290000000  0.5063300000000  0.4889310000000 1.0
C      1  0.4568890000000  0.5106910000000  0.5100490000000 1.0
C      1  0.5049660000000  0.4292910000000  0.4487640000000 1.0
C      1  0.4425320000000  0.4976730000000  0.5671220000000 1.0
C      1  0.4334000000000  0.4937800000000  0.4414630000000 1.0
C      1  0.4997790000000  0.4679810000000  0.5617290000000 1.0
C      1  0.4428290000000  0.5367310000000  0.4612770000000 1.0
C      1  0.4998670000000  0.4734250000000  0.4286720000000 1.0
C      1  0.5256320000000  0.4860650000000  0.4408030000000 1.0
C      1  0.5042880000000  0.4126220000000  0.4724410000000 1.0
C      1  0.5626870000000  0.5520350000000  0.5172700000000 1.0
C      1  0.4622300000000  0.4237800000000  0.5040390000000 1.0
C      1  0.5525660000000  0.5258290000000  0.4529660000000 1.0
C      1  0.4794900000000  0.4666450000000  0.5137960000000 1.0
C      1  0.5684620000000  0.4950290000000  0.5436060000000 1.0
C      1  0.4667660000000  0.5698120000000  0.5458660000000 1.0
C      1  0.5284480000000  0.4916710000000  0.5140910000000 1.0
C      1  0.5289580000000  0.5158270000000  0.4391020000000 1.0
C      1  0.4402570000000  0.5543280000000  0.5043240000000 1.0
C      1  0.5471090000000  0.5584010000000  0.5404370000000 1.0
C      1  0.4521520000000  0.4337780000000  0.5275380000000 1.0
C      1  0.5129390000000  0.5346760000000  0.5176800000000 1.0
C      1  0.4865430000000  0.4594280000000  0.4711270000000 1.0
C      1  0.5775320000000  0.4887470000000  0.5160900000000 1.0
C      1  0.5644240000000  0.4751650000000  0.4721110000000 1.0
C      1  0.4826100000000  0.5748220000000  0.5031790000000 1.0
C      1  0.5100510000000  0.4212170000000  0.5129590000000 1.0
C      1  0.4751730000000  0.4882710000000  0.4668670000000 1.0
C      1  0.4270490000000  0.4827630000000  0.4681890000000 1.0
C      1  0.4524330000000  0.4592490000000  0.5400360000000 1.0
C      1  0.5378700000000  0.4223110000000  0.5043240000000 1.0
C      1  0.4641320000000  0.4502290000000  0.4895010000000 1.0
C      1  0.5439790000000  0.4519110000000  0.5440460000000 1.0
C      1  0.5539340000000  0.5505320000000  0.4648700000000 1.0
C      1  0.4428480000000  0.4582760000000  0.4678130000000 1.0
C      1  0.4815620000000  0.5869610000000  0.5284780000000 1.0
C      1  0.4825010000000  0.4955340000000  0.5028640000000 1.0
C      1  0.5271660000000  0.5344790000000  0.4917700000000 1.0
C      1  0.5495720000000  0.4476560000000  0.5142990000000 1.0
C      1  0.4989150000000  0.5356040000000  0.4806140000000 1.0
C      1  0.4921940000000  0.5133070000000  0.5726930000000 1.0
C      1  0.4588660000000  0.5689640000000  0.4882640000000 1.0
C      1  0.5304860000000  0.4429180000000  0.4593500000000 1.0
C      1  0.5311160000000  0.5801420000000  0.5033010000000 1.0
C      1  0.4786420000000  0.4888380000000  0.4190780000000 1.0
C      1  0.5036640000000  0.4485900000000  0.5214710000000 1.0
C      1  0.4767870000000  0.4759340000000  0.5444450000000 1.0
C      1  0.5078380000000  0.5399810000000  0.5691410000000 1.0
C      1  0.5539080000000  0.4739860000000  0.5568330000000 1.0
C      1  0.4337020000000  0.4952940000000  0.5183950000000 1.0
C      1  0.5149070000000  0.4633870000000  0.4785670000000 1.0
C      1  0.4566860000000  0.5289350000000  0.4175070000000 1.0
C      1  0.5811060000000  0.5105460000000  0.4982450000000 1.0
C      1  0.5328190000000  0.4198470000000  0.4771960000000 1.0
C      1  0.5523300000000  0.5153950000000  0.5605830000000 1.0
C      1  0.5028910000000  0.5307830000000  0.4350740000000 1.0
C      1  0.5645510000000  0.5044860000000  0.4742380000000 1.0
C      1  0.4826020000000  0.5075490000000  0.5443060000000 1.0
C      1  0.4636660000000  0.5559580000000  0.4629150000000 1.0
C      1  0.4934000000000  0.5054000000000  0.4775900000000 1.0
C      1  0.4558900000000  0.4546350000000  0.4419130000000 1.0
C      1  0.4339920000000  0.4817400000000  0.5434070000000 1.0
C      1  0.5382070000000  0.4929980000000  0.5724940000000 1.0
C      1  0.4364370000000  0.5279490000000  0.4886530000000 1.0
C      1  0.4620840000000  0.5071330000000  0.5809630000000 1.0
C      1  0.5240710000000  0.4635310000000  0.5064140000000 1.0
END
