TITL C-21918-2293-6 -0.0732232935960997 125000 -251.987547570465 0 0 37 (C1) n - 1
REM
REM in /rds/project/t2_vol4/rds-t2-cs072/BORA/CARBON/from-Arr/AIRSS/Generating-Clusters/GAP-ML-2020/Only-C1/SD-CG/HFTN-CG
REM
REM
REM
REM
REM
REM ./C.cell (11c1c37f851c82e70ff6c80c92926a4b)
REM AIRSS Version 0.9.1 bugfix July 2018 build 013d7b7c2542+ Fri, 06 Jul 2018 19:26:36 +0100
REM compiler GCC version 9.3.0
REM options -cpp -mtune=generic -march=x86-64 -g -O0
REM seed 1807381629 454736951 582167801 -611982383 -340725479 1646376279 1075351718 -1725803770 1203415469 1227767329 1949931720 -834423394 1783557220 -1071196738 -618520095 -1578351924 818847408 74398162 1085908158 1973123143 363353679 448275597 -1540170732 932872912 -1153815969 -314274322 901464615 -210420153 455477003 -1505969925 198875577 1457501840 423960504
REM
CELL 1.54180   50.00000   50.00000   50.00000   90.00000   90.00000   90.00000
LATT -1
SFAC C  
C      1  0.4631820000000  0.4763530000000  0.5057680000000 1.0
C      1  0.5321530000000  0.5055040000000  0.4603770000000 1.0
C      1  0.4509210000000  0.4941030000000  0.5242870000000 1.0
C      1  0.4630390000000  0.4886390000000  0.4794780000000 1.0
C      1  0.5449650000000  0.4892320000000  0.4818580000000 1.0
C      1  0.4493170000000  0.5412420000000  0.5283500000000 1.0
C      1  0.4849990000000  0.5321590000000  0.5538740000000 1.0
C      1  0.4629160000000  0.5167900000000  0.4858010000000 1.0
C      1  0.4652900000000  0.4454140000000  0.4624540000000 1.0
C      1  0.4705330000000  0.4731600000000  0.4575730000000 1.0
C      1  0.5198760000000  0.5026220000000  0.5464620000000 1.0
C      1  0.4845820000000  0.4296110000000  0.4696160000000 1.0
C      1  0.5105790000000  0.5387720000000  0.4884300000000 1.0
C      1  0.4983220000000  0.5219070000000  0.4282920000000 1.0
C      1  0.5006530000000  0.4878390000000  0.5604910000000 1.0
C      1  0.5070720000000  0.4439170000000  0.4793650000000 1.0
C      1  0.4609000000000  0.4893730000000  0.5503090000000 1.0
C      1  0.4639750000000  0.5496000000000  0.5473480000000 1.0
C      1  0.5200630000000  0.5399100000000  0.5156990000000 1.0
C      1  0.4982410000000  0.4745100000000  0.4457070000000 1.0
C      1  0.5097760000000  0.5289910000000  0.5403890000000 1.0
C      1  0.4834510000000  0.4697160000000  0.5466540000000 1.0
C      1  0.4840780000000  0.5344310000000  0.4761050000000 1.0
C      1  0.5653500000000  0.5072020000000  0.4931420000000 1.0
C      1  0.4862970000000  0.5324540000000  0.4481880000000 1.0
C      1  0.5312490000000  0.4772510000000  0.5050600000000 1.0
C      1  0.5576760000000  0.5339580000000  0.4878300000000 1.0
C      1  0.5600770000000  0.5109300000000  0.5214110000000 1.0
C      1  0.5501440000000  0.5385870000000  0.5152900000000 1.0
C      1  0.4851930000000  0.4638710000000  0.5183770000000 1.0
C      1  0.4779320000000  0.5067800000000  0.5649320000000 1.0
C      1  0.5388390000000  0.4923620000000  0.5282680000000 1.0
C      1  0.4493640000000  0.5195660000000  0.5115740000000 1.0
C      1  0.5145390000000  0.4530410000000  0.4535970000000 1.0
C      1  0.5093190000000  0.4586720000000  0.5034660000000 1.0
C      1  0.5116840000000  0.4993260000000  0.4421030000000 1.0
C      1  0.5334540000000  0.5322070000000  0.4720740000000 1.0
END
