TITL C-2109096-2936-2 -0.0241584070963366 125000 -374.81923875901 0 0 56 (C1) n - 1
REM
REM in /nfs/bkarasulu/CARBON/AIRSS/Generating-Clusters/GAP-ML-2020/Only-C1/SD-CG/HFTN-CG
REM
REM
REM
REM
REM
REM ./C.cell (11c1c37f851c82e70ff6c80c92926a4b)
REM
REM compiler GCC version 9.2.1 20190827 (Red Hat 9.2.1-1)
REM options -cpp -mtune=generic -march=x86-64 -g -O0 -fpre-include=/usr/include/finclude/math-vector-fortran.h
REM seed 1432291018 -772160948 -608095530 1454621396 523115655 -1182870677 -1678783853 -2066236128 1852155525 -1035433012 -1959655378 -1507669706 1389536379 -639222392 -2002059354 2102001243 -1155337131 -2098204628 -1119349899 194953647 778933895 129204190 1408679325 1201544141 -1982632058 166387 -1278426455 -1044015293 -433866091 285817009 -72650705 -66477103 600595463
REM
CELL 1.54180   50.00000   50.00000   50.00000   90.00000   90.00000   90.00000
LATT -1
SFAC C  
C      1  0.5261270000000  0.4407010000000  0.5233360000000 1.0
C      1  0.4279990000000  0.4972480000000  0.4957630000000 1.0
C      1  0.4463730000000  0.4567890000000  0.4816380000000 1.0
C      1  0.4926600000000  0.5247700000000  0.5138920000000 1.0
C      1  0.5062340000000  0.5516850000000  0.5047510000000 1.0
C      1  0.4651160000000  0.4553650000000  0.5038450000000 1.0
C      1  0.4671520000000  0.4882810000000  0.4480010000000 1.0
C      1  0.5558280000000  0.4984130000000  0.5544050000000 1.0
C      1  0.4861020000000  0.4557600000000  0.4521120000000 1.0
C      1  0.5585630000000  0.5278030000000  0.5174830000000 1.0
C      1  0.5097510000000  0.5246170000000  0.4660320000000 1.0
C      1  0.4694810000000  0.4827950000000  0.5140370000000 1.0
C      1  0.5153000000000  0.4759100000000  0.5632900000000 1.0
C      1  0.5266810000000  0.4494350000000  0.4741080000000 1.0
C      1  0.4724860000000  0.5355910000000  0.5346020000000 1.0
C      1  0.4408430000000  0.5458300000000  0.4841960000000 1.0
C      1  0.4872800000000  0.4388370000000  0.5088660000000 1.0
C      1  0.5544860000000  0.4813480000000  0.5118750000000 1.0
C      1  0.5289330000000  0.4987910000000  0.5037440000000 1.0
C      1  0.5437330000000  0.4878700000000  0.4500560000000 1.0
C      1  0.5449600000000  0.4604280000000  0.5304970000000 1.0
C      1  0.4390980000000  0.5181460000000  0.4785010000000 1.0
C      1  0.5462300000000  0.5233570000000  0.4912560000000 1.0
C      1  0.5080270000000  0.4955210000000  0.4819340000000 1.0
C      1  0.4940800000000  0.4797770000000  0.4378040000000 1.0
C      1  0.4355180000000  0.5599500000000  0.5077150000000 1.0
C      1  0.5427820000000  0.5214410000000  0.5608760000000 1.0
C      1  0.4810590000000  0.5645030000000  0.4975790000000 1.0
C      1  0.5242110000000  0.5412880000000  0.4839630000000 1.0
C      1  0.5040030000000  0.4998290000000  0.5515530000000 1.0
C      1  0.5359170000000  0.5351270000000  0.5366590000000 1.0
C      1  0.4933320000000  0.5489810000000  0.5491650000000 1.0
C      1  0.5157000000000  0.5116770000000  0.5271160000000 1.0
C      1  0.5650920000000  0.4792210000000  0.4846430000000 1.0
C      1  0.4922390000000  0.5348030000000  0.4318500000000 1.0
C      1  0.5571950000000  0.5041020000000  0.4706070000000 1.0
C      1  0.4578530000000  0.5093910000000  0.5411720000000 1.0
C      1  0.4651830000000  0.5095180000000  0.4684870000000 1.0
C      1  0.5493800000000  0.4637880000000  0.4663340000000 1.0
C      1  0.5423620000000  0.4725670000000  0.5561720000000 1.0
C      1  0.5043410000000  0.4660060000000  0.4708880000000 1.0
C      1  0.4805770000000  0.5339400000000  0.4588780000000 1.0
C      1  0.4444000000000  0.4983510000000  0.5190310000000 1.0
C      1  0.4778830000000  0.4876340000000  0.5436350000000 1.0
C      1  0.5202110000000  0.4923460000000  0.4339280000000 1.0
C      1  0.4233940000000  0.4718300000000  0.4868130000000 1.0
C      1  0.4607080000000  0.5578640000000  0.5188670000000 1.0
C      1  0.4582930000000  0.4618850000000  0.4560010000000 1.0
C      1  0.4991480000000  0.4422180000000  0.5350040000000 1.0
C      1  0.4683220000000  0.5553220000000  0.4740570000000 1.0
C      1  0.5151690000000  0.5210810000000  0.4358970000000 1.0
C      1  0.4827390000000  0.5027270000000  0.4950090000000 1.0
C      1  0.5152970000000  0.5555040000000  0.5337160000000 1.0
C      1  0.5668070000000  0.5023080000000  0.5283140000000 1.0
C      1  0.4921180000000  0.4621660000000  0.5533290000000 1.0
C      1  0.5152470000000  0.4375650000000  0.4967150000000 1.0
END
