TITL C-2109096-2936-26 -230.571058265794 125000 -379.512544516814 0 0 55 (C1) n - 1
REM
REM in /nfs/bkarasulu/CARBON/AIRSS/Generating-Clusters/GAP-ML-2020/Only-C1/SD-CG/HFTN-CG
REM
REM
REM
REM
REM
REM ./C.cell (11c1c37f851c82e70ff6c80c92926a4b)
REM
REM compiler GCC version 9.2.1 20190827 (Red Hat 9.2.1-1)
REM options -cpp -mtune=generic -march=x86-64 -g -O0 -fpre-include=/usr/include/finclude/math-vector-fortran.h
REM seed -157147123 -1414988696 248135868 905274539 -1505815142 7866541 563294127 1170518772 -803939134 -425040359 1301819765 -1160683938 -14593390 1921320177 322506104 689361213 -977473186 -677607720 -1683356206 -1311198805 -571814012 -1355538099 989753725 1906386141 -1081930592 -1792983448 -730591895 1285436331 924007123 -1145315112 -406695433 -1794309293 183942952
REM
CELL 1.54180   50.00000   50.00000   50.00000   90.00000   90.00000   90.00000
LATT -1
SFAC C  
C      1  0.5491820000000  0.4646370000000  0.4703900000000 1.0
C      1  0.4862040000000  0.5052740000000  0.5208860000000 1.0
C      1  0.5255240000000  0.4207340000000  0.5019570000000 1.0
C      1  0.5782810000000  0.5088000000000  0.4677400000000 1.0
C      1  0.5227610000000  0.5307700000000  0.5422860000000 1.0
C      1  0.5354950000000  0.4823210000000  0.5407480000000 1.0
C      1  0.4518060000000  0.4686440000000  0.5287020000000 1.0
C      1  0.4429460000000  0.5226120000000  0.5379870000000 1.0
C      1  0.5373680000000  0.5336490000000  0.5182650000000 1.0
C      1  0.4575790000000  0.4809290000000  0.5538230000000 1.0
C      1  0.4804930000000  0.5566970000000  0.5250580000000 1.0
C      1  0.4981280000000  0.5470190000000  0.5468120000000 1.0
C      1  0.4467950000000  0.5268750000000  0.4509920000000 1.0
C      1  0.4831340000000  0.4292240000000  0.4769860000000 1.0
C      1  0.5480080000000  0.5514380000000  0.4726540000000 1.0
C      1  0.5482580000000  0.4865400000000  0.5153130000000 1.0
C      1  0.5113020000000  0.4187590000000  0.4800530000000 1.0
C      1  0.4897920000000  0.5657310000000  0.4998000000000 1.0
C      1  0.4540710000000  0.5460390000000  0.5244040000000 1.0
C      1  0.5029080000000  0.4797260000000  0.4560150000000 1.0
C      1  0.5410550000000  0.5569610000000  0.5019280000000 1.0
C      1  0.4994980000000  0.4763430000000  0.4854650000000 1.0
C      1  0.4793460000000  0.4541430000000  0.4927280000000 1.0
C      1  0.4527380000000  0.5424450000000  0.4739450000000 1.0
C      1  0.5151280000000  0.5050660000000  0.4453060000000 1.0
C      1  0.5244740000000  0.4569470000000  0.4562330000000 1.0
C      1  0.4538310000000  0.5083540000000  0.5587280000000 1.0
C      1  0.5425070000000  0.5084420000000  0.4468290000000 1.0
C      1  0.5228540000000  0.4563130000000  0.5378650000000 1.0
C      1  0.5505340000000  0.4624980000000  0.4997320000000 1.0
C      1  0.5601540000000  0.4882930000000  0.4599870000000 1.0
C      1  0.4979330000000  0.5510670000000  0.4558610000000 1.0
C      1  0.4437720000000  0.4844620000000  0.5048790000000 1.0
C      1  0.4952510000000  0.5248710000000  0.4443710000000 1.0
C      1  0.4851070000000  0.5443420000000  0.5710980000000 1.0
C      1  0.4987210000000  0.4973360000000  0.5685140000000 1.0
C      1  0.4692370000000  0.5115830000000  0.4477150000000 1.0
C      1  0.5044230000000  0.5003910000000  0.5016830000000 1.0
C      1  0.4788600000000  0.5186020000000  0.5689030000000 1.0
C      1  0.5592680000000  0.5295700000000  0.4599610000000 1.0
C      1  0.4742240000000  0.4521430000000  0.5224830000000 1.0
C      1  0.4724070000000  0.4847200000000  0.4574380000000 1.0
C      1  0.5347860000000  0.4431650000000  0.5144830000000 1.0
C      1  0.5171360000000  0.5714620000000  0.4934890000000 1.0
C      1  0.4857560000000  0.4308480000000  0.4491570000000 1.0
C      1  0.5353850000000  0.5090280000000  0.5039000000000 1.0
C      1  0.4845440000000  0.4738990000000  0.5616120000000 1.0
C      1  0.5224060000000  0.5623500000000  0.4655650000000 1.0
C      1  0.4947210000000  0.4546880000000  0.5435370000000 1.0
C      1  0.5228000000000  0.5040300000000  0.5539910000000 1.0
C      1  0.4774040000000  0.5572310000000  0.4751960000000 1.0
C      1  0.4595890000000  0.4742900000000  0.4817680000000 1.0
C      1  0.5152860000000  0.4305000000000  0.4534010000000 1.0
C      1  0.4359170000000  0.5109230000000  0.5119890000000 1.0
C      1  0.4429100000000  0.5362790000000  0.4993880000000 1.0
END
