TITL C-21805-4470-9 -0.0549510605367608 125000 -553.693778710632 0 0 80 (C1) n - 1
REM
REM in /rds/project/t2_vol4/rds-t2-cs072/BORA/CARBON/from-Arr/AIRSS/Generating-Clusters/GAP-ML-2020/Only-C1/SD-CG/HFTN-CG
REM
REM
REM
REM
REM
REM ./C.cell (11c1c37f851c82e70ff6c80c92926a4b)
REM AIRSS Version 0.9.1 bugfix July 2018 build 013d7b7c2542+ Fri, 06 Jul 2018 19:26:36 +0100
REM compiler GCC version 9.3.0
REM options -cpp -mtune=generic -march=x86-64 -g -O0
REM seed 2137115140 -37303563 -2100716682 564610877 -547012146 -1392333326 232086102 1426060178 -245545435 -133192213 -1056207031 2121978497 271167303 -1964443874 1979624442 -1209527714 -107543864 393631403 1930234372 735803578 67985903 -335983678 -1975750518 2056539556 1659787077 -96927451 -1918250735 176350881 1495329305 1012531236 -782587108 -1331680067 993253553
REM
CELL 1.54180   50.00000   50.00000   50.00000   90.00000   90.00000   90.00000
LATT -1
SFAC C  
C      1  0.4593180000000  0.4450930000000  0.5568730000000 1.0
C      1  0.5554190000000  0.4841230000000  0.4482290000000 1.0
C      1  0.5591630000000  0.5512730000000  0.4781470000000 1.0
C      1  0.4884960000000  0.4623910000000  0.4243610000000 1.0
C      1  0.5706570000000  0.5234830000000  0.4769830000000 1.0
C      1  0.5032060000000  0.5715830000000  0.5220830000000 1.0
C      1  0.5188270000000  0.4617420000000  0.5069820000000 1.0
C      1  0.5576580000000  0.4675150000000  0.4715480000000 1.0
C      1  0.5421340000000  0.5534740000000  0.5025620000000 1.0
C      1  0.4835380000000  0.4376920000000  0.4684860000000 1.0
C      1  0.4246680000000  0.4786720000000  0.5014860000000 1.0
C      1  0.5059120000000  0.5475450000000  0.5612920000000 1.0
C      1  0.4640520000000  0.4912460000000  0.5206570000000 1.0
C      1  0.5186300000000  0.4469960000000  0.5499100000000 1.0
C      1  0.5160560000000  0.5663070000000  0.4978210000000 1.0
C      1  0.4294390000000  0.5266560000000  0.4759040000000 1.0
C      1  0.5458640000000  0.4532480000000  0.5417240000000 1.0
C      1  0.4861410000000  0.5291930000000  0.4949790000000 1.0
C      1  0.4747010000000  0.4838030000000  0.4928110000000 1.0
C      1  0.4730780000000  0.4608430000000  0.5782700000000 1.0
C      1  0.4673840000000  0.4287590000000  0.5368470000000 1.0
C      1  0.5592910000000  0.4971100000000  0.5567860000000 1.0
C      1  0.4670850000000  0.5071450000000  0.5755610000000 1.0
C      1  0.5015950000000  0.5059730000000  0.4121950000000 1.0
C      1  0.5283050000000  0.5530120000000  0.4338700000000 1.0
C      1  0.4861220000000  0.4817420000000  0.5381030000000 1.0
C      1  0.5087730000000  0.5115690000000  0.5108010000000 1.0
C      1  0.4977580000000  0.4435230000000  0.4440620000000 1.0
C      1  0.4766440000000  0.5081600000000  0.4734090000000 1.0
C      1  0.4771050000000  0.5616440000000  0.5286060000000 1.0
C      1  0.4309770000000  0.4806470000000  0.4598070000000 1.0
C      1  0.5622160000000  0.4780730000000  0.4972810000000 1.0
C      1  0.4399900000000  0.4685560000000  0.5526970000000 1.0
C      1  0.5105420000000  0.4808010000000  0.4168870000000 1.0
C      1  0.5467980000000  0.5580030000000  0.4537520000000 1.0
C      1  0.4377310000000  0.4795410000000  0.5266230000000 1.0
C      1  0.4533160000000  0.4826910000000  0.5737410000000 1.0
C      1  0.5219050000000  0.5235380000000  0.4699580000000 1.0
C      1  0.5464710000000  0.5570400000000  0.5315720000000 1.0
C      1  0.4984350000000  0.4743410000000  0.5840330000000 1.0
C      1  0.4795840000000  0.4373930000000  0.5128370000000 1.0
C      1  0.4782190000000  0.5501470000000  0.5544370000000 1.0
C      1  0.4570540000000  0.5563850000000  0.4624720000000 1.0
C      1  0.5629260000000  0.5117590000000  0.4521230000000 1.0
C      1  0.5219250000000  0.4636910000000  0.5733910000000 1.0
C      1  0.5237690000000  0.4373520000000  0.4913250000000 1.0
C      1  0.5466960000000  0.4624030000000  0.5152880000000 1.0
C      1  0.4629970000000  0.5423640000000  0.5108020000000 1.0
C      1  0.5261180000000  0.4476490000000  0.4451490000000 1.0
C      1  0.5627700000000  0.5073630000000  0.5024350000000 1.0
C      1  0.5054880000000  0.4995290000000  0.4674860000000 1.0
C      1  0.5054990000000  0.4858070000000  0.4935320000000 1.0
C      1  0.4619740000000  0.5265130000000  0.5557790000000 1.0
C      1  0.4859520000000  0.5236710000000  0.4254190000000 1.0
C      1  0.4947800000000  0.5028090000000  0.5821490000000 1.0
C      1  0.5140750000000  0.5193210000000  0.5644300000000 1.0
C      1  0.5682280000000  0.5117260000000  0.5326380000000 1.0
C      1  0.5439290000000  0.5204930000000  0.5654680000000 1.0
C      1  0.5576810000000  0.5360750000000  0.5456720000000 1.0
C      1  0.5341780000000  0.5221670000000  0.4985500000000 1.0
C      1  0.5057790000000  0.5033460000000  0.5377010000000 1.0
C      1  0.5345080000000  0.4717840000000  0.4317070000000 1.0
C      1  0.4560050000000  0.5193170000000  0.5293890000000 1.0
C      1  0.4973510000000  0.4261070000000  0.4901450000000 1.0
C      1  0.4990500000000  0.4558630000000  0.5284940000000 1.0
C      1  0.4845790000000  0.5582720000000  0.4569490000000 1.0
C      1  0.4432410000000  0.5345720000000  0.4508000000000 1.0
C      1  0.4625340000000  0.5139700000000  0.4436980000000 1.0
C      1  0.5209770000000  0.5644920000000  0.5433640000000 1.0
C      1  0.4359570000000  0.4608900000000  0.4804720000000 1.0
C      1  0.4483820000000  0.4882920000000  0.4383910000000 1.0
C      1  0.5484020000000  0.4719370000000  0.5636450000000 1.0
C      1  0.4223040000000  0.4998440000000  0.4805670000000 1.0
C      1  0.4653040000000  0.4548250000000  0.4856680000000 1.0
C      1  0.4447310000000  0.5479650000000  0.4878570000000 1.0
C      1  0.4978570000000  0.5488750000000  0.4336270000000 1.0
C      1  0.5397650000000  0.4445760000000  0.4691820000000 1.0
C      1  0.5392720000000  0.5279940000000  0.4446300000000 1.0
C      1  0.5021600000000  0.5484140000000  0.4787160000000 1.0
C      1  0.4626020000000  0.4693060000000  0.4259150000000 1.0
END
