TITL C-21089-1266-1 0.119583932351987 125000 -501.34128417779 0 0 74 (C1) n - 1
REM
REM in /rds/project/t2_vol4/rds-t2-cs072/BORA/CARBON/from-Arr/AIRSS/Generating-Clusters/GAP-ML-2020/Only-C1/SD-CG/HFTN-CG
REM
REM
REM
REM
REM
REM ./C.cell (11c1c37f851c82e70ff6c80c92926a4b)
REM AIRSS Version 0.9.1 bugfix July 2018 build 013d7b7c2542+ Fri, 06 Jul 2018 19:26:36 +0100
REM compiler GCC version 9.3.0
REM options -cpp -mtune=generic -march=x86-64 -g -O0
REM seed -548708305 -555064692 1525212436 440948633 1857421109 1371909470 -1273404224 -678554119 -1423844195 -264044608 1124230297 -19576707 345469143 -1400444215 1215949938 -2134788816 2045267826 -2021772439 1369962881 326737431 -105645074 -1037807033 -1398415857 -1175617136 190102637 -1565447643 1509898975 703146998 -1176955590 -1672652598 1440759979 567907930 -1379341415
REM
CELL 1.54180   50.00000   50.00000   50.00000   90.00000   90.00000   90.00000
LATT -1
SFAC C  
C      1  0.5573710000000  0.5570320000000  0.5678570000000 1.0
C      1  0.5193860000000  0.4264090000000  0.4950730000000 1.0
C      1  0.5659880000000  0.4705520000000  0.5270620000000 1.0
C      1  0.5575680000000  0.5250810000000  0.4452780000000 1.0
C      1  0.5738080000000  0.4979270000000  0.5246780000000 1.0
C      1  0.4739760000000  0.5602550000000  0.5305190000000 1.0
C      1  0.5597350000000  0.4533520000000  0.5052680000000 1.0
C      1  0.5399330000000  0.5409350000000  0.5002810000000 1.0
C      1  0.4215550000000  0.5149590000000  0.4729620000000 1.0
C      1  0.5678780000000  0.5010540000000  0.4520900000000 1.0
C      1  0.4625020000000  0.4986600000000  0.5176670000000 1.0
C      1  0.4454550000000  0.5289700000000  0.4735510000000 1.0
C      1  0.4990430000000  0.4770500000000  0.4330030000000 1.0
C      1  0.5198150000000  0.4349190000000  0.4675460000000 1.0
C      1  0.4196440000000  0.4876730000000  0.4807880000000 1.0
C      1  0.4905990000000  0.4286540000000  0.4943600000000 1.0
C      1  0.4591010000000  0.4875350000000  0.4439500000000 1.0
C      1  0.4740390000000  0.4641810000000  0.4360040000000 1.0
C      1  0.5344700000000  0.4593140000000  0.4641350000000 1.0
C      1  0.4161090000000  0.5145220000000  0.5248240000000 1.0
C      1  0.5444640000000  0.5371740000000  0.5557410000000 1.0
C      1  0.4741330000000  0.4764110000000  0.5749690000000 1.0
C      1  0.5249960000000  0.5540110000000  0.4647840000000 1.0
C      1  0.4689990000000  0.4424650000000  0.4534880000000 1.0
C      1  0.5239030000000  0.4516360000000  0.5347900000000 1.0
C      1  0.5493030000000  0.5561590000000  0.4778090000000 1.0
C      1  0.5750620000000  0.4861420000000  0.4739990000000 1.0
C      1  0.4944410000000  0.5191810000000  0.4831520000000 1.0
C      1  0.5311210000000  0.4938070000000  0.5056920000000 1.0
C      1  0.4928200000000  0.4975070000000  0.5759470000000 1.0
C      1  0.4758210000000  0.4558010000000  0.5542620000000 1.0
C      1  0.4500360000000  0.4618110000000  0.5431860000000 1.0
C      1  0.4819450000000  0.4545160000000  0.5062290000000 1.0
C      1  0.4955060000000  0.4603930000000  0.5325140000000 1.0
C      1  0.4562700000000  0.5440810000000  0.5454140000000 1.0
C      1  0.5560760000000  0.5115140000000  0.5442190000000 1.0
C      1  0.5830490000000  0.5045480000000  0.4978210000000 1.0
C      1  0.5015160000000  0.5507360000000  0.4840900000000 1.0
C      1  0.4676200000000  0.5098390000000  0.4283780000000 1.0
C      1  0.5270740000000  0.5314930000000  0.4456720000000 1.0
C      1  0.5014270000000  0.5515530000000  0.5334140000000 1.0
C      1  0.4460790000000  0.4452560000000  0.4693410000000 1.0
C      1  0.5591010000000  0.4634230000000  0.4787190000000 1.0
C      1  0.5360530000000  0.4384810000000  0.5131840000000 1.0
C      1  0.4136150000000  0.5066220000000  0.4997770000000 1.0
C      1  0.5377500000000  0.5132190000000  0.4880980000000 1.0
C      1  0.4643900000000  0.4863930000000  0.4734010000000 1.0
C      1  0.4906380000000  0.5260720000000  0.5766080000000 1.0
C      1  0.5443370000000  0.4677490000000  0.5452080000000 1.0
C      1  0.5122240000000  0.5336030000000  0.5544200000000 1.0
C      1  0.4910880000000  0.4307620000000  0.4650540000000 1.0
C      1  0.5181180000000  0.5098220000000  0.4651190000000 1.0
C      1  0.5033120000000  0.4965500000000  0.5029070000000 1.0
C      1  0.4761150000000  0.5365960000000  0.4381730000000 1.0
C      1  0.5372130000000  0.4929800000000  0.5538260000000 1.0
C      1  0.4610790000000  0.5481100000000  0.4596210000000 1.0
C      1  0.4472580000000  0.4813240000000  0.5651390000000 1.0
C      1  0.5152280000000  0.5518990000000  0.5095520000000 1.0
C      1  0.5850340000000  0.5279950000000  0.4847110000000 1.0
C      1  0.5035860000000  0.5290670000000  0.4289290000000 1.0
C      1  0.4425470000000  0.5182020000000  0.5356640000000 1.0
C      1  0.5099290000000  0.5027770000000  0.5522120000000 1.0
C      1  0.4415410000000  0.4685190000000  0.4851810000000 1.0
C      1  0.4912010000000  0.4755960000000  0.4840580000000 1.0
C      1  0.4747190000000  0.5636830000000  0.4810090000000 1.0
C      1  0.4917310000000  0.4924100000000  0.5292970000000 1.0
C      1  0.5140860000000  0.4802160000000  0.4591040000000 1.0
C      1  0.4449710000000  0.5086600000000  0.5640700000000 1.0
C      1  0.5699770000000  0.5406470000000  0.4658930000000 1.0
C      1  0.4639650000000  0.5308730000000  0.5699620000000 1.0
C      1  0.4661040000000  0.5701240000000  0.5055730000000 1.0
C      1  0.4646990000000  0.5113270000000  0.4882340000000 1.0
C      1  0.4544250000000  0.4686310000000  0.5140540000000 1.0
C      1  0.4943260000000  0.5025980000000  0.4214310000000 1.0
END
