TITL C-21696-8284-2 2.53058235063463 125000 -574.956597448638 0 0 83 (C1) n - 1
REM
REM in /rds/project/t2_vol4/rds-t2-cs072/BORA/CARBON/from-Arr/AIRSS/Generating-Clusters/GAP-ML-2020/Only-C1/SD-CG/HFTN-CG
REM
REM
REM
REM
REM
REM ./C.cell (11c1c37f851c82e70ff6c80c92926a4b)
REM AIRSS Version 0.9.1 bugfix July 2018 build 013d7b7c2542+ Fri, 06 Jul 2018 19:26:36 +0100
REM compiler GCC version 9.3.0
REM options -cpp -mtune=generic -march=x86-64 -g -O0
REM seed 1880896633 -65493166 269206486 -1624168619 -779061375 -307091804 -14666011 363015868 1080116105 358516884 -1232465428 -117465974 1578053140 -1231880008 2086594714 -1009938504 1858103654 -520251436 1858909499 -565708363 -811599083 -1141959195 -274010223 998816634 -2104216518 1645864947 1454102876 128222486 -1195773334 -1244379258 -1398830698 1315087433 -1404296173
REM
CELL 1.54180   50.00000   50.00000   50.00000   90.00000   90.00000   90.00000
LATT -1
SFAC C  
C      1  0.4268790000000  0.4753920000000  0.4783520000000 1.0
C      1  0.5727440000000  0.4726000000000  0.4724450000000 1.0
C      1  0.5204140000000  0.5253810000000  0.4329950000000 1.0
C      1  0.5172550000000  0.4756170000000  0.4337580000000 1.0
C      1  0.4642820000000  0.5498270000000  0.4736240000000 1.0
C      1  0.5707740000000  0.5027750000000  0.4678310000000 1.0
C      1  0.4764940000000  0.4982130000000  0.5018340000000 1.0
C      1  0.4650630000000  0.5753420000000  0.4871330000000 1.0
C      1  0.5467660000000  0.4815840000000  0.5602350000000 1.0
C      1  0.5321520000000  0.4999490000000  0.4304960000000 1.0
C      1  0.5395920000000  0.5093060000000  0.5672540000000 1.0
C      1  0.4649000000000  0.5209230000000  0.5663470000000 1.0
C      1  0.5192230000000  0.5712820000000  0.4433680000000 1.0
C      1  0.5564710000000  0.5265200000000  0.5512440000000 1.0
C      1  0.4757670000000  0.5051270000000  0.4400150000000 1.0
C      1  0.4498060000000  0.5084560000000  0.4524080000000 1.0
C      1  0.4758920000000  0.4546130000000  0.5618140000000 1.0
C      1  0.5121920000000  0.5133270000000  0.5749800000000 1.0
C      1  0.4564490000000  0.4758020000000  0.5649510000000 1.0
C      1  0.5284850000000  0.4595060000000  0.5577000000000 1.0
C      1  0.5346090000000  0.5481470000000  0.4441930000000 1.0
C      1  0.4381360000000  0.4877210000000  0.5449130000000 1.0
C      1  0.5116000000000  0.4946350000000  0.5282290000000 1.0
C      1  0.4978070000000  0.4898120000000  0.5816590000000 1.0
C      1  0.4208140000000  0.4942170000000  0.4986760000000 1.0
C      1  0.5189340000000  0.5513250000000  0.4854530000000 1.0
C      1  0.4500610000000  0.4285620000000  0.5007180000000 1.0
C      1  0.5190430000000  0.5013700000000  0.4856300000000 1.0
C      1  0.5606530000000  0.4594630000000  0.5214500000000 1.0
C      1  0.4385110000000  0.5604800000000  0.5255960000000 1.0
C      1  0.4854290000000  0.5682060000000  0.5294240000000 1.0
C      1  0.5230820000000  0.5817140000000  0.4807030000000 1.0
C      1  0.4424010000000  0.5162760000000  0.5465470000000 1.0
C      1  0.4865290000000  0.5073820000000  0.5263110000000 1.0
C      1  0.4930150000000  0.5126310000000  0.4833060000000 1.0
C      1  0.4446110000000  0.5288780000000  0.4727800000000 1.0
C      1  0.4514310000000  0.4230540000000  0.5278230000000 1.0
C      1  0.5269910000000  0.5118610000000  0.5115400000000 1.0
C      1  0.4880500000000  0.4509080000000  0.5159820000000 1.0
C      1  0.4986530000000  0.4266140000000  0.5027460000000 1.0
C      1  0.4708490000000  0.4395430000000  0.5383120000000 1.0
C      1  0.5094490000000  0.5824540000000  0.5243980000000 1.0
C      1  0.4728700000000  0.4693130000000  0.4957480000000 1.0
C      1  0.4859570000000  0.5929550000000  0.4803100000000 1.0
C      1  0.4754800000000  0.4225370000000  0.4864940000000 1.0
C      1  0.5190020000000  0.5406240000000  0.5148230000000 1.0
C      1  0.4913320000000  0.4652070000000  0.4721830000000 1.0
C      1  0.4837780000000  0.4355320000000  0.4605560000000 1.0
C      1  0.4348620000000  0.4828430000000  0.4521940000000 1.0
C      1  0.5584450000000  0.4967690000000  0.4419750000000 1.0
C      1  0.5267960000000  0.4281220000000  0.5071830000000 1.0
C      1  0.5130120000000  0.4673210000000  0.5169170000000 1.0
C      1  0.4940090000000  0.5264640000000  0.4421130000000 1.0
C      1  0.5644130000000  0.4539390000000  0.4932130000000 1.0
C      1  0.5054590000000  0.5878660000000  0.4580390000000 1.0
C      1  0.4599990000000  0.5743330000000  0.5162670000000 1.0
C      1  0.5696250000000  0.5306750000000  0.5113060000000 1.0
C      1  0.5344660000000  0.4485820000000  0.5291360000000 1.0
C      1  0.5328670000000  0.4323210000000  0.4584420000000 1.0
C      1  0.5719970000000  0.5102800000000  0.5331330000000 1.0
C      1  0.5163140000000  0.4730450000000  0.4865490000000 1.0
C      1  0.4919450000000  0.5389760000000  0.4699600000000 1.0
C      1  0.5610430000000  0.4682900000000  0.4467020000000 1.0
C      1  0.4298930000000  0.4766860000000  0.5202200000000 1.0
C      1  0.5546880000000  0.5485940000000  0.5311540000000 1.0
C      1  0.4696150000000  0.4962920000000  0.5789330000000 1.0
C      1  0.4434870000000  0.4590440000000  0.4973350000000 1.0
C      1  0.5448250000000  0.4334250000000  0.4855450000000 1.0
C      1  0.5656860000000  0.5275460000000  0.4826930000000 1.0
C      1  0.5437270000000  0.5427820000000  0.4712070000000 1.0
C      1  0.4289550000000  0.5210900000000  0.4969610000000 1.0
C      1  0.4431600000000  0.4614400000000  0.4352180000000 1.0
C      1  0.4924560000000  0.5317680000000  0.5625460000000 1.0
C      1  0.4938560000000  0.5393150000000  0.5333490000000 1.0
C      1  0.4338040000000  0.5335330000000  0.5241140000000 1.0
C      1  0.5079880000000  0.4233010000000  0.4530180000000 1.0
C      1  0.5369420000000  0.4554170000000  0.4415640000000 1.0
C      1  0.4685240000000  0.4537830000000  0.4386540000000 1.0
C      1  0.5323100000000  0.5639910000000  0.5275690000000 1.0
C      1  0.4884740000000  0.4768340000000  0.4427450000000 1.0
C      1  0.5656670000000  0.4821220000000  0.5386000000000 1.0
C      1  0.5026450000000  0.4636950000000  0.5699040000000 1.0
C      1  0.5073700000000  0.5965580000000  0.5002520000000 1.0
END
