TITL C-2109097-5040-30 -13.1288231909528 125000 -64.9834613233343 0 0 11 (C1) n - 1
REM
REM in /nfs/bkarasulu/CARBON/AIRSS/Generating-Clusters/GAP-ML-2020/Only-C1/SD-CG/HFTN-CG
REM
REM
REM
REM
REM
REM ./C.cell (11c1c37f851c82e70ff6c80c92926a4b)
REM
REM compiler GCC version 9.2.1 20190827 (Red Hat 9.2.1-1)
REM options -cpp -mtune=generic -march=x86-64 -g -O0 -fpre-include=/usr/include/finclude/math-vector-fortran.h
REM seed -1155729649 1409252635 -1502686687 -1435540035 284373591 -1021777187 2012871290 -958128710 -1249876311 -1491080406 -2130259991 -1140143128 -1104365908 -492159633 1991544806 1284039166 344785064 -78989102 461241057 877418543 -1310095569 -1346741634 -776169059 -2033670296 -1998099237 -1965210957 -263348532 -1089303407 -2087610362 -2037129618 -1980159697 -1147553041 -1395323720
REM
CELL 1.54180   50.00000   50.00000   50.00000   90.00000   90.00000   90.00000
LATT -1
SFAC C  
C      1  0.4651600000000  0.4665020000000  0.5175230000000 1.0
C      1  0.4973930000000  0.5041800000000  0.5048320000000 1.0
C      1  0.5338290000000  0.5382510000000  0.5225050000000 1.0
C      1  0.4892090000000  0.4606980000000  0.5230190000000 1.0
C      1  0.5500410000000  0.5237600000000  0.5083960000000 1.0
C      1  0.5042570000000  0.5319370000000  0.4815330000000 1.0
C      1  0.4853950000000  0.4784420000000  0.4984290000000 1.0
C      1  0.4834320000000  0.5299570000000  0.4991020000000 1.0
C      1  0.4746070000000  0.4810590000000  0.4697500000000 1.0
C      1  0.5214120000000  0.5198000000000  0.5028340000000 1.0
C      1  0.4952660000000  0.4654140000000  0.4720790000000 1.0
END
