TITL C-2114528-2131-9 -0.32939880791993 125000 -536.641284409094 0 0 79 (C1) n - 1
REM
REM in /nfs/bkarasulu/CARBON/AIRSS/Generating-Clusters/GAP-ML-2020/Only-C1/SD-CG/HFTN-CG
REM
REM
REM
REM
REM
REM ./C.cell (11c1c37f851c82e70ff6c80c92926a4b)
REM
REM compiler GCC version 9.2.1 20190827 (Red Hat 9.2.1-1)
REM options -cpp -mtune=generic -march=x86-64 -g -O0 -fpre-include=/usr/include/finclude/math-vector-fortran.h
REM seed -390405718 -1098606275 757229154 -1170448301 -1402610799 -641377896 -241544297 1333487140 1529079139 2067590677 -546947762 1029070449 -1590894882 -1168777289 -353981891 2078479733 -1003003528 320565742 2053765388 -576849973 -1638584706 -1530539574 -1575697371 665399532 847376855 -237891527 2120969463 350060411 -1692162391 -2041967475 -1037330001 1180362441 -204593257
REM
CELL 1.54180   50.00000   50.00000   50.00000   90.00000   90.00000   90.00000
LATT -1
SFAC C  
C      1  0.4919690000000  0.5347130000000  0.4325680000000 1.0
C      1  0.4658430000000  0.4941380000000  0.4332160000000 1.0
C      1  0.4439360000000  0.4784760000000  0.5268470000000 1.0
C      1  0.5547540000000  0.4990080000000  0.4481240000000 1.0
C      1  0.5368170000000  0.5050000000000  0.5902740000000 1.0
C      1  0.5821480000000  0.4899490000000  0.4865280000000 1.0
C      1  0.4915470000000  0.4961950000000  0.5737780000000 1.0
C      1  0.5463560000000  0.5445240000000  0.4709170000000 1.0
C      1  0.4923630000000  0.4447290000000  0.5527400000000 1.0
C      1  0.5273540000000  0.4444300000000  0.5182290000000 1.0
C      1  0.4945950000000  0.5197360000000  0.4799150000000 1.0
C      1  0.4605240000000  0.5734390000000  0.5256300000000 1.0
C      1  0.4397330000000  0.5241230000000  0.4674570000000 1.0
C      1  0.5303300000000  0.5650410000000  0.4624110000000 1.0
C      1  0.5142050000000  0.5415750000000  0.5731710000000 1.0
C      1  0.5115150000000  0.5145740000000  0.5832050000000 1.0
C      1  0.4759440000000  0.4492420000000  0.4505760000000 1.0
C      1  0.5121500000000  0.4269920000000  0.5381350000000 1.0
C      1  0.4236640000000  0.5070640000000  0.4876750000000 1.0
C      1  0.5394820000000  0.5461670000000  0.5579930000000 1.0
C      1  0.4523940000000  0.5500700000000  0.4797350000000 1.0
C      1  0.5351310000000  0.4759890000000  0.4479870000000 1.0
C      1  0.4544550000000  0.4398030000000  0.4921470000000 1.0
C      1  0.4704020000000  0.5575690000000  0.5474990000000 1.0
C      1  0.4854620000000  0.4730670000000  0.4344850000000 1.0
C      1  0.4692690000000  0.4366980000000  0.5356150000000 1.0
C      1  0.4796950000000  0.4950630000000  0.4800860000000 1.0
C      1  0.5107410000000  0.5165110000000  0.4473620000000 1.0
C      1  0.4671450000000  0.5214420000000  0.4257190000000 1.0
C      1  0.4460780000000  0.5358360000000  0.4404150000000 1.0
C      1  0.4925760000000  0.4293820000000  0.4658150000000 1.0
C      1  0.4511500000000  0.4516480000000  0.4658180000000 1.0
C      1  0.5207970000000  0.4311790000000  0.4672900000000 1.0
C      1  0.5347480000000  0.4752400000000  0.5546580000000 1.0
C      1  0.5411300000000  0.4479290000000  0.4547590000000 1.0
C      1  0.5588440000000  0.4450800000000  0.4792240000000 1.0
C      1  0.5393990000000  0.5226530000000  0.4518940000000 1.0
C      1  0.5367160000000  0.4318490000000  0.4923720000000 1.0
C      1  0.4926120000000  0.5852910000000  0.4874190000000 1.0
C      1  0.5035770000000  0.4726780000000  0.5581690000000 1.0
C      1  0.5749230000000  0.4626080000000  0.4938090000000 1.0
C      1  0.4863110000000  0.5600450000000  0.4448490000000 1.0
C      1  0.4762660000000  0.5401490000000  0.4935420000000 1.0
C      1  0.4123160000000  0.4846540000000  0.4746330000000 1.0
C      1  0.5467660000000  0.4611260000000  0.5337370000000 1.0
C      1  0.5647270000000  0.5242810000000  0.5211420000000 1.0
C      1  0.4825170000000  0.4160810000000  0.5176340000000 1.0
C      1  0.5226090000000  0.5596280000000  0.5392020000000 1.0
C      1  0.4539960000000  0.4853680000000  0.5513240000000 1.0
C      1  0.5021920000000  0.4631310000000  0.5105270000000 1.0
C      1  0.5780020000000  0.4996340000000  0.5142060000000 1.0
C      1  0.4983480000000  0.5581850000000  0.5561570000000 1.0
C      1  0.4652440000000  0.5209560000000  0.5174030000000 1.0
C      1  0.5021280000000  0.4021180000000  0.5311530000000 1.0
C      1  0.4560300000000  0.4972510000000  0.4611530000000 1.0
C      1  0.5135530000000  0.5176200000000  0.5042290000000 1.0
C      1  0.4931180000000  0.5080130000000  0.5227610000000 1.0
C      1  0.4355870000000  0.4751300000000  0.4632720000000 1.0
C      1  0.4503870000000  0.4503770000000  0.5191830000000 1.0
C      1  0.4977670000000  0.5600590000000  0.4994150000000 1.0
C      1  0.5457590000000  0.5001470000000  0.5644990000000 1.0
C      1  0.5700000000000  0.4713830000000  0.5210280000000 1.0
C      1  0.5228160000000  0.5482630000000  0.5117460000000 1.0
C      1  0.4972180000000  0.4733020000000  0.4845390000000 1.0
C      1  0.5103600000000  0.4869660000000  0.4373780000000 1.0
C      1  0.5041360000000  0.5742970000000  0.4628630000000 1.0
C      1  0.5248670000000  0.4796220000000  0.4795070000000 1.0
C      1  0.4413020000000  0.5025700000000  0.5109940000000 1.0
C      1  0.5780390000000  0.4977920000000  0.4616420000000 1.0
C      1  0.4769920000000  0.4225600000000  0.4901400000000 1.0
C      1  0.4665900000000  0.5064830000000  0.5626770000000 1.0
C      1  0.4468000000000  0.5708420000000  0.5013530000000 1.0
C      1  0.5545170000000  0.5241580000000  0.5483490000000 1.0
C      1  0.4585600000000  0.5592750000000  0.4516580000000 1.0
C      1  0.4686330000000  0.5884840000000  0.5018280000000 1.0
C      1  0.4955600000000  0.4814350000000  0.5303700000000 1.0
C      1  0.4627780000000  0.5300180000000  0.5459190000000 1.0
C      1  0.5508360000000  0.5426890000000  0.5010500000000 1.0
C      1  0.5339040000000  0.4992080000000  0.4952760000000 1.0
END
