TITL C-2114525-70-5 -0.00411207007212138 125000 -868.612381917915 0 0 125 (C1) n - 1
REM
REM in /nfs/bkarasulu/CARBON/AIRSS/Generating-Clusters/GAP-ML-2020/Only-C1/SD-CG/HFTN-CG
REM
REM
REM
REM
REM
REM ./C.cell (11c1c37f851c82e70ff6c80c92926a4b)
REM
REM compiler GCC version 9.2.1 20190827 (Red Hat 9.2.1-1)
REM options -cpp -mtune=generic -march=x86-64 -g -O0 -fpre-include=/usr/include/finclude/math-vector-fortran.h
REM seed -1328372933 151475170 112731551 -172283054 -1521811376 70359504 2049758599 -1183232904 -238552981 -2050261376 -1276454705 87886326 -1054028447 1312148294 1378317974 1035295160 295227768 -887527640 -588377386 -224912304 -2036219316 -158754989 -1111625636 -927954703 387891292 1638857295 -1305978192 1189541826 -777001624 1944332895 1795176084 816826803 841602463
REM
CELL 1.54180   50.00000   50.00000   50.00000   90.00000   90.00000   90.00000
LATT -1
SFAC C  
C      1  0.4347790000000  0.4946190000000  0.4280570000000 1.0
C      1  0.4765960000000  0.5158220000000  0.3976540000000 1.0
C      1  0.5934230000000  0.4640970000000  0.4831440000000 1.0
C      1  0.4286340000000  0.4445790000000  0.4661160000000 1.0
C      1  0.5296190000000  0.5082520000000  0.6021470000000 1.0
C      1  0.5225720000000  0.5511870000000  0.5725730000000 1.0
C      1  0.4458050000000  0.5640650000000  0.4543600000000 1.0
C      1  0.5718570000000  0.5569630000000  0.5287170000000 1.0
C      1  0.6101150000000  0.5093390000000  0.4930050000000 1.0
C      1  0.5474930000000  0.5367550000000  0.5674060000000 1.0
C      1  0.5175780000000  0.5394930000000  0.4197690000000 1.0
C      1  0.5952800000000  0.5306740000000  0.4998250000000 1.0
C      1  0.4773150000000  0.4187490000000  0.5438520000000 1.0
C      1  0.4344530000000  0.4421560000000  0.4404830000000 1.0
C      1  0.4696930000000  0.5545870000000  0.4114780000000 1.0
C      1  0.4356250000000  0.5233030000000  0.4236460000000 1.0
C      1  0.5375400000000  0.5580190000000  0.4674930000000 1.0
C      1  0.4920240000000  0.5293500000000  0.4850820000000 1.0
C      1  0.4326210000000  0.5549680000000  0.5282280000000 1.0
C      1  0.4250140000000  0.5586550000000  0.5010440000000 1.0
C      1  0.4970210000000  0.4134500000000  0.5213760000000 1.0
C      1  0.5357280000000  0.5174160000000  0.4213990000000 1.0
C      1  0.4528280000000  0.5319920000000  0.4039940000000 1.0
C      1  0.5862980000000  0.4838010000000  0.5278030000000 1.0
C      1  0.4934890000000  0.5387090000000  0.4050290000000 1.0
C      1  0.4616290000000  0.5562580000000  0.5277140000000 1.0
C      1  0.5021990000000  0.5172660000000  0.5435430000000 1.0
C      1  0.4742770000000  0.5098400000000  0.5312880000000 1.0
C      1  0.5556330000000  0.5594740000000  0.5510890000000 1.0
C      1  0.4804100000000  0.4366430000000  0.4279480000000 1.0
C      1  0.5527410000000  0.4410360000000  0.5013900000000 1.0
C      1  0.4532560000000  0.4768330000000  0.4133760000000 1.0
C      1  0.5307060000000  0.5125540000000  0.4624180000000 1.0
C      1  0.4108700000000  0.5069280000000  0.5137500000000 1.0
C      1  0.5449110000000  0.4706160000000  0.4271150000000 1.0
C      1  0.5545150000000  0.5158330000000  0.4446340000000 1.0
C      1  0.5397900000000  0.4463210000000  0.5704650000000 1.0
C      1  0.5329860000000  0.4668040000000  0.5884770000000 1.0
C      1  0.5785360000000  0.5477740000000  0.4831020000000 1.0
C      1  0.5044330000000  0.4712730000000  0.5957740000000 1.0
C      1  0.5462560000000  0.4931970000000  0.5869610000000 1.0
C      1  0.4520290000000  0.4942310000000  0.5777850000000 1.0
C      1  0.5392330000000  0.5742690000000  0.4920680000000 1.0
C      1  0.4821570000000  0.4521720000000  0.5897480000000 1.0
C      1  0.5080430000000  0.5090060000000  0.4996670000000 1.0
C      1  0.4515670000000  0.4695220000000  0.4936600000000 1.0
C      1  0.5030560000000  0.4755250000000  0.4062170000000 1.0
C      1  0.5210060000000  0.5231570000000  0.5217390000000 1.0
C      1  0.4547310000000  0.4500760000000  0.4239260000000 1.0
C      1  0.5151560000000  0.4875970000000  0.4530390000000 1.0
C      1  0.5308930000000  0.4314360000000  0.4556910000000 1.0
C      1  0.5038950000000  0.4495850000000  0.4182490000000 1.0
C      1  0.5550960000000  0.4500000000000  0.5465890000000 1.0
C      1  0.4937740000000  0.5771320000000  0.4433200000000 1.0
C      1  0.4586390000000  0.5200950000000  0.5864670000000 1.0
C      1  0.5117030000000  0.5839080000000  0.5357460000000 1.0
C      1  0.4499540000000  0.5414320000000  0.5688550000000 1.0
C      1  0.4844560000000  0.5825610000000  0.5448840000000 1.0
C      1  0.5348910000000  0.4989650000000  0.4894080000000 1.0
C      1  0.4287240000000  0.5355860000000  0.5491170000000 1.0
C      1  0.4928980000000  0.4120240000000  0.4918340000000 1.0
C      1  0.4661280000000  0.5851130000000  0.5233110000000 1.0
C      1  0.4484470000000  0.5189030000000  0.4960080000000 1.0
C      1  0.4862980000000  0.5222630000000  0.5917380000000 1.0
C      1  0.4668670000000  0.5699690000000  0.4346930000000 1.0
C      1  0.5140310000000  0.5558620000000  0.4431890000000 1.0
C      1  0.5351580000000  0.4462950000000  0.5245820000000 1.0
C      1  0.5254870000000  0.4715640000000  0.4776950000000 1.0
C      1  0.4245830000000  0.4736540000000  0.4776200000000 1.0
C      1  0.5162470000000  0.5852270000000  0.5062550000000 1.0
C      1  0.4251010000000  0.5084780000000  0.5402240000000 1.0
C      1  0.4907620000000  0.4623750000000  0.5497710000000 1.0
C      1  0.5289180000000  0.4457620000000  0.4312680000000 1.0
C      1  0.4754160000000  0.4684580000000  0.4731120000000 1.0
C      1  0.5190550000000  0.4277220000000  0.5626440000000 1.0
C      1  0.5712120000000  0.4657160000000  0.4639610000000 1.0
C      1  0.5993810000000  0.4385900000000  0.4926290000000 1.0
C      1  0.6001690000000  0.4857320000000  0.5023980000000 1.0
C      1  0.5848140000000  0.5319090000000  0.5268720000000 1.0
C      1  0.4921260000000  0.4358600000000  0.5656240000000 1.0
C      1  0.5465100000000  0.5105870000000  0.5139660000000 1.0
C      1  0.4648920000000  0.5893300000000  0.4961590000000 1.0
C      1  0.4057470000000  0.4859720000000  0.4969070000000 1.0
C      1  0.4986930000000  0.4647750000000  0.4886280000000 1.0
C      1  0.5204230000000  0.4221720000000  0.5341940000000 1.0
C      1  0.5211270000000  0.4956530000000  0.5499410000000 1.0
C      1  0.5694570000000  0.5067640000000  0.5354350000000 1.0
C      1  0.5023500000000  0.4824510000000  0.5681120000000 1.0
C      1  0.4643890000000  0.4921210000000  0.5089320000000 1.0
C      1  0.4492750000000  0.4392400000000  0.5356480000000 1.0
C      1  0.5260720000000  0.4897070000000  0.4176050000000 1.0
C      1  0.4934020000000  0.5928160000000  0.4895480000000 1.0
C      1  0.4973280000000  0.5949230000000  0.4629600000000 1.0
C      1  0.5794130000000  0.4410410000000  0.5101730000000 1.0
C      1  0.4775260000000  0.4878750000000  0.4012380000000 1.0
C      1  0.4859190000000  0.4899110000000  0.4574860000000 1.0
C      1  0.4455970000000  0.4437570000000  0.5074210000000 1.0
C      1  0.4214270000000  0.5306650000000  0.5002620000000 1.0
C      1  0.4736350000000  0.5557550000000  0.5574650000000 1.0
C      1  0.5083320000000  0.4174200000000  0.4659590000000 1.0
C      1  0.4436700000000  0.4271350000000  0.4842210000000 1.0
C      1  0.5793280000000  0.4570750000000  0.5345310000000 1.0
C      1  0.4764790000000  0.5152760000000  0.4630250000000 1.0
C      1  0.4682510000000  0.4152660000000  0.4757340000000 1.0
C      1  0.4504390000000  0.4127700000000  0.5477660000000 1.0
C      1  0.5644420000000  0.5649520000000  0.5017390000000 1.0
C      1  0.5030890000000  0.5016050000000  0.6033870000000 1.0
C      1  0.4457610000000  0.5166030000000  0.4670420000000 1.0
C      1  0.5623910000000  0.5420070000000  0.4607230000000 1.0
C      1  0.4835210000000  0.4198770000000  0.4510320000000 1.0
C      1  0.5297540000000  0.5722910000000  0.5541590000000 1.0
C      1  0.5469130000000  0.4495010000000  0.4743120000000 1.0
C      1  0.5156530000000  0.5385460000000  0.4670830000000 1.0
C      1  0.4594400000000  0.4638010000000  0.5500980000000 1.0
C      1  0.4440240000000  0.5719530000000  0.4825800000000 1.0
C      1  0.4967570000000  0.5378320000000  0.5679590000000 1.0
C      1  0.4598180000000  0.4669510000000  0.5796940000000 1.0
C      1  0.5644040000000  0.4837500000000  0.4434090000000 1.0
C      1  0.5501540000000  0.5076450000000  0.5605060000000 1.0
C      1  0.4712370000000  0.5338800000000  0.5083860000000 1.0
C      1  0.4947760000000  0.4840450000000  0.5092240000000 1.0
C      1  0.4359030000000  0.5379320000000  0.4485180000000 1.0
C      1  0.5128910000000  0.4721180000000  0.5298490000000 1.0
C      1  0.4506930000000  0.4935230000000  0.5464100000000 1.0
C      1  0.4300500000000  0.4933460000000  0.4562510000000 1.0
END
