TITL C-21777-4485-1 0.0501782188828952 125000 -190.336041319863 0 0 29 (C1) n - 1
REM
REM in /rds/project/t2_vol4/rds-t2-cs072/BORA/CARBON/from-Arr/AIRSS/Generating-Clusters/GAP-ML-2020/Only-C1/SD-CG/HFTN-CG
REM
REM
REM
REM
REM
REM ./C.cell (11c1c37f851c82e70ff6c80c92926a4b)
REM AIRSS Version 0.9.1 bugfix July 2018 build 013d7b7c2542+ Fri, 06 Jul 2018 19:26:36 +0100
REM compiler GCC version 9.3.0
REM options -cpp -mtune=generic -march=x86-64 -g -O0
REM seed -522358365 -1524897681 1510193556 1358139817 -1357139393 251299974 352885173 1884236315 -1628697233 1136831105 -1736792461 349916148 1193407078 1849428067 1406582130 -574921940 1503422051 1156647822 -689941369 1933072148 1017036341 -551910271 385579658 270657442 835229708 437474562 -545994228 -1805193501 33241169 -940455164 570293656 617212917 878770401
REM
CELL 1.54180   50.00000   50.00000   50.00000   90.00000   90.00000   90.00000
LATT -1
SFAC C  
C      1  0.4590820000000  0.4710880000000  0.4651460000000 1.0
C      1  0.5454450000000  0.5196370000000  0.5277170000000 1.0
C      1  0.4525530000000  0.4782440000000  0.4929590000000 1.0
C      1  0.4977690000000  0.5135690000000  0.4510090000000 1.0
C      1  0.4879780000000  0.4893060000000  0.5411790000000 1.0
C      1  0.5641930000000  0.4584850000000  0.5213810000000 1.0
C      1  0.5054420000000  0.5351500000000  0.5439450000000 1.0
C      1  0.4804050000000  0.4524490000000  0.4612510000000 1.0
C      1  0.5209790000000  0.4719240000000  0.4842770000000 1.0
C      1  0.4654660000000  0.5234510000000  0.5166750000000 1.0
C      1  0.5114430000000  0.5577890000000  0.5094530000000 1.0
C      1  0.4902300000000  0.4676960000000  0.5238110000000 1.0
C      1  0.5392480000000  0.4478160000000  0.5215060000000 1.0
C      1  0.4734850000000  0.5400230000000  0.4936530000000 1.0
C      1  0.5142310000000  0.5208520000000  0.4721890000000 1.0
C      1  0.5166060000000  0.4574150000000  0.5106880000000 1.0
C      1  0.4701800000000  0.5122080000000  0.4536170000000 1.0
C      1  0.4827110000000  0.5167390000000  0.5391220000000 1.0
C      1  0.5013700000000  0.5439280000000  0.4881700000000 1.0
C      1  0.4565920000000  0.5249980000000  0.4757490000000 1.0
C      1  0.5057240000000  0.5611380000000  0.5343620000000 1.0
C      1  0.5321490000000  0.5262720000000  0.5480780000000 1.0
C      1  0.4564510000000  0.4896010000000  0.4460820000000 1.0
C      1  0.5312350000000  0.4999360000000  0.4844820000000 1.0
C      1  0.5522860000000  0.5047540000000  0.5052930000000 1.0
C      1  0.5031620000000  0.4615710000000  0.4662720000000 1.0
C      1  0.4667270000000  0.4638570000000  0.5108570000000 1.0
C      1  0.4497510000000  0.5072330000000  0.4980440000000 1.0
C      1  0.5671090000000  0.4828700000000  0.5130320000000 1.0
END
