TITL C-211893-1673-6 -52.9614492784591 125000 -665.651802161999 0 0 97 (C1) n - 1
REM
REM in /rds/project/t2_vol4/rds-t2-cs072/BORA/CARBON/from-Arr/AIRSS/Generating-Clusters/GAP-ML-2020/Only-C1/SD-CG/HFTN-CG
REM
REM
REM
REM
REM
REM ./C.cell (11c1c37f851c82e70ff6c80c92926a4b)
REM AIRSS Version 0.9.1 bugfix July 2018 build 013d7b7c2542+ Fri, 06 Jul 2018 19:26:36 +0100
REM compiler GCC version 9.3.0
REM options -cpp -mtune=generic -march=x86-64 -g -O0
REM seed 465810958 1010510390 -1339938068 -1779184189 1441551778 630055524 -625209943 -1278811700 -1291747146 19944334 -934992501 1548835961 -399555836 2066248280 871942941 1507681784 747041966 547710815 -598447181 656195717 1437885921 -1097391966 1320204261 -859483071 -1102479843 159724679 1384754267 -148067158 528427398 -588144216 -543489808 2078571177 1474381411
REM
CELL 1.54180   50.00000   50.00000   50.00000   90.00000   90.00000   90.00000
LATT -1
SFAC C  
C      1  0.4296300000000  0.4924510000000  0.4467360000000 1.0
C      1  0.4982680000000  0.5045120000000  0.5171770000000 1.0
C      1  0.4701790000000  0.5077390000000  0.4712950000000 1.0
C      1  0.5424940000000  0.4291550000000  0.5270590000000 1.0
C      1  0.4760140000000  0.4779780000000  0.5469610000000 1.0
C      1  0.5698240000000  0.4733140000000  0.4799410000000 1.0
C      1  0.4869520000000  0.4654650000000  0.4561470000000 1.0
C      1  0.5017190000000  0.4572950000000  0.4994400000000 1.0
C      1  0.4509590000000  0.4472890000000  0.5071080000000 1.0
C      1  0.5010880000000  0.4197680000000  0.5496580000000 1.0
C      1  0.5349030000000  0.4388290000000  0.4531010000000 1.0
C      1  0.5617190000000  0.4706890000000  0.5272720000000 1.0
C      1  0.5185550000000  0.4925360000000  0.5342570000000 1.0
C      1  0.5385320000000  0.5435630000000  0.5509310000000 1.0
C      1  0.4935820000000  0.5157850000000  0.4162730000000 1.0
C      1  0.4529160000000  0.5324720000000  0.4337350000000 1.0
C      1  0.5065040000000  0.5432680000000  0.4629490000000 1.0
C      1  0.5085600000000  0.4566220000000  0.4174720000000 1.0
C      1  0.4293170000000  0.4642550000000  0.5165470000000 1.0
C      1  0.4288660000000  0.5172640000000  0.5286780000000 1.0
C      1  0.4373290000000  0.5600720000000  0.5075610000000 1.0
C      1  0.5606000000000  0.5100020000000  0.5549870000000 1.0
C      1  0.5261410000000  0.4777540000000  0.4232000000000 1.0
C      1  0.4918810000000  0.5721010000000  0.5500690000000 1.0
C      1  0.4797630000000  0.5454000000000  0.5045830000000 1.0
C      1  0.4373900000000  0.4439830000000  0.4718310000000 1.0
C      1  0.4243780000000  0.4732910000000  0.5421010000000 1.0
C      1  0.5262320000000  0.5281700000000  0.5734850000000 1.0
C      1  0.5487290000000  0.4980200000000  0.5300160000000 1.0
C      1  0.5274470000000  0.5419920000000  0.5229060000000 1.0
C      1  0.4892030000000  0.4355340000000  0.4546200000000 1.0
C      1  0.5364020000000  0.5347630000000  0.4621020000000 1.0
C      1  0.4630320000000  0.5683120000000  0.5129340000000 1.0
C      1  0.5216190000000  0.5070750000000  0.4212440000000 1.0
C      1  0.4986420000000  0.5279120000000  0.5768360000000 1.0
C      1  0.5400330000000  0.5772560000000  0.4840740000000 1.0
C      1  0.5430360000000  0.4807530000000  0.4704010000000 1.0
C      1  0.5418590000000  0.5239670000000  0.4333670000000 1.0
C      1  0.5867760000000  0.4940430000000  0.4717910000000 1.0
C      1  0.5349570000000  0.4784660000000  0.5846990000000 1.0
C      1  0.5343980000000  0.4292070000000  0.4805020000000 1.0
C      1  0.4975370000000  0.5332240000000  0.5260640000000 1.0
C      1  0.4625600000000  0.4964130000000  0.5807210000000 1.0
C      1  0.4383890000000  0.5449960000000  0.4825250000000 1.0
C      1  0.4745680000000  0.4945700000000  0.4175020000000 1.0
C      1  0.5153760000000  0.4205610000000  0.5253600000000 1.0
C      1  0.4261210000000  0.4995710000000  0.5506890000000 1.0
C      1  0.5862570000000  0.5211770000000  0.4788430000000 1.0
C      1  0.5527530000000  0.4502430000000  0.5458530000000 1.0
C      1  0.4721900000000  0.4895470000000  0.5206420000000 1.0
C      1  0.5051970000000  0.4784140000000  0.5835320000000 1.0
C      1  0.4799580000000  0.5402150000000  0.4247230000000 1.0
C      1  0.4974920000000  0.5581960000000  0.4387750000000 1.0
C      1  0.5036770000000  0.4780190000000  0.5520640000000 1.0
C      1  0.4450560000000  0.5136830000000  0.5674120000000 1.0
C      1  0.4547270000000  0.4287930000000  0.4854860000000 1.0
C      1  0.5088150000000  0.5018350000000  0.4862850000000 1.0
C      1  0.5425160000000  0.4670520000000  0.4450440000000 1.0
C      1  0.5463190000000  0.4568270000000  0.5713890000000 1.0
C      1  0.4294790000000  0.4841090000000  0.4960750000000 1.0
C      1  0.4863050000000  0.4705960000000  0.4265030000000 1.0
C      1  0.4461950000000  0.5048090000000  0.5087710000000 1.0
C      1  0.4632990000000  0.4695660000000  0.5721120000000 1.0
C      1  0.4828950000000  0.4221730000000  0.4786960000000 1.0
C      1  0.5120280000000  0.4735790000000  0.4779000000000 1.0
C      1  0.5688950000000  0.5222740000000  0.4302940000000 1.0
C      1  0.4956010000000  0.5159820000000  0.4653730000000 1.0
C      1  0.5532850000000  0.4338160000000  0.5008930000000 1.0
C      1  0.5119170000000  0.4341580000000  0.4374510000000 1.0
C      1  0.4852700000000  0.4543950000000  0.5832520000000 1.0
C      1  0.4588490000000  0.5253330000000  0.4911580000000 1.0
C      1  0.5432730000000  0.5053290000000  0.5778090000000 1.0
C      1  0.5693210000000  0.5365480000000  0.4951820000000 1.0
C      1  0.4366890000000  0.4735100000000  0.4692750000000 1.0
C      1  0.4499770000000  0.5042870000000  0.4282760000000 1.0
C      1  0.5273590000000  0.5840420000000  0.4603800000000 1.0
C      1  0.4317670000000  0.5386440000000  0.4555320000000 1.0
C      1  0.4998360000000  0.5570490000000  0.4877290000000 1.0
C      1  0.5813700000000  0.5141400000000  0.4525180000000 1.0
C      1  0.4915340000000  0.4314950000000  0.5702380000000 1.0
C      1  0.4148930000000  0.5155240000000  0.4514240000000 1.0
C      1  0.5119990000000  0.5822340000000  0.4397690000000 1.0
C      1  0.4664530000000  0.4783940000000  0.4732210000000 1.0
C      1  0.4547130000000  0.5376640000000  0.5543810000000 1.0
C      1  0.4846290000000  0.5425840000000  0.5546020000000 1.0
C      1  0.5205820000000  0.5675280000000  0.5064230000000 1.0
C      1  0.4890800000000  0.5035060000000  0.5870120000000 1.0
C      1  0.5685950000000  0.4577480000000  0.5027240000000 1.0
C      1  0.5539000000000  0.5534920000000  0.4773790000000 1.0
C      1  0.4369020000000  0.5438930000000  0.5321160000000 1.0
C      1  0.5373530000000  0.5103100000000  0.4815840000000 1.0
C      1  0.4773220000000  0.5852080000000  0.5292220000000 1.0
C      1  0.5050860000000  0.5826190000000  0.5277800000000 1.0
C      1  0.5649070000000  0.5366120000000  0.5509190000000 1.0
C      1  0.5071830000000  0.4274470000000  0.4964740000000 1.0
C      1  0.4736520000000  0.4667140000000  0.5017610000000 1.0
C      1  0.5476710000000  0.5210310000000  0.5088360000000 1.0
END
