TITL C-214931-3248-3 455.873653353899 125000 -821.954143465408 0 0 117 (C1) n - 1
REM
REM in /rds/project/t2_vol4/rds-t2-cs072/BORA/CARBON/from-Arr/AIRSS/Generating-Clusters/GAP-ML-2020/Only-C1/SD-CG/HFTN-CG
REM
REM
REM
REM
REM
REM ./C.cell (11c1c37f851c82e70ff6c80c92926a4b)
REM AIRSS Version 0.9.1 bugfix July 2018 build 013d7b7c2542+ Fri, 06 Jul 2018 19:26:36 +0100
REM compiler GCC version 9.3.0
REM options -cpp -mtune=generic -march=x86-64 -g -O0
REM seed -227399619 1970128763 -557145642 -1826708515 -160634108 154920268 433925234 761262282 473404219 -717790991 -2013270603 -1314244035 1593022848 1331796969 1860172782 740108444 430628443 -424114974 -1571517437 932872142 1318277185 1167494663 -1757613364 774753812 -109673969 216248878 -367449775 100875438 -1564001399 -424844099 381659367 864509199 -393170453
REM
CELL 1.54180   50.00000   50.00000   50.00000   90.00000   90.00000   90.00000
LATT -1
SFAC C  
C      1  0.4653620000000  0.5630410000000  0.5674200000000 1.0
C      1  0.5805750000000  0.4556490000000  0.4931930000000 1.0
C      1  0.5110320000000  0.4564850000000  0.4992310000000 1.0
C      1  0.4786350000000  0.4501940000000  0.4339060000000 1.0
C      1  0.4607790000000  0.5370960000000  0.5734410000000 1.0
C      1  0.4304800000000  0.5445600000000  0.5354390000000 1.0
C      1  0.4331570000000  0.4520810000000  0.4493740000000 1.0
C      1  0.5264210000000  0.4776750000000  0.5003720000000 1.0
C      1  0.5142280000000  0.5331010000000  0.5137520000000 1.0
C      1  0.4676190000000  0.5218760000000  0.5059010000000 1.0
C      1  0.4773230000000  0.5706760000000  0.4657980000000 1.0
C      1  0.5628460000000  0.5517640000000  0.5428080000000 1.0
C      1  0.4746960000000  0.4138910000000  0.4971800000000 1.0
C      1  0.5502160000000  0.5260960000000  0.5528010000000 1.0
C      1  0.4408680000000  0.4727230000000  0.5620530000000 1.0
C      1  0.4750530000000  0.4954720000000  0.5871780000000 1.0
C      1  0.5197760000000  0.5520200000000  0.4914800000000 1.0
C      1  0.4736690000000  0.4166400000000  0.5274710000000 1.0
C      1  0.5270260000000  0.5262000000000  0.4085690000000 1.0
C      1  0.5294940000000  0.5038720000000  0.5870560000000 1.0
C      1  0.5510100000000  0.5157410000000  0.4942660000000 1.0
C      1  0.4651830000000  0.4693080000000  0.5765200000000 1.0
C      1  0.4676500000000  0.5768660000000  0.5441840000000 1.0
C      1  0.5237020000000  0.5811430000000  0.5038730000000 1.0
C      1  0.4579190000000  0.4377270000000  0.4513500000000 1.0
C      1  0.4250700000000  0.4895360000000  0.5224660000000 1.0
C      1  0.4977950000000  0.5201730000000  0.4066910000000 1.0
C      1  0.5474860000000  0.5838220000000  0.4609600000000 1.0
C      1  0.5521710000000  0.4675770000000  0.4381860000000 1.0
C      1  0.5844750000000  0.5089930000000  0.4909280000000 1.0
C      1  0.4769080000000  0.4427200000000  0.5693190000000 1.0
C      1  0.5293190000000  0.4117420000000  0.4871370000000 1.0
C      1  0.4389610000000  0.5252190000000  0.5558350000000 1.0
C      1  0.5453490000000  0.4292660000000  0.5507920000000 1.0
C      1  0.4947560000000  0.5911290000000  0.5054110000000 1.0
C      1  0.5340750000000  0.4773510000000  0.5513200000000 1.0
C      1  0.5038630000000  0.4071530000000  0.4996330000000 1.0
C      1  0.5714480000000  0.5152190000000  0.4497600000000 1.0
C      1  0.4696270000000  0.4758620000000  0.4182600000000 1.0
C      1  0.4519090000000  0.4958600000000  0.5076260000000 1.0
C      1  0.5653050000000  0.5607020000000  0.4961410000000 1.0
C      1  0.5781060000000  0.4536410000000  0.5216910000000 1.0
C      1  0.4867540000000  0.4677310000000  0.4965110000000 1.0
C      1  0.4748320000000  0.4791600000000  0.4733940000000 1.0
C      1  0.5619090000000  0.4768930000000  0.5615710000000 1.0
C      1  0.4287740000000  0.4622950000000  0.4761530000000 1.0
C      1  0.4478860000000  0.5752830000000  0.4996560000000 1.0
C      1  0.5811420000000  0.4806780000000  0.4804330000000 1.0
C      1  0.5810500000000  0.4768590000000  0.5392900000000 1.0
C      1  0.5070390000000  0.4540880000000  0.4358260000000 1.0
C      1  0.4349700000000  0.4433910000000  0.4956350000000 1.0
C      1  0.4941370000000  0.4954700000000  0.5352480000000 1.0
C      1  0.5314050000000  0.5444940000000  0.4314030000000 1.0
C      1  0.5494120000000  0.4498640000000  0.5703580000000 1.0
C      1  0.5371080000000  0.5167840000000  0.5222110000000 1.0
C      1  0.5333040000000  0.4447340000000  0.4438830000000 1.0
C      1  0.5480760000000  0.5417850000000  0.4814870000000 1.0
C      1  0.3984960000000  0.4818070000000  0.4367780000000 1.0
C      1  0.4145970000000  0.5432950000000  0.4878170000000 1.0
C      1  0.5917910000000  0.5213390000000  0.4667460000000 1.0
C      1  0.5068860000000  0.5371710000000  0.4457790000000 1.0
C      1  0.5613830000000  0.4863230000000  0.4589640000000 1.0
C      1  0.4444420000000  0.4881960000000  0.4225760000000 1.0
C      1  0.5132440000000  0.5039520000000  0.4556710000000 1.0
C      1  0.5176900000000  0.4201100000000  0.5510490000000 1.0
C      1  0.4831440000000  0.5220770000000  0.5847070000000 1.0
C      1  0.4563750000000  0.4273720000000  0.4799790000000 1.0
C      1  0.4611890000000  0.4323010000000  0.5480820000000 1.0
C      1  0.5499460000000  0.5666490000000  0.4409050000000 1.0
C      1  0.5218720000000  0.5813400000000  0.5347840000000 1.0
C      1  0.5129090000000  0.5277170000000  0.5845040000000 1.0
C      1  0.5386560000000  0.5666730000000  0.5523080000000 1.0
C      1  0.5232730000000  0.4532850000000  0.5830340000000 1.0
C      1  0.4727290000000  0.5853410000000  0.4894370000000 1.0
C      1  0.5412920000000  0.4273500000000  0.4645400000000 1.0
C      1  0.4749310000000  0.4800430000000  0.5188990000000 1.0
C      1  0.4350900000000  0.5604210000000  0.4784440000000 1.0
C      1  0.5650500000000  0.4337650000000  0.4816260000000 1.0
C      1  0.4577880000000  0.5377670000000  0.4349650000000 1.0
C      1  0.5306420000000  0.5441860000000  0.5688890000000 1.0
C      1  0.5901510000000  0.5018230000000  0.5334890000000 1.0
C      1  0.5548630000000  0.5392120000000  0.4517870000000 1.0
C      1  0.4069430000000  0.5080250000000  0.5085480000000 1.0
C      1  0.4971030000000  0.5490930000000  0.4712610000000 1.0
C      1  0.5239000000000  0.4903900000000  0.5272070000000 1.0
C      1  0.5401380000000  0.4838170000000  0.4177080000000 1.0
C      1  0.4387710000000  0.4500540000000  0.5445120000000 1.0
C      1  0.4931140000000  0.5869330000000  0.5335540000000 1.0
C      1  0.4533450000000  0.5583330000000  0.4553720000000 1.0
C      1  0.4423510000000  0.5138380000000  0.4362340000000 1.0
C      1  0.4317570000000  0.5061190000000  0.4628500000000 1.0
C      1  0.4316610000000  0.4974170000000  0.5510230000000 1.0
C      1  0.4279980000000  0.4568610000000  0.5198890000000 1.0
C      1  0.4916750000000  0.4926950000000  0.4122130000000 1.0
C      1  0.5541530000000  0.5039020000000  0.5722590000000 1.0
C      1  0.4078290000000  0.5151910000000  0.4792650000000 1.0
C      1  0.5355870000000  0.4956140000000  0.4771950000000 1.0
C      1  0.5779740000000  0.5494540000000  0.5190770000000 1.0
C      1  0.5447240000000  0.5056990000000  0.4021150000000 1.0
C      1  0.5041660000000  0.4352000000000  0.5713870000000 1.0
C      1  0.5534700000000  0.4183840000000  0.5031240000000 1.0
C      1  0.4000830000000  0.4992770000000  0.4556320000000 1.0
C      1  0.4456920000000  0.5683030000000  0.5271270000000 1.0
C      1  0.5018790000000  0.4103240000000  0.5292890000000 1.0
C      1  0.5909470000000  0.5226090000000  0.5164550000000 1.0
C      1  0.5166990000000  0.4804410000000  0.5761110000000 1.0
C      1  0.4797250000000  0.5252000000000  0.4811390000000 1.0
C      1  0.4913300000000  0.4880430000000  0.5651030000000 1.0
C      1  0.5130550000000  0.4828440000000  0.4296080000000 1.0
C      1  0.4849370000000  0.5356940000000  0.4261400000000 1.0
C      1  0.4466100000000  0.4856750000000  0.4792160000000 1.0
C      1  0.4880430000000  0.5022410000000  0.4686300000000 1.0
C      1  0.5496810000000  0.5854600000000  0.4882520000000 1.0
C      1  0.4894620000000  0.5237550000000  0.5236430000000 1.0
C      1  0.4234060000000  0.4697930000000  0.4299170000000 1.0
C      1  0.5613080000000  0.4308680000000  0.5276070000000 1.0
C      1  0.4129120000000  0.5355700000000  0.5157490000000 1.0
END
