TITL C-215739-9267-1 109.355624668947 125000 -949.096467838056 0 0 136 (C1) n - 1
REM
REM in /rds/project/t2_vol4/rds-t2-cs072/BORA/CARBON/from-Arr/AIRSS/Generating-Clusters/GAP-ML-2020/Only-C1/SD-CG/HFTN-CG
REM
REM
REM
REM
REM
REM ./C.cell (11c1c37f851c82e70ff6c80c92926a4b)
REM AIRSS Version 0.9.1 bugfix July 2018 build 013d7b7c2542+ Fri, 06 Jul 2018 19:26:36 +0100
REM compiler GCC version 9.3.0
REM options -cpp -mtune=generic -march=x86-64 -g -O0
REM seed 1327237416 -282972189 -1256538320 376463092 -1363447267 1050658617 -880283906 1693216806 -1361287150 -819749167 -2066470766 585866694 4881218 -1006351055 -708776219 1712439944 824142275 435721073 -1599142227 -1372777409 22595476 305851927 -1661713979 752745027 1988796651 -2134922794 686996018 393808011 685525373 983622842 1903636986 -1840075798 -1830595813
REM
CELL 1.54180   50.00000   50.00000   50.00000   90.00000   90.00000   90.00000
LATT -1
SFAC C  
C      1  0.5169310000000  0.5149130000000  0.5950120000000 1.0
C      1  0.5454960000000  0.5036110000000  0.4801970000000 1.0
C      1  0.4309870000000  0.4246900000000  0.5257010000000 1.0
C      1  0.5444440000000  0.5129250000000  0.5905900000000 1.0
C      1  0.4812140000000  0.4033760000000  0.5139140000000 1.0
C      1  0.5498200000000  0.5629170000000  0.4506990000000 1.0
C      1  0.4688860000000  0.4756750000000  0.4884840000000 1.0
C      1  0.5190150000000  0.5938150000000  0.4795960000000 1.0
C      1  0.4135020000000  0.5408690000000  0.4942840000000 1.0
C      1  0.4496430000000  0.5173300000000  0.4785350000000 1.0
C      1  0.5541970000000  0.4865680000000  0.5897870000000 1.0
C      1  0.4345590000000  0.4522530000000  0.5234690000000 1.0
C      1  0.4506470000000  0.5706950000000  0.4323580000000 1.0
C      1  0.5078830000000  0.5522970000000  0.4746700000000 1.0
C      1  0.4288010000000  0.4701960000000  0.4283870000000 1.0
C      1  0.4741470000000  0.5672680000000  0.5491480000000 1.0
C      1  0.5135880000000  0.5548750000000  0.5762800000000 1.0
C      1  0.4790420000000  0.5319300000000  0.4120330000000 1.0
C      1  0.5255010000000  0.4880180000000  0.5386180000000 1.0
C      1  0.5050110000000  0.5293160000000  0.4542560000000 1.0
C      1  0.5412420000000  0.5933690000000  0.4970310000000 1.0
C      1  0.5165920000000  0.5366570000000  0.5006110000000 1.0
C      1  0.4607320000000  0.5111460000000  0.4514220000000 1.0
C      1  0.4456410000000  0.4328360000000  0.4545330000000 1.0
C      1  0.5436900000000  0.4363560000000  0.5320310000000 1.0
C      1  0.4781320000000  0.5327080000000  0.4425560000000 1.0
C      1  0.5899010000000  0.4998780000000  0.5007000000000 1.0
C      1  0.5417110000000  0.5868540000000  0.5253500000000 1.0
C      1  0.5528290000000  0.4902680000000  0.5300320000000 1.0
C      1  0.5836790000000  0.4569320000000  0.5202730000000 1.0
C      1  0.4654140000000  0.5276510000000  0.5255690000000 1.0
C      1  0.5600630000000  0.4895120000000  0.5012870000000 1.0
C      1  0.5087930000000  0.4117870000000  0.5161210000000 1.0
C      1  0.5872850000000  0.5406600000000  0.4768480000000 1.0
C      1  0.4779710000000  0.5590410000000  0.4778700000000 1.0
C      1  0.5695370000000  0.4438350000000  0.5407690000000 1.0
C      1  0.4419800000000  0.4904560000000  0.4127450000000 1.0
C      1  0.5121690000000  0.4716520000000  0.5159490000000 1.0
C      1  0.4736410000000  0.5623710000000  0.4479360000000 1.0
C      1  0.5173730000000  0.5397310000000  0.5301020000000 1.0
C      1  0.4362180000000  0.4572280000000  0.5725840000000 1.0
C      1  0.5789870000000  0.5432430000000  0.5277520000000 1.0
C      1  0.4278020000000  0.4398040000000  0.4760980000000 1.0
C      1  0.4149300000000  0.4815000000000  0.4506010000000 1.0
C      1  0.5210040000000  0.4267850000000  0.4657390000000 1.0
C      1  0.4512130000000  0.5011310000000  0.5259350000000 1.0
C      1  0.4977370000000  0.5326670000000  0.5868400000000 1.0
C      1  0.4817910000000  0.4420070000000  0.5772600000000 1.0
C      1  0.5445130000000  0.4602900000000  0.4321680000000 1.0
C      1  0.4165900000000  0.5107240000000  0.4485610000000 1.0
C      1  0.5500380000000  0.5410270000000  0.4330750000000 1.0
C      1  0.5018580000000  0.5034680000000  0.4684580000000 1.0
C      1  0.5696410000000  0.4747470000000  0.4321840000000 1.0
C      1  0.4740970000000  0.5233010000000  0.5696290000000 1.0
C      1  0.5227210000000  0.5312220000000  0.4259360000000 1.0
C      1  0.4940500000000  0.5987590000000  0.4933500000000 1.0
C      1  0.5831170000000  0.4714190000000  0.4569330000000 1.0
C      1  0.5156330000000  0.5873960000000  0.5365320000000 1.0
C      1  0.5003730000000  0.5700150000000  0.4352530000000 1.0
C      1  0.5156800000000  0.5146820000000  0.5419230000000 1.0
C      1  0.5148960000000  0.5034310000000  0.4163230000000 1.0
C      1  0.4861290000000  0.4621670000000  0.5302660000000 1.0
C      1  0.4951590000000  0.5157100000000  0.4944030000000 1.0
C      1  0.4705440000000  0.4546190000000  0.4166460000000 1.0
C      1  0.4951680000000  0.4870940000000  0.4979040000000 1.0
C      1  0.4622220000000  0.4098900000000  0.4914890000000 1.0
C      1  0.5221340000000  0.4802630000000  0.4344820000000 1.0
C      1  0.4529490000000  0.4357780000000  0.5706520000000 1.0
C      1  0.5220910000000  0.4248400000000  0.4943720000000 1.0
C      1  0.5936390000000  0.4946240000000  0.4710000000000 1.0
C      1  0.5412900000000  0.5277790000000  0.4918880000000 1.0
C      1  0.4262180000000  0.4947460000000  0.5430920000000 1.0
C      1  0.5891760000000  0.5298540000000  0.5035460000000 1.0
C      1  0.4916540000000  0.4420800000000  0.4308210000000 1.0
C      1  0.4692440000000  0.5844380000000  0.4895970000000 1.0
C      1  0.4140860000000  0.4667970000000  0.4752070000000 1.0
C      1  0.4376690000000  0.4841120000000  0.5694340000000 1.0
C      1  0.4704670000000  0.5321580000000  0.4940640000000 1.0
C      1  0.4157160000000  0.4859970000000  0.4988300000000 1.0
C      1  0.5630000000000  0.4586880000000  0.4974740000000 1.0
C      1  0.4391420000000  0.5641470000000  0.4100850000000 1.0
C      1  0.4492470000000  0.5379070000000  0.4121750000000 1.0
C      1  0.4382310000000  0.5147490000000  0.4278310000000 1.0
C      1  0.5032850000000  0.5509150000000  0.4146020000000 1.0
C      1  0.4944050000000  0.4237240000000  0.4522470000000 1.0
C      1  0.4874210000000  0.5146250000000  0.5434480000000 1.0
C      1  0.4734170000000  0.4876010000000  0.5417760000000 1.0
C      1  0.5445020000000  0.4414270000000  0.4540260000000 1.0
C      1  0.5709000000000  0.5636980000000  0.4706540000000 1.0
C      1  0.5701860000000  0.4990670000000  0.4206350000000 1.0
C      1  0.5272900000000  0.4917340000000  0.4635040000000 1.0
C      1  0.4687720000000  0.4824490000000  0.4055520000000 1.0
C      1  0.4151870000000  0.5200100000000  0.5342630000000 1.0
C      1  0.5670660000000  0.4512630000000  0.4699010000000 1.0
C      1  0.4465910000000  0.4938430000000  0.4968740000000 1.0
C      1  0.5014880000000  0.4232170000000  0.5867920000000 1.0
C      1  0.4490760000000  0.5803910000000  0.5099090000000 1.0
C      1  0.5351390000000  0.4485710000000  0.5073990000000 1.0
C      1  0.5038180000000  0.5638400000000  0.5502220000000 1.0
C      1  0.5133360000000  0.4710720000000  0.5661290000000 1.0
C      1  0.5724970000000  0.5224240000000  0.4341930000000 1.0
C      1  0.4870990000000  0.4741730000000  0.5813020000000 1.0
C      1  0.4997620000000  0.4466590000000  0.5519140000000 1.0
C      1  0.5214830000000  0.5736910000000  0.4570340000000 1.0
C      1  0.4779760000000  0.4862360000000  0.4586820000000 1.0
C      1  0.4700390000000  0.4046930000000  0.5388820000000 1.0
C      1  0.5697180000000  0.4499890000000  0.5680180000000 1.0
C      1  0.4958090000000  0.4682830000000  0.4406730000000 1.0
C      1  0.5653980000000  0.5780490000000  0.4938270000000 1.0
C      1  0.5786390000000  0.4958670000000  0.5473870000000 1.0
C      1  0.4228810000000  0.5283800000000  0.4709120000000 1.0
C      1  0.5199730000000  0.4245050000000  0.5433660000000 1.0
C      1  0.4665250000000  0.4927260000000  0.5717040000000 1.0
C      1  0.4458200000000  0.4477770000000  0.4303820000000 1.0
C      1  0.5755710000000  0.5260370000000  0.5511010000000 1.0
C      1  0.4573630000000  0.5442050000000  0.5513100000000 1.0
C      1  0.5340410000000  0.4654520000000  0.5866910000000 1.0
C      1  0.4687770000000  0.4183300000000  0.4647990000000 1.0
C      1  0.4290980000000  0.5595530000000  0.5128930000000 1.0
C      1  0.4647200000000  0.4556780000000  0.5110560000000 1.0
C      1  0.4074110000000  0.5161910000000  0.5074490000000 1.0
C      1  0.4881240000000  0.5043210000000  0.4055870000000 1.0
C      1  0.4359140000000  0.4209090000000  0.4976630000000 1.0
C      1  0.4939990000000  0.5978660000000  0.5212540000000 1.0
C      1  0.4679920000000  0.5862770000000  0.5300230000000 1.0
C      1  0.5749740000000  0.4785650000000  0.5721360000000 1.0
C      1  0.5894440000000  0.5200400000000  0.4579670000000 1.0
C      1  0.5579900000000  0.5333240000000  0.5732220000000 1.0
C      1  0.4168160000000  0.4733670000000  0.5247210000000 1.0
C      1  0.5952770000000  0.4827830000000  0.5249200000000 1.0
C      1  0.5408940000000  0.5545750000000  0.5737260000000 1.0
C      1  0.4304390000000  0.5448660000000  0.5376970000000 1.0
C      1  0.5259220000000  0.4200060000000  0.5745540000000 1.0
C      1  0.4478250000000  0.4166930000000  0.5477180000000 1.0
C      1  0.5458350000000  0.4400740000000  0.5817840000000 1.0
C      1  0.5663230000000  0.5694630000000  0.5213760000000 1.0
END
