TITL C-2109084-3490-12 -0.109973662811453 125000 -542.812862937027 0 0 78 (C1) n - 1
REM
REM in /nfs/bkarasulu/CARBON/AIRSS/Generating-Clusters/GAP-ML-2020/Only-C1/SD-CG/HFTN-CG
REM
REM
REM
REM
REM
REM ./C.cell (11c1c37f851c82e70ff6c80c92926a4b)
REM
REM compiler GCC version 9.2.1 20190827 (Red Hat 9.2.1-1)
REM options -cpp -mtune=generic -march=x86-64 -g -O0 -fpre-include=/usr/include/finclude/math-vector-fortran.h
REM seed -2019950898 510704171 -990603028 -96928865 -1182484459 440784789 -437139462 19276069 1299013487 289254617 1944531903 531499863 512641244 -836395382 -1287864300 -1784763905 1451971030 424464885 -1972106908 -1228266699 2080662678 -894033352 131153274 1562288101 45255532 1040259982 416036235 154222584 502281223 622660589 -1270288372 -2007936605 -329623580
REM
CELL 1.54180   50.00000   50.00000   50.00000   90.00000   90.00000   90.00000
LATT -1
SFAC C  
C      1  0.4754810000000  0.5035430000000  0.4712460000000 1.0
C      1  0.5177600000000  0.4563530000000  0.4342400000000 1.0
C      1  0.4698890000000  0.5643150000000  0.4751600000000 1.0
C      1  0.4374680000000  0.5367020000000  0.4944380000000 1.0
C      1  0.4976570000000  0.4724580000000  0.4200540000000 1.0
C      1  0.5136910000000  0.5138830000000  0.5290220000000 1.0
C      1  0.5188150000000  0.5281930000000  0.4805310000000 1.0
C      1  0.5004290000000  0.5460040000000  0.5675120000000 1.0
C      1  0.5589240000000  0.4965150000000  0.5174760000000 1.0
C      1  0.4475930000000  0.4936140000000  0.4370610000000 1.0
C      1  0.4396010000000  0.4701440000000  0.5275550000000 1.0
C      1  0.4766380000000  0.4366230000000  0.5357070000000 1.0
C      1  0.4474510000000  0.4606120000000  0.4729550000000 1.0
C      1  0.4731370000000  0.4758380000000  0.4724400000000 1.0
C      1  0.5712220000000  0.4918130000000  0.5445060000000 1.0
C      1  0.5157840000000  0.5262780000000  0.5790580000000 1.0
C      1  0.4668630000000  0.4706800000000  0.5691170000000 1.0
C      1  0.5604130000000  0.5324640000000  0.4800080000000 1.0
C      1  0.5148770000000  0.4840040000000  0.4836330000000 1.0
C      1  0.4728850000000  0.5377750000000  0.4352280000000 1.0
C      1  0.4879180000000  0.4337810000000  0.4912400000000 1.0
C      1  0.5131820000000  0.5221830000000  0.4211710000000 1.0
C      1  0.4319010000000  0.4898620000000  0.5079690000000 1.0
C      1  0.5318710000000  0.4926330000000  0.5323410000000 1.0
C      1  0.5012360000000  0.5426830000000  0.4368050000000 1.0
C      1  0.5474160000000  0.5479830000000  0.5201210000000 1.0
C      1  0.4935740000000  0.4652560000000  0.4901630000000 1.0
C      1  0.4905740000000  0.4753320000000  0.5182800000000 1.0
C      1  0.4646380000000  0.5221990000000  0.5300760000000 1.0
C      1  0.4394160000000  0.5168390000000  0.5137390000000 1.0
C      1  0.4725570000000  0.5506780000000  0.5225890000000 1.0
C      1  0.5408740000000  0.5248100000000  0.4132410000000 1.0
C      1  0.5407220000000  0.5508130000000  0.5483250000000 1.0
C      1  0.4895480000000  0.5045770000000  0.5166140000000 1.0
C      1  0.5169170000000  0.4665950000000  0.5347320000000 1.0
C      1  0.4567530000000  0.5479950000000  0.4553590000000 1.0
C      1  0.5533380000000  0.4744370000000  0.4971850000000 1.0
C      1  0.5205100000000  0.5363670000000  0.5111930000000 1.0
C      1  0.5462770000000  0.5130420000000  0.4641160000000 1.0
C      1  0.4533750000000  0.4452800000000  0.5200260000000 1.0
C      1  0.5626120000000  0.5253610000000  0.5073770000000 1.0
C      1  0.5398770000000  0.5690790000000  0.4995190000000 1.0
C      1  0.4557380000000  0.4664160000000  0.4442240000000 1.0
C      1  0.4577920000000  0.4403520000000  0.4926980000000 1.0
C      1  0.4930870000000  0.5005990000000  0.4181030000000 1.0
C      1  0.5003770000000  0.5606190000000  0.5231590000000 1.0
C      1  0.4828500000000  0.4494250000000  0.5607530000000 1.0
C      1  0.5039610000000  0.5011440000000  0.5841890000000 1.0
C      1  0.5412120000000  0.4475280000000  0.4998250000000 1.0
C      1  0.4309320000000  0.4836190000000  0.4804130000000 1.0
C      1  0.5431370000000  0.4837230000000  0.4717020000000 1.0
C      1  0.5483570000000  0.4819020000000  0.5784450000000 1.0
C      1  0.5151230000000  0.5527610000000  0.4614390000000 1.0
C      1  0.5456250000000  0.5580600000000  0.4748810000000 1.0
C      1  0.4769380000000  0.4539160000000  0.4299070000000 1.0
C      1  0.4975870000000  0.4373860000000  0.4431140000000 1.0
C      1  0.4330380000000  0.5036480000000  0.4597280000000 1.0
C      1  0.5203000000000  0.4780740000000  0.5811230000000 1.0
C      1  0.5135080000000  0.5610520000000  0.5491070000000 1.0
C      1  0.5094590000000  0.4594950000000  0.5622900000000 1.0
C      1  0.4362380000000  0.5309940000000  0.4667600000000 1.0
C      1  0.4979610000000  0.5089290000000  0.4860770000000 1.0
C      1  0.4978030000000  0.4285040000000  0.5180230000000 1.0
C      1  0.5605870000000  0.4687000000000  0.5568580000000 1.0
C      1  0.5592340000000  0.5069330000000  0.5680860000000 1.0
C      1  0.4674990000000  0.5108880000000  0.4255250000000 1.0
C      1  0.5424850000000  0.5295870000000  0.5672820000000 1.0
C      1  0.4469830000000  0.4818270000000  0.5520040000000 1.0
C      1  0.5326230000000  0.4388630000000  0.4740390000000 1.0
C      1  0.4973670000000  0.5707590000000  0.4762810000000 1.0
C      1  0.5238430000000  0.4415690000000  0.5210200000000 1.0
C      1  0.4589940000000  0.5085270000000  0.5562150000000 1.0
C      1  0.5055820000000  0.4279010000000  0.4686170000000 1.0
C      1  0.5111960000000  0.5762080000000  0.5008410000000 1.0
C      1  0.4771390000000  0.4973220000000  0.5761350000000 1.0
C      1  0.5485440000000  0.5213120000000  0.4372790000000 1.0
C      1  0.4575640000000  0.5566860000000  0.4997340000000 1.0
C      1  0.5376720000000  0.4591820000000  0.4549980000000 1.0
END
