TITL C-21843-6178-2 0.183735890385569 125000 -827.824947731202 0 0 119 (C1) n - 1
REM
REM in /rds/project/t2_vol4/rds-t2-cs072/BORA/CARBON/from-Arr/AIRSS/Generating-Clusters/GAP-ML-2020/Only-C1/SD-CG/HFTN-CG
REM
REM
REM
REM
REM
REM ./C.cell (11c1c37f851c82e70ff6c80c92926a4b)
REM AIRSS Version 0.9.1 bugfix July 2018 build 013d7b7c2542+ Fri, 06 Jul 2018 19:26:36 +0100
REM compiler GCC version 9.3.0
REM options -cpp -mtune=generic -march=x86-64 -g -O0
REM seed 619701051 -1465168773 997969675 -991931202 -2002385420 759450989 -94190914 1435016447 -504337540 -1812115550 1044903570 -591525681 -2079748030 605803922 633068285 877807320 1036374812 -1562830314 -1149612724 836310962 55436939 -1227328641 1784058142 -1379166965 -69504526 -297261321 -1142246770 -1548417089 1391250102 828543839 -1035642153 1279289008 150916293
REM
CELL 1.54180   50.00000   50.00000   50.00000   90.00000   90.00000   90.00000
LATT -1
SFAC C  
C      1  0.4121340000000  0.5077700000000  0.5363110000000 1.0
C      1  0.4360420000000  0.5120110000000  0.4432130000000 1.0
C      1  0.4638150000000  0.5907660000000  0.5116080000000 1.0
C      1  0.5634070000000  0.4765250000000  0.4420030000000 1.0
C      1  0.4691310000000  0.4788060000000  0.5164510000000 1.0
C      1  0.4912560000000  0.4341240000000  0.5671180000000 1.0
C      1  0.5118890000000  0.5385260000000  0.4046630000000 1.0
C      1  0.5772800000000  0.5385600000000  0.5117890000000 1.0
C      1  0.4450340000000  0.4439500000000  0.4747470000000 1.0
C      1  0.4743180000000  0.5254790000000  0.5192580000000 1.0
C      1  0.4789660000000  0.4226530000000  0.5432550000000 1.0
C      1  0.5327580000000  0.5158370000000  0.5013450000000 1.0
C      1  0.5013820000000  0.4363210000000  0.4629690000000 1.0
C      1  0.4760300000000  0.4982860000000  0.4147470000000 1.0
C      1  0.4882020000000  0.4885580000000  0.4416140000000 1.0
C      1  0.5447490000000  0.5401170000000  0.4379160000000 1.0
C      1  0.5501720000000  0.4223520000000  0.5259010000000 1.0
C      1  0.5864530000000  0.4920980000000  0.4506480000000 1.0
C      1  0.4709360000000  0.5301460000000  0.4737860000000 1.0
C      1  0.5266100000000  0.5861290000000  0.4711610000000 1.0
C      1  0.5495790000000  0.5701040000000  0.4817850000000 1.0
C      1  0.5052210000000  0.5869080000000  0.4906220000000 1.0
C      1  0.4384940000000  0.5231290000000  0.5687850000000 1.0
C      1  0.5590310000000  0.5609190000000  0.5075980000000 1.0
C      1  0.4106440000000  0.5112430000000  0.4909100000000 1.0
C      1  0.5228830000000  0.4554020000000  0.4533220000000 1.0
C      1  0.4424400000000  0.4742290000000  0.5575880000000 1.0
C      1  0.4632410000000  0.4750880000000  0.5777030000000 1.0
C      1  0.5033440000000  0.4083400000000  0.4705710000000 1.0
C      1  0.5317710000000  0.4861150000000  0.5273470000000 1.0
C      1  0.4780870000000  0.5936420000000  0.4866730000000 1.0
C      1  0.4087620000000  0.4928740000000  0.5127270000000 1.0
C      1  0.5411150000000  0.5514130000000  0.5334820000000 1.0
C      1  0.5456260000000  0.4903660000000  0.4199230000000 1.0
C      1  0.5120120000000  0.5694500000000  0.4478690000000 1.0
C      1  0.5204090000000  0.5631900000000  0.5544390000000 1.0
C      1  0.4745340000000  0.5468640000000  0.4990000000000 1.0
C      1  0.5276900000000  0.4171580000000  0.5435240000000 1.0
C      1  0.5241460000000  0.4026540000000  0.4898980000000 1.0
C      1  0.5317880000000  0.4561830000000  0.5802910000000 1.0
C      1  0.4277810000000  0.4987320000000  0.5579510000000 1.0
C      1  0.5409880000000  0.5138820000000  0.5890290000000 1.0
C      1  0.4603430000000  0.5621720000000  0.5557490000000 1.0
C      1  0.5672280000000  0.4450380000000  0.5294370000000 1.0
C      1  0.4277320000000  0.4986800000000  0.4702860000000 1.0
C      1  0.5050290000000  0.5127410000000  0.4410100000000 1.0
C      1  0.5755760000000  0.4895940000000  0.5121650000000 1.0
C      1  0.5239670000000  0.4910360000000  0.4006610000000 1.0
C      1  0.4985720000000  0.4787990000000  0.4053020000000 1.0
C      1  0.5086120000000  0.4524030000000  0.5122480000000 1.0
C      1  0.5328180000000  0.4671510000000  0.5032540000000 1.0
C      1  0.4223440000000  0.4682290000000  0.5099150000000 1.0
C      1  0.4652270000000  0.4314430000000  0.4950740000000 1.0
C      1  0.4581790000000  0.5044490000000  0.5108350000000 1.0
C      1  0.5853920000000  0.4871990000000  0.5402190000000 1.0
C      1  0.4357600000000  0.5455430000000  0.5514500000000 1.0
C      1  0.4997570000000  0.5229270000000  0.4676060000000 1.0
C      1  0.5590290000000  0.4413630000000  0.4814330000000 1.0
C      1  0.4285960000000  0.4655870000000  0.4826710000000 1.0
C      1  0.4912190000000  0.4485940000000  0.4894780000000 1.0
C      1  0.4876740000000  0.5278820000000  0.4177170000000 1.0
C      1  0.4829320000000  0.5710430000000  0.4426490000000 1.0
C      1  0.5202680000000  0.4334640000000  0.5659880000000 1.0
C      1  0.5596220000000  0.4987130000000  0.5772130000000 1.0
C      1  0.4624710000000  0.5247290000000  0.5828730000000 1.0
C      1  0.5528060000000  0.4504310000000  0.4542420000000 1.0
C      1  0.4173480000000  0.5355920000000  0.5305030000000 1.0
C      1  0.5464470000000  0.5450290000000  0.4669600000000 1.0
C      1  0.5097240000000  0.5004480000000  0.4855600000000 1.0
C      1  0.5035920000000  0.5570150000000  0.4977940000000 1.0
C      1  0.4768890000000  0.5484760000000  0.5753010000000 1.0
C      1  0.5018870000000  0.4081170000000  0.5329130000000 1.0
C      1  0.5469810000000  0.4186830000000  0.4967660000000 1.0
C      1  0.5362350000000  0.5111320000000  0.4378760000000 1.0
C      1  0.4420360000000  0.5624920000000  0.4632140000000 1.0
C      1  0.5571350000000  0.4693220000000  0.5740480000000 1.0
C      1  0.5236680000000  0.5174940000000  0.3918240000000 1.0
C      1  0.4844090000000  0.4567920000000  0.5825470000000 1.0
C      1  0.4929930000000  0.4710580000000  0.5311220000000 1.0
C      1  0.4447750000000  0.4671430000000  0.4307150000000 1.0
C      1  0.4712720000000  0.4851060000000  0.4662200000000 1.0
C      1  0.4658970000000  0.5797870000000  0.4631620000000 1.0
C      1  0.5631280000000  0.5289590000000  0.5357930000000 1.0
C      1  0.5273190000000  0.4791710000000  0.4743120000000 1.0
C      1  0.4443880000000  0.4597580000000  0.5301760000000 1.0
C      1  0.5147320000000  0.5472930000000  0.4710070000000 1.0
C      1  0.4489140000000  0.5686830000000  0.5050720000000 1.0
C      1  0.4808880000000  0.4055890000000  0.4891460000000 1.0
C      1  0.4555110000000  0.5055700000000  0.4797520000000 1.0
C      1  0.4588320000000  0.4338110000000  0.5253030000000 1.0
C      1  0.4823340000000  0.4424440000000  0.4416260000000 1.0
C      1  0.4856710000000  0.4781730000000  0.4890880000000 1.0
C      1  0.5755030000000  0.5099770000000  0.5557570000000 1.0
C      1  0.4151600000000  0.5382890000000  0.5014550000000 1.0
C      1  0.5738350000000  0.4627590000000  0.5507230000000 1.0
C      1  0.5085040000000  0.4705590000000  0.5904120000000 1.0
C      1  0.4476920000000  0.4933610000000  0.4231900000000 1.0
C      1  0.5011140000000  0.4986070000000  0.5943020000000 1.0
C      1  0.4746780000000  0.5810640000000  0.5376420000000 1.0
C      1  0.5192140000000  0.5382870000000  0.5164920000000 1.0
C      1  0.5056190000000  0.5478440000000  0.5765580000000 1.0
C      1  0.5826440000000  0.5136070000000  0.4934780000000 1.0
C      1  0.5074160000000  0.4942680000000  0.5381800000000 1.0
C      1  0.4998150000000  0.4631490000000  0.4312780000000 1.0
C      1  0.5013020000000  0.5789200000000  0.5423550000000 1.0
C      1  0.5474230000000  0.4969650000000  0.4615060000000 1.0
C      1  0.4705210000000  0.5485660000000  0.4287120000000 1.0
C      1  0.4544430000000  0.4473800000000  0.4466000000000 1.0
C      1  0.5009190000000  0.3975050000000  0.5076050000000 1.0
C      1  0.5509300000000  0.5045090000000  0.5216680000000 1.0
C      1  0.5543700000000  0.5192690000000  0.4800650000000 1.0
C      1  0.5646470000000  0.4605710000000  0.5046260000000 1.0
C      1  0.5256550000000  0.5557380000000  0.4252470000000 1.0
C      1  0.5980040000000  0.5064160000000  0.4692330000000 1.0
C      1  0.4492710000000  0.5393250000000  0.4463650000000 1.0
C      1  0.4283820000000  0.5599610000000  0.4880250000000 1.0
C      1  0.4990230000000  0.5203660000000  0.5309560000000 1.0
C      1  0.4736340000000  0.4998540000000  0.5885100000000 1.0
C      1  0.5159730000000  0.5236410000000  0.5902430000000 1.0
END
