TITL C-211916-464-9 -90.3988482680152 125000 -273.740149736477 0 0 41 (C1) n - 1
REM
REM in /rds/project/t2_vol4/rds-t2-cs072/BORA/CARBON/from-Arr/AIRSS/Generating-Clusters/GAP-ML-2020/Only-C1/SD-CG/HFTN-CG
REM
REM
REM
REM
REM
REM ./C.cell (11c1c37f851c82e70ff6c80c92926a4b)
REM AIRSS Version 0.9.1 bugfix July 2018 build 013d7b7c2542+ Fri, 06 Jul 2018 19:26:36 +0100
REM compiler GCC version 9.3.0
REM options -cpp -mtune=generic -march=x86-64 -g -O0
REM seed -1809085465 -1548671175 1770816606 -1621959444 2139601049 -334242067 537467575 1352139708 960546292 -1018186643 157878440 372787550 1077971791 -1493693011 -946215423 -1348943084 193563962 959318336 -2141296741 1650113998 -160355916 -2108176106 -358740164 2008643768 780426327 2088262923 -1955598375 -1774535155 1253466106 -1890123292 2015609220 336514130 1757928798
REM
CELL 1.54180   50.00000   50.00000   50.00000   90.00000   90.00000   90.00000
LATT -1
SFAC C  
C      1  0.4899780000000  0.4565200000000  0.4459850000000 1.0
C      1  0.5327850000000  0.4627330000000  0.5202780000000 1.0
C      1  0.4615750000000  0.4885830000000  0.4846670000000 1.0
C      1  0.4627210000000  0.5452820000000  0.5173560000000 1.0
C      1  0.4499480000000  0.5071190000000  0.5415400000000 1.0
C      1  0.4463100000000  0.5119880000000  0.4887400000000 1.0
C      1  0.5104620000000  0.4910990000000  0.4863570000000 1.0
C      1  0.5559340000000  0.4930570000000  0.4781880000000 1.0
C      1  0.5375160000000  0.5306750000000  0.4793570000000 1.0
C      1  0.4844960000000  0.4571470000000  0.5167580000000 1.0
C      1  0.4953970000000  0.5133210000000  0.5614960000000 1.0
C      1  0.5151130000000  0.4690710000000  0.4453800000000 1.0
C      1  0.5554650000000  0.4564910000000  0.5069710000000 1.0
C      1  0.5105690000000  0.4413160000000  0.4821240000000 1.0
C      1  0.5260360000000  0.4888410000000  0.5325930000000 1.0
C      1  0.5160410000000  0.4978780000000  0.4426150000000 1.0
C      1  0.4785050000000  0.5354610000000  0.4533630000000 1.0
C      1  0.4901450000000  0.5106490000000  0.4496170000000 1.0
C      1  0.4676950000000  0.5537790000000  0.4898350000000 1.0
C      1  0.4922130000000  0.5545690000000  0.4731580000000 1.0
C      1  0.4679180000000  0.5226710000000  0.5576780000000 1.0
C      1  0.5532530000000  0.5128530000000  0.4993180000000 1.0
C      1  0.5138970000000  0.5339560000000  0.5103240000000 1.0
C      1  0.5330220000000  0.5063950000000  0.4641780000000 1.0
C      1  0.4691150000000  0.4617480000000  0.4918100000000 1.0
C      1  0.5163510000000  0.5477130000000  0.4861970000000 1.0
C      1  0.4458400000000  0.5217980000000  0.5162790000000 1.0
C      1  0.5094030000000  0.5045660000000  0.5111110000000 1.0
C      1  0.4795150000000  0.4716560000000  0.5408300000000 1.0
C      1  0.4555390000000  0.5346840000000  0.4723160000000 1.0
C      1  0.5302390000000  0.4540560000000  0.4656580000000 1.0
C      1  0.5027620000000  0.4884770000000  0.5505350000000 1.0
C      1  0.5062820000000  0.5373000000000  0.5490340000000 1.0
C      1  0.4532310000000  0.4802000000000  0.5449700000000 1.0
C      1  0.4847240000000  0.4482130000000  0.4714760000000 1.0
C      1  0.5446230000000  0.5117040000000  0.5274190000000 1.0
C      1  0.5103200000000  0.4479090000000  0.5102320000000 1.0
C      1  0.5298230000000  0.5365240000000  0.5343220000000 1.0
C      1  0.5516470000000  0.4654360000000  0.4809550000000 1.0
C      1  0.4777350000000  0.5453640000000  0.5425450000000 1.0
C      1  0.4858590000000  0.5012000000000  0.4764350000000 1.0
END
