TITL C-21702-8313-6 -0.192904621922707 125000 -516.459130201516 0 0 75 (C1) n - 1
REM
REM in /rds/project/t2_vol4/rds-t2-cs072/BORA/CARBON/from-Arr/AIRSS/Generating-Clusters/GAP-ML-2020/Only-C1/SD-CG/HFTN-CG
REM
REM
REM
REM
REM
REM ./C.cell (11c1c37f851c82e70ff6c80c92926a4b)
REM AIRSS Version 0.9.1 bugfix July 2018 build 013d7b7c2542+ Fri, 06 Jul 2018 19:26:36 +0100
REM compiler GCC version 9.3.0
REM options -cpp -mtune=generic -march=x86-64 -g -O0
REM seed 793993103 1246789160 -640057932 -858353210 -1337469579 -1301546305 -1205158316 -522032358 -525246014 148687370 855826416 -551635377 -1325427987 -1106778569 -1039614527 730717622 1967724692 -940292269 -1959474175 467266278 366268426 -681230267 -534520344 1762699192 -581737023 2058868973 -544471439 1882618840 -2120333618 1957485294 2112187543 -1854768516 -1982311505
REM
CELL 1.54180   50.00000   50.00000   50.00000   90.00000   90.00000   90.00000
LATT -1
SFAC C  
C      1  0.5334580000000  0.4311570000000  0.4974140000000 1.0
C      1  0.4598580000000  0.5079230000000  0.4934860000000 1.0
C      1  0.4978340000000  0.4616790000000  0.4379420000000 1.0
C      1  0.4827870000000  0.4885790000000  0.4920880000000 1.0
C      1  0.5059280000000  0.5474370000000  0.4534620000000 1.0
C      1  0.4708260000000  0.5336320000000  0.4819460000000 1.0
C      1  0.5127260000000  0.5301850000000  0.4321180000000 1.0
C      1  0.5261830000000  0.4789410000000  0.4736340000000 1.0
C      1  0.4343140000000  0.4617220000000  0.5221620000000 1.0
C      1  0.4922440000000  0.4364600000000  0.5200930000000 1.0
C      1  0.5611450000000  0.5560080000000  0.4979660000000 1.0
C      1  0.4584680000000  0.5117920000000  0.5212680000000 1.0
C      1  0.5209950000000  0.4741280000000  0.5195010000000 1.0
C      1  0.5066310000000  0.5658910000000  0.4991220000000 1.0
C      1  0.5184070000000  0.4498260000000  0.4540620000000 1.0
C      1  0.5124970000000  0.5354460000000  0.5642140000000 1.0
C      1  0.4339470000000  0.4808830000000  0.4667120000000 1.0
C      1  0.5071000000000  0.5011540000000  0.4780440000000 1.0
C      1  0.5282560000000  0.4513540000000  0.5421810000000 1.0
C      1  0.4551450000000  0.4651210000000  0.5444060000000 1.0
C      1  0.5235160000000  0.5125680000000  0.5003170000000 1.0
C      1  0.5709990000000  0.4495880000000  0.5198690000000 1.0
C      1  0.4481780000000  0.4923730000000  0.5559710000000 1.0
C      1  0.4784630000000  0.5565170000000  0.5040710000000 1.0
C      1  0.4288020000000  0.4434800000000  0.5014140000000 1.0
C      1  0.4314880000000  0.5516750000000  0.5123520000000 1.0
C      1  0.4423600000000  0.4574000000000  0.4815940000000 1.0
C      1  0.4720160000000  0.4584290000000  0.4794810000000 1.0
C      1  0.5573370000000  0.4582400000000  0.5418840000000 1.0
C      1  0.5577330000000  0.4860330000000  0.5489330000000 1.0
C      1  0.4889130000000  0.4376750000000  0.4911460000000 1.0
C      1  0.4935340000000  0.5117990000000  0.5639370000000 1.0
C      1  0.4484650000000  0.5447970000000  0.4635490000000 1.0
C      1  0.5223930000000  0.5645930000000  0.5234410000000 1.0
C      1  0.5634450000000  0.5070850000000  0.5297350000000 1.0
C      1  0.4818090000000  0.4524070000000  0.5430400000000 1.0
C      1  0.4926460000000  0.5092590000000  0.4242910000000 1.0
C      1  0.5385290000000  0.5256270000000  0.5624080000000 1.0
C      1  0.4511520000000  0.5699150000000  0.5035150000000 1.0
C      1  0.5199210000000  0.5608120000000  0.4737810000000 1.0
C      1  0.4860000000000  0.5147200000000  0.5320680000000 1.0
C      1  0.4482130000000  0.5326550000000  0.4395900000000 1.0
C      1  0.4733890000000  0.4645280000000  0.4503880000000 1.0
C      1  0.5422020000000  0.4670540000000  0.4512090000000 1.0
C      1  0.5781070000000  0.4841930000000  0.4680090000000 1.0
C      1  0.5139750000000  0.4337820000000  0.4775680000000 1.0
C      1  0.4941440000000  0.5257080000000  0.4674690000000 1.0
C      1  0.4307840000000  0.5046630000000  0.5365840000000 1.0
C      1  0.5199190000000  0.4320350000000  0.5226870000000 1.0
C      1  0.5475140000000  0.5515960000000  0.4745270000000 1.0
C      1  0.4228410000000  0.4874000000000  0.5154430000000 1.0
C      1  0.4578150000000  0.5405110000000  0.5527340000000 1.0
C      1  0.5530600000000  0.5015230000000  0.5018920000000 1.0
C      1  0.4646710000000  0.5149350000000  0.5662820000000 1.0
C      1  0.5029690000000  0.4974830000000  0.5147490000000 1.0
C      1  0.4812180000000  0.5474440000000  0.5340480000000 1.0
C      1  0.4320480000000  0.4970000000000  0.4890900000000 1.0
C      1  0.5544840000000  0.5272410000000  0.4595720000000 1.0
C      1  0.4543620000000  0.4850480000000  0.4460990000000 1.0
C      1  0.5075400000000  0.4852770000000  0.4255250000000 1.0
C      1  0.5400100000000  0.4740920000000  0.4982720000000 1.0
C      1  0.5554690000000  0.5321510000000  0.5406240000000 1.0
C      1  0.5061390000000  0.5552780000000  0.5446990000000 1.0
C      1  0.4373250000000  0.5333060000000  0.5334560000000 1.0
C      1  0.5492250000000  0.5541820000000  0.5224120000000 1.0
C      1  0.5378620000000  0.4966530000000  0.5662830000000 1.0
C      1  0.5053280000000  0.4612640000000  0.5581220000000 1.0
C      1  0.4338970000000  0.5572370000000  0.4844890000000 1.0
C      1  0.5677760000000  0.5077970000000  0.4760700000000 1.0
C      1  0.5571030000000  0.4490940000000  0.4947520000000 1.0
C      1  0.5384050000000  0.5178460000000  0.4372610000000 1.0
C      1  0.5350230000000  0.4894660000000  0.4330630000000 1.0
C      1  0.5108650000000  0.4875870000000  0.5690070000000 1.0
C      1  0.4632160000000  0.5096950000000  0.4326370000000 1.0
C      1  0.5666530000000  0.4599670000000  0.4667680000000 1.0
END
