TITL C-21828-6205-5 -647.721533249063 125000 -747.624498750136 0 0 106 (C1) n - 1
REM
REM in /rds/project/t2_vol4/rds-t2-cs072/BORA/CARBON/from-Arr/AIRSS/Generating-Clusters/GAP-ML-2020/Only-C1/SD-CG/HFTN-CG
REM
REM
REM
REM
REM
REM ./C.cell (11c1c37f851c82e70ff6c80c92926a4b)
REM AIRSS Version 0.9.1 bugfix July 2018 build 013d7b7c2542+ Fri, 06 Jul 2018 19:26:36 +0100
REM compiler GCC version 9.3.0
REM options -cpp -mtune=generic -march=x86-64 -g -O0
REM seed -1907553593 1674051939 -539044175 -1190269293 -2042579872 -1826463939 -1581334430 -1387044638 1486695293 1157089224 1221764989 1472924880 229232191 262798976 1485594156 -1907605642 -402047368 1735976237 99800771 -1607893356 -1280011889 942431813 -308218719 567879685 158106661 348739420 1728251892 -369157339 -519482309 -798760839 -464492139 1959589246 136071849
REM
CELL 1.54180   50.00000   50.00000   50.00000   90.00000   90.00000   90.00000
LATT -1
SFAC C  
C      1  0.4413700000000  0.4711020000000  0.4500960000000 1.0
C      1  0.5523350000000  0.4456040000000  0.4561810000000 1.0
C      1  0.4833870000000  0.4198320000000  0.4779880000000 1.0
C      1  0.5230000000000  0.4426080000000  0.5693950000000 1.0
C      1  0.5373500000000  0.4717330000000  0.5073130000000 1.0
C      1  0.4814100000000  0.4450390000000  0.4382670000000 1.0
C      1  0.5273190000000  0.4455280000000  0.5203790000000 1.0
C      1  0.4251590000000  0.4544310000000  0.5086700000000 1.0
C      1  0.4844140000000  0.5720400000000  0.4796460000000 1.0
C      1  0.4744580000000  0.5486870000000  0.5571810000000 1.0
C      1  0.5660800000000  0.4637280000000  0.4975100000000 1.0
C      1  0.5256220000000  0.5395870000000  0.4338340000000 1.0
C      1  0.4207640000000  0.4840240000000  0.4670520000000 1.0
C      1  0.4947540000000  0.4836530000000  0.5285020000000 1.0
C      1  0.5587320000000  0.5479690000000  0.5424220000000 1.0
C      1  0.5556110000000  0.4936380000000  0.4326390000000 1.0
C      1  0.5309570000000  0.4231140000000  0.4985210000000 1.0
C      1  0.5420930000000  0.5649350000000  0.4408100000000 1.0
C      1  0.5558190000000  0.5416740000000  0.4360260000000 1.0
C      1  0.5790180000000  0.4673750000000  0.5245450000000 1.0
C      1  0.5278090000000  0.5474170000000  0.4817500000000 1.0
C      1  0.5239600000000  0.4638480000000  0.5892270000000 1.0
C      1  0.4713340000000  0.4406020000000  0.5530060000000 1.0
C      1  0.5269810000000  0.5086620000000  0.5912890000000 1.0
C      1  0.5628920000000  0.5324660000000  0.5659310000000 1.0
C      1  0.4114890000000  0.4988210000000  0.5111750000000 1.0
C      1  0.5320990000000  0.5196570000000  0.5202000000000 1.0
C      1  0.4797370000000  0.4887450000000  0.5855060000000 1.0
C      1  0.5602730000000  0.5101550000000  0.4755390000000 1.0
C      1  0.5847760000000  0.5129260000000  0.5326840000000 1.0
C      1  0.5723650000000  0.5362230000000  0.5202520000000 1.0
C      1  0.4388680000000  0.5065590000000  0.5562340000000 1.0
C      1  0.4596300000000  0.5760010000000  0.4930660000000 1.0
C      1  0.5077310000000  0.5079370000000  0.5092860000000 1.0
C      1  0.5763200000000  0.5081100000000  0.5603790000000 1.0
C      1  0.4978380000000  0.5116840000000  0.5872620000000 1.0
C      1  0.4897730000000  0.4897680000000  0.4385500000000 1.0
C      1  0.4678760000000  0.4269330000000  0.4548290000000 1.0
C      1  0.4948230000000  0.4652570000000  0.5890500000000 1.0
C      1  0.5164080000000  0.4867680000000  0.4881470000000 1.0
C      1  0.5247750000000  0.4360800000000  0.4522790000000 1.0
C      1  0.4679730000000  0.5213790000000  0.5237700000000 1.0
C      1  0.4747230000000  0.5160050000000  0.4796200000000 1.0
C      1  0.4369900000000  0.5628950000000  0.4815840000000 1.0
C      1  0.5621050000000  0.4376670000000  0.4822080000000 1.0
C      1  0.4219330000000  0.4923290000000  0.5372510000000 1.0
C      1  0.5366960000000  0.5718820000000  0.4675030000000 1.0
C      1  0.4992100000000  0.4533960000000  0.5226560000000 1.0
C      1  0.4875930000000  0.5289730000000  0.5027670000000 1.0
C      1  0.4412450000000  0.4376500000000  0.4913500000000 1.0
C      1  0.4431860000000  0.4412990000000  0.4629550000000 1.0
C      1  0.4862380000000  0.5201510000000  0.4091380000000 1.0
C      1  0.5310330000000  0.5028460000000  0.4685430000000 1.0
C      1  0.5197440000000  0.5458930000000  0.5662350000000 1.0
C      1  0.4893510000000  0.4735060000000  0.4812590000000 1.0
C      1  0.5306110000000  0.4954830000000  0.4171250000000 1.0
C      1  0.5391110000000  0.5315610000000  0.5806520000000 1.0
C      1  0.5113420000000  0.4758410000000  0.4238940000000 1.0
C      1  0.5934340000000  0.4901540000000  0.5219890000000 1.0
C      1  0.5089520000000  0.4484300000000  0.4323070000000 1.0
C      1  0.4245380000000  0.5470140000000  0.5018800000000 1.0
C      1  0.4930880000000  0.4427180000000  0.5708890000000 1.0
C      1  0.5177070000000  0.5279150000000  0.4603790000000 1.0
C      1  0.5628790000000  0.4715790000000  0.4507360000000 1.0
C      1  0.4596220000000  0.5709560000000  0.5208720000000 1.0
C      1  0.4835160000000  0.5690930000000  0.4525700000000 1.0
C      1  0.5101770000000  0.5689910000000  0.5230290000000 1.0
C      1  0.4665710000000  0.4257710000000  0.5011070000000 1.0
C      1  0.4138730000000  0.4759020000000  0.4939180000000 1.0
C      1  0.4913380000000  0.5163590000000  0.4569410000000 1.0
C      1  0.5158240000000  0.5212150000000  0.4136180000000 1.0
C      1  0.4298920000000  0.4646130000000  0.5358650000000 1.0
C      1  0.5648440000000  0.5177400000000  0.4465330000000 1.0
C      1  0.5517130000000  0.5301600000000  0.4980660000000 1.0
C      1  0.5718100000000  0.4825220000000  0.4753970000000 1.0
C      1  0.4393190000000  0.5518610000000  0.5263900000000 1.0
C      1  0.5027880000000  0.5551070000000  0.4970730000000 1.0
C      1  0.4267330000000  0.5293120000000  0.4475870000000 1.0
C      1  0.4748750000000  0.4939010000000  0.4145280000000 1.0
C      1  0.5378760000000  0.4929040000000  0.5313750000000 1.0
C      1  0.4130060000000  0.5220550000000  0.4942150000000 1.0
C      1  0.4820770000000  0.5686920000000  0.5376780000000 1.0
C      1  0.4383640000000  0.5545080000000  0.4544780000000 1.0
C      1  0.4758920000000  0.4696880000000  0.4541100000000 1.0
C      1  0.5647550000000  0.4829270000000  0.5693570000000 1.0
C      1  0.4941320000000  0.5374500000000  0.5742750000000 1.0
C      1  0.4505430000000  0.4606790000000  0.5558500000000 1.0
C      1  0.5284740000000  0.5488910000000  0.5382310000000 1.0
C      1  0.5351040000000  0.5922570000000  0.4866280000000 1.0
C      1  0.5421750000000  0.4846350000000  0.5877750000000 1.0
C      1  0.5644510000000  0.4618500000000  0.5496770000000 1.0
C      1  0.4157800000000  0.5123690000000  0.4671710000000 1.0
C      1  0.5120360000000  0.4233880000000  0.4761840000000 1.0
C      1  0.4550510000000  0.4860880000000  0.5695200000000 1.0
C      1  0.4682030000000  0.4926570000000  0.5201590000000 1.0
C      1  0.5562560000000  0.4126890000000  0.4916180000000 1.0
C      1  0.4779790000000  0.4340660000000  0.5257070000000 1.0
C      1  0.4687460000000  0.4897180000000  0.4909910000000 1.0
C      1  0.5250030000000  0.5934450000000  0.5100680000000 1.0
C      1  0.5407490000000  0.4450080000000  0.5475830000000 1.0
C      1  0.4477030000000  0.4906610000000  0.4253400000000 1.0
C      1  0.4511610000000  0.5332520000000  0.5462810000000 1.0
C      1  0.4645760000000  0.5358400000000  0.4196720000000 1.0
C      1  0.4624990000000  0.5585770000000  0.4384530000000 1.0
C      1  0.4424420000000  0.5179280000000  0.4267590000000 1.0
C      1  0.5149790000000  0.4867860000000  0.5480430000000 1.0
END
