TITL C-2109091-6471-9 87.3370701236388 125000 -422.545452346348 0 0 63 (C1) n - 1
REM
REM in /nfs/bkarasulu/CARBON/AIRSS/Generating-Clusters/GAP-ML-2020/Only-C1/SD-CG/HFTN-CG
REM
REM
REM
REM
REM
REM ./C.cell (11c1c37f851c82e70ff6c80c92926a4b)
REM
REM compiler GCC version 9.2.1 20190827 (Red Hat 9.2.1-1)
REM options -cpp -mtune=generic -march=x86-64 -g -O0 -fpre-include=/usr/include/finclude/math-vector-fortran.h
REM seed -1977987439 -1333610304 -5745975 1228275420 64558338 263878926 -1799647300 1059363961 -2114004388 -1827559754 1809728845 1019813721 -373148048 179339783 1539693245 -461118016 598746026 361817130 1638073051 58928747 2144346490 -1707900071 2056199246 303477071 1650431868 1674444324 -1116847886 -619817556 2110799701 1923093869 512241568 -1062104552 1164161741
REM
CELL 1.54180   50.00000   50.00000   50.00000   90.00000   90.00000   90.00000
LATT -1
SFAC C  
C      1  0.5027820000000  0.4687390000000  0.5121170000000 1.0
C      1  0.5510430000000  0.4961930000000  0.5063750000000 1.0
C      1  0.5639630000000  0.5443710000000  0.5140140000000 1.0
C      1  0.4990220000000  0.5190300000000  0.4636450000000 1.0
C      1  0.5050660000000  0.4889040000000  0.5670520000000 1.0
C      1  0.5187230000000  0.5240300000000  0.4284320000000 1.0
C      1  0.4627660000000  0.4386280000000  0.5300660000000 1.0
C      1  0.4700390000000  0.5485900000000  0.5138310000000 1.0
C      1  0.4729230000000  0.4299710000000  0.5044330000000 1.0
C      1  0.4815300000000  0.5644110000000  0.4914160000000 1.0
C      1  0.4848460000000  0.4412230000000  0.5480040000000 1.0
C      1  0.5419690000000  0.5138340000000  0.4426600000000 1.0
C      1  0.5099330000000  0.4350820000000  0.5329560000000 1.0
C      1  0.4454900000000  0.4576430000000  0.5161370000000 1.0
C      1  0.5600820000000  0.4608010000000  0.4716080000000 1.0
C      1  0.5394480000000  0.5192220000000  0.5439060000000 1.0
C      1  0.4909930000000  0.5134250000000  0.5724730000000 1.0
C      1  0.4942600000000  0.4355020000000  0.4582320000000 1.0
C      1  0.5159470000000  0.5362890000000  0.5073790000000 1.0
C      1  0.4807850000000  0.4810120000000  0.5275300000000 1.0
C      1  0.4936330000000  0.5064430000000  0.4344460000000 1.0
C      1  0.5657190000000  0.4866710000000  0.4789450000000 1.0
C      1  0.5224040000000  0.4958700000000  0.5439920000000 1.0
C      1  0.5262980000000  0.5082180000000  0.4680760000000 1.0
C      1  0.4531360000000  0.4865620000000  0.5134650000000 1.0
C      1  0.5136210000000  0.4350430000000  0.4774800000000 1.0
C      1  0.5013600000000  0.4373280000000  0.5045250000000 1.0
C      1  0.4574920000000  0.4915340000000  0.4798880000000 1.0
C      1  0.4936580000000  0.5063860000000  0.5313390000000 1.0
C      1  0.4832260000000  0.4687940000000  0.5579580000000 1.0
C      1  0.5210290000000  0.5396910000000  0.5383240000000 1.0
C      1  0.4422120000000  0.5129580000000  0.5232250000000 1.0
C      1  0.5373290000000  0.4472280000000  0.5373210000000 1.0
C      1  0.5173870000000  0.4794100000000  0.4644080000000 1.0
C      1  0.4506270000000  0.5145370000000  0.4612660000000 1.0
C      1  0.5310540000000  0.4758400000000  0.5240260000000 1.0
C      1  0.4960040000000  0.5346280000000  0.5534710000000 1.0
C      1  0.4590530000000  0.4804050000000  0.5677610000000 1.0
C      1  0.5608480000000  0.5181370000000  0.5249140000000 1.0
C      1  0.4801360000000  0.4571920000000  0.4489550000000 1.0
C      1  0.4789690000000  0.5490920000000  0.4441770000000 1.0
C      1  0.4622310000000  0.5075760000000  0.5690390000000 1.0
C      1  0.4844220000000  0.5055550000000  0.4850100000000 1.0
C      1  0.5626750000000  0.5008820000000  0.4535340000000 1.0
C      1  0.4520450000000  0.5236600000000  0.5482360000000 1.0
C      1  0.5085690000000  0.5501840000000  0.4409410000000 1.0
C      1  0.4537640000000  0.4456580000000  0.4899670000000 1.0
C      1  0.5596050000000  0.5647620000000  0.4992890000000 1.0
C      1  0.5371830000000  0.5717770000000  0.4828440000000 1.0
C      1  0.4988800000000  0.4808610000000  0.4870890000000 1.0
C      1  0.5335730000000  0.5156000000000  0.4943940000000 1.0
C      1  0.4462890000000  0.5373990000000  0.4767290000000 1.0
C      1  0.5338400000000  0.4544530000000  0.4690310000000 1.0
C      1  0.4596420000000  0.4637490000000  0.4694930000000 1.0
C      1  0.4711110000000  0.5449550000000  0.5428520000000 1.0
C      1  0.5105220000000  0.5610170000000  0.4906330000000 1.0
C      1  0.4663240000000  0.5575720000000  0.4684370000000 1.0
C      1  0.5212490000000  0.5648010000000  0.4616990000000 1.0
C      1  0.4895750000000  0.5230890000000  0.5077030000000 1.0
C      1  0.4974590000000  0.4792980000000  0.4420550000000 1.0
C      1  0.4447700000000  0.5354670000000  0.5049720000000 1.0
C      1  0.4688680000000  0.5221960000000  0.4387980000000 1.0
C      1  0.5606010000000  0.4406180000000  0.5470270000000 1.0
END
