TITL C-21830-6176-1 0.0506487276137402 125000 -175.684102673467 0 0 27 (C1) n - 1
REM
REM in /rds/project/t2_vol4/rds-t2-cs072/BORA/CARBON/from-Arr/AIRSS/Generating-Clusters/GAP-ML-2020/Only-C1/SD-CG/HFTN-CG
REM
REM
REM
REM
REM
REM ./C.cell (11c1c37f851c82e70ff6c80c92926a4b)
REM AIRSS Version 0.9.1 bugfix July 2018 build 013d7b7c2542+ Fri, 06 Jul 2018 19:26:36 +0100
REM compiler GCC version 9.3.0
REM options -cpp -mtune=generic -march=x86-64 -g -O0
REM seed 844293931 1426636185 1546989566 -262335073 1638021497 1423333031 -1658237746 426468388 -1215826035 480805248 1359862005 -240554106 -386974279 171031580 -2139873747 -1612193831 1540596637 2119950061 115781300 1222720958 -342320886 1354877157 210420540 901768387 649533205 993927068 -925602211 -1371591118 -20891531 19546533 -2123903645 -401673081 1883467088
REM
CELL 1.54180   50.00000   50.00000   50.00000   90.00000   90.00000   90.00000
LATT -1
SFAC C  
C      1  0.5036280000000  0.5528510000000  0.5281460000000 1.0
C      1  0.5308030000000  0.4952240000000  0.4567470000000 1.0
C      1  0.4646500000000  0.4538380000000  0.4824300000000 1.0
C      1  0.4872750000000  0.4664190000000  0.4759880000000 1.0
C      1  0.5146380000000  0.4807640000000  0.5361480000000 1.0
C      1  0.5234780000000  0.5230150000000  0.4571110000000 1.0
C      1  0.5091370000000  0.5028340000000  0.4940430000000 1.0
C      1  0.4801280000000  0.4606390000000  0.5274250000000 1.0
C      1  0.4779400000000  0.5094110000000  0.5382110000000 1.0
C      1  0.4615020000000  0.5097130000000  0.4783690000000 1.0
C      1  0.5302960000000  0.4831570000000  0.4831060000000 1.0
C      1  0.5168660000000  0.5499830000000  0.5048130000000 1.0
C      1  0.5515160000000  0.4911280000000  0.4989850000000 1.0
C      1  0.5463990000000  0.5133340000000  0.5139850000000 1.0
C      1  0.5130050000000  0.4615010000000  0.4898210000000 1.0
C      1  0.5213560000000  0.5064570000000  0.5265730000000 1.0
C      1  0.4627900000000  0.4683100000000  0.5057970000000 1.0
C      1  0.5008090000000  0.5264110000000  0.5342180000000 1.0
C      1  0.4869260000000  0.4951640000000  0.4700150000000 1.0
C      1  0.4496730000000  0.5316540000000  0.4701580000000 1.0
C      1  0.5056840000000  0.5025110000000  0.4499050000000 1.0
C      1  0.5410630000000  0.5370710000000  0.4994530000000 1.0
C      1  0.4871660000000  0.4831040000000  0.5431180000000 1.0
C      1  0.4524640000000  0.5100070000000  0.5285390000000 1.0
C      1  0.4541930000000  0.4961700000000  0.5049550000000 1.0
C      1  0.5176610000000  0.5299910000000  0.4839980000000 1.0
C      1  0.5089530000000  0.4593400000000  0.5179460000000 1.0
END
