TITL C-21782-1978-2 -453.086387674776 125000 -643.383610204695 0 0 93 (C1) n - 1
REM
REM in /rds/project/t2_vol4/rds-t2-cs072/BORA/CARBON/from-Arr/AIRSS/Generating-Clusters/GAP-ML-2020/Only-C1/SD-CG/HFTN-CG
REM
REM
REM
REM
REM
REM ./C.cell (11c1c37f851c82e70ff6c80c92926a4b)
REM AIRSS Version 0.9.1 bugfix July 2018 build 013d7b7c2542+ Fri, 06 Jul 2018 19:26:36 +0100
REM compiler GCC version 9.3.0
REM options -cpp -mtune=generic -march=x86-64 -g -O0
REM seed -73853665 2136806304 284252785 -257519124 1410959498 -541189989 329058246 -343984096 1725745333 147450869 -1244933507 -827119139 -1176123525 778860249 1033510352 -1938986015 1474651786 1452628854 205712127 -186564970 1524696780 -12697613 1650200194 427832585 -605278984 -2079444133 -467888797 -329324664 -318754874 -1945411113 -1044457786 1187759507 -1043518825
REM
CELL 1.54180   50.00000   50.00000   50.00000   90.00000   90.00000   90.00000
LATT -1
SFAC C  
C      1  0.4295730000000  0.5218280000000  0.5349320000000 1.0
C      1  0.5041030000000  0.5036470000000  0.4163670000000 1.0
C      1  0.5723860000000  0.5469600000000  0.4827140000000 1.0
C      1  0.4969780000000  0.4826840000000  0.4572720000000 1.0
C      1  0.4170590000000  0.4921190000000  0.4489800000000 1.0
C      1  0.5375910000000  0.5815900000000  0.4592130000000 1.0
C      1  0.5607290000000  0.5394560000000  0.4573640000000 1.0
C      1  0.4333900000000  0.4916250000000  0.5005530000000 1.0
C      1  0.5365980000000  0.5798810000000  0.4867070000000 1.0
C      1  0.5571870000000  0.5656700000000  0.4998640000000 1.0
C      1  0.5626300000000  0.5282110000000  0.5623720000000 1.0
C      1  0.5216910000000  0.4506350000000  0.4412220000000 1.0
C      1  0.5419260000000  0.5000650000000  0.4316190000000 1.0
C      1  0.4257940000000  0.4684520000000  0.4461080000000 1.0
C      1  0.5814790000000  0.5144110000000  0.5199420000000 1.0
C      1  0.5226910000000  0.5460170000000  0.4274730000000 1.0
C      1  0.4300700000000  0.4939790000000  0.5296470000000 1.0
C      1  0.5646390000000  0.4887520000000  0.5201910000000 1.0
C      1  0.4974530000000  0.4612140000000  0.4775850000000 1.0
C      1  0.5086360000000  0.4449320000000  0.5552480000000 1.0
C      1  0.5178530000000  0.4208640000000  0.4812660000000 1.0
C      1  0.5555590000000  0.4380540000000  0.5375670000000 1.0
C      1  0.5325010000000  0.5301000000000  0.5109520000000 1.0
C      1  0.4690410000000  0.5502140000000  0.5552470000000 1.0
C      1  0.5677420000000  0.4660650000000  0.5009100000000 1.0
C      1  0.4576010000000  0.4315120000000  0.5548690000000 1.0
C      1  0.4541880000000  0.5108700000000  0.5738740000000 1.0
C      1  0.5696140000000  0.5351310000000  0.5377570000000 1.0
C      1  0.5186670000000  0.4825080000000  0.5126860000000 1.0
C      1  0.4632720000000  0.4157930000000  0.4760190000000 1.0
C      1  0.4820800000000  0.5130130000000  0.5815150000000 1.0
C      1  0.5166900000000  0.4787220000000  0.4331660000000 1.0
C      1  0.5091540000000  0.5721050000000  0.4965430000000 1.0
C      1  0.5366570000000  0.5176190000000  0.5654720000000 1.0
C      1  0.5178960000000  0.5402290000000  0.5617380000000 1.0
C      1  0.5552120000000  0.5115170000000  0.4542890000000 1.0
C      1  0.4419220000000  0.4473110000000  0.5372400000000 1.0
C      1  0.4118290000000  0.5121540000000  0.4904920000000 1.0
C      1  0.4748440000000  0.5680390000000  0.5334740000000 1.0
C      1  0.4940960000000  0.5482100000000  0.4307280000000 1.0
C      1  0.4538490000000  0.5711170000000  0.5129870000000 1.0
C      1  0.4572000000000  0.4831210000000  0.5682220000000 1.0
C      1  0.4864560000000  0.4840980000000  0.5767810000000 1.0
C      1  0.4843680000000  0.5086210000000  0.5237250000000 1.0
C      1  0.4868410000000  0.5779640000000  0.4762150000000 1.0
C      1  0.4770660000000  0.5202510000000  0.5006280000000 1.0
C      1  0.5112550000000  0.4708290000000  0.5699170000000 1.0
C      1  0.4462780000000  0.5270450000000  0.4621280000000 1.0
C      1  0.5647980000000  0.4199940000000  0.4907160000000 1.0
C      1  0.5134810000000  0.4326910000000  0.5090620000000 1.0
C      1  0.4458400000000  0.5317360000000  0.5563360000000 1.0
C      1  0.4170360000000  0.5161490000000  0.4624440000000 1.0
C      1  0.4606220000000  0.4220250000000  0.5020620000000 1.0
C      1  0.5008010000000  0.4369510000000  0.4609810000000 1.0
C      1  0.5393900000000  0.5027060000000  0.5071310000000 1.0
C      1  0.4249410000000  0.5334720000000  0.5083510000000 1.0
C      1  0.5163450000000  0.5423250000000  0.4925700000000 1.0
C      1  0.4779100000000  0.4635420000000  0.5011860000000 1.0
C      1  0.4803710000000  0.5640630000000  0.4502810000000 1.0
C      1  0.4908450000000  0.5379380000000  0.5701060000000 1.0
C      1  0.4521930000000  0.4632000000000  0.4613790000000 1.0
C      1  0.4395490000000  0.4737370000000  0.5472960000000 1.0
C      1  0.4831960000000  0.5210420000000  0.4252810000000 1.0
C      1  0.5237300000000  0.5586710000000  0.5408420000000 1.0
C      1  0.5268500000000  0.4338030000000  0.5361780000000 1.0
C      1  0.4505870000000  0.5174470000000  0.4912810000000 1.0
C      1  0.4548290000000  0.5559820000000  0.4617220000000 1.0
C      1  0.5460540000000  0.4474620000000  0.4565400000000 1.0
C      1  0.5677960000000  0.4391480000000  0.5099210000000 1.0
C      1  0.4846620000000  0.4354360000000  0.5154980000000 1.0
C      1  0.5447570000000  0.4232840000000  0.4726880000000 1.0
C      1  0.5118460000000  0.5037910000000  0.4702120000000 1.0
C      1  0.5346460000000  0.4882070000000  0.5647950000000 1.0
C      1  0.5680240000000  0.4521680000000  0.5579480000000 1.0
C      1  0.4686060000000  0.4847650000000  0.4497140000000 1.0
C      1  0.4621870000000  0.5110030000000  0.4417260000000 1.0
C      1  0.5472840000000  0.4677270000000  0.4784630000000 1.0
C      1  0.5852670000000  0.5280900000000  0.4973070000000 1.0
C      1  0.5282090000000  0.5195790000000  0.4169530000000 1.0
C      1  0.4827250000000  0.4354390000000  0.5453830000000 1.0
C      1  0.5581640000000  0.4770810000000  0.5503850000000 1.0
C      1  0.5415450000000  0.4972780000000  0.4766780000000 1.0
C      1  0.5426110000000  0.5585310000000  0.4446860000000 1.0
C      1  0.4474070000000  0.4655450000000  0.4926510000000 1.0
C      1  0.4709920000000  0.4365390000000  0.4598490000000 1.0
C      1  0.4603610000000  0.5732230000000  0.4854970000000 1.0
C      1  0.5220580000000  0.4603420000000  0.4951520000000 1.0
C      1  0.4982890000000  0.5243530000000  0.4823140000000 1.0
C      1  0.5026960000000  0.5709360000000  0.5256830000000 1.0
C      1  0.4913680000000  0.4836360000000  0.5183440000000 1.0
C      1  0.5486950000000  0.5515930000000  0.5245760000000 1.0
C      1  0.4283440000000  0.5606270000000  0.5103290000000 1.0
C      1  0.4397610000000  0.4415390000000  0.5097240000000 1.0
END
