TITL C-2114530-5398-9 -0.0229722426190714 125000 -155.603957246611 0 0 25 (C1) n - 1
REM
REM in /nfs/bkarasulu/CARBON/AIRSS/Generating-Clusters/GAP-ML-2020/Only-C1/SD-CG/HFTN-CG
REM
REM
REM
REM
REM
REM ./C.cell (11c1c37f851c82e70ff6c80c92926a4b)
REM
REM compiler GCC version 9.2.1 20190827 (Red Hat 9.2.1-1)
REM options -cpp -mtune=generic -march=x86-64 -g -O0 -fpre-include=/usr/include/finclude/math-vector-fortran.h
REM seed 991769192 2096614216 1422969407 1762556224 -1331876273 -8841118 -548715262 1322564210 732240113 -1823840400 517063213 -38620179 -1772689046 1804831268 -1325577344 1795161385 745247125 1754846982 -1964806935 -1165931860 173463972 -457928745 -1717791816 601980085 -1571014879 1216182229 -1658661242 -2049410837 1927325509 -1945889208 -1801680133 1475730263 -573108699
REM
CELL 1.54180   50.00000   50.00000   50.00000   90.00000   90.00000   90.00000
LATT -1
SFAC C  
C      1  0.4514650000000  0.5568560000000  0.4607000000000 1.0
C      1  0.5306170000000  0.4846880000000  0.5260690000000 1.0
C      1  0.4747880000000  0.4727210000000  0.5220260000000 1.0
C      1  0.4987660000000  0.5491660000000  0.4793350000000 1.0
C      1  0.5254280000000  0.5228610000000  0.4975530000000 1.0
C      1  0.5323890000000  0.4640960000000  0.5053500000000 1.0
C      1  0.4952260000000  0.5123330000000  0.5357890000000 1.0
C      1  0.5082250000000  0.4565070000000  0.4916800000000 1.0
C      1  0.4753370000000  0.4448820000000  0.5253020000000 1.0
C      1  0.4698300000000  0.5434390000000  0.4772060000000 1.0
C      1  0.5124680000000  0.5042460000000  0.4576220000000 1.0
C      1  0.4533340000000  0.5125670000000  0.5171160000000 1.0
C      1  0.5096610000000  0.4799720000000  0.4490930000000 1.0
C      1  0.5097040000000  0.4581110000000  0.4629760000000 1.0
C      1  0.5428530000000  0.5035160000000  0.5065170000000 1.0
C      1  0.5480150000000  0.4823570000000  0.4894040000000 1.0
C      1  0.4915590000000  0.4334010000000  0.5085930000000 1.0
C      1  0.4969880000000  0.5074580000000  0.5047540000000 1.0
C      1  0.5120520000000  0.5478050000000  0.5081260000000 1.0
C      1  0.4682420000000  0.4977960000000  0.5346370000000 1.0
C      1  0.5178620000000  0.5272930000000  0.4693690000000 1.0
C      1  0.4687050000000  0.5205200000000  0.4955990000000 1.0
C      1  0.5170630000000  0.4973680000000  0.5443970000000 1.0
C      1  0.4989020000000  0.5410710000000  0.5307520000000 1.0
C      1  0.4905220000000  0.4789700000000  0.5000320000000 1.0
END
