TITL C-211895-534-8 -0.53649479503278 125000 -115.878508054986 0 0 18 (C1) n - 1
REM
REM in /rds/project/t2_vol4/rds-t2-cs072/BORA/CARBON/from-Arr/AIRSS/Generating-Clusters/GAP-ML-2020/Only-C1/SD-CG/HFTN-CG
REM
REM
REM
REM
REM
REM ./C.cell (11c1c37f851c82e70ff6c80c92926a4b)
REM AIRSS Version 0.9.1 bugfix July 2018 build 013d7b7c2542+ Fri, 06 Jul 2018 19:26:36 +0100
REM compiler GCC version 9.3.0
REM options -cpp -mtune=generic -march=x86-64 -g -O0
REM seed -1587889519 -455029696 1638245983 1495246419 -637711235 -690742968 -2121978568 -1536849191 -2075562456 -1678460334 696400394 -869877318 887317293 -2128060717 -1191463618 156312243 1897492811 -1797391126 -433272776 1634423384 1610207463 1519923396 384890137 -589239843 -61200273 62451809 535902122 218746213 1311935342 -1697995825 -1156579525 -255650633 630524454
REM
CELL 1.54180   50.00000   50.00000   50.00000   90.00000   90.00000   90.00000
LATT -1
SFAC C  
C      1  0.5195500000000  0.5628520000000  0.5156840000000 1.0
C      1  0.5219630000000  0.5454730000000  0.4494640000000 1.0
C      1  0.4984700000000  0.5010270000000  0.4441680000000 1.0
C      1  0.5127070000000  0.5220450000000  0.4426170000000 1.0
C      1  0.5150450000000  0.5472500000000  0.5360000000000 1.0
C      1  0.4702420000000  0.4745180000000  0.4758600000000 1.0
C      1  0.5236870000000  0.5718510000000  0.4918040000000 1.0
C      1  0.4800530000000  0.4697850000000  0.5489030000000 1.0
C      1  0.5254130000000  0.5642030000000  0.4667550000000 1.0
C      1  0.4883130000000  0.4241010000000  0.5245640000000 1.0
C      1  0.5344870000000  0.4918980000000  0.5079790000000 1.0
C      1  0.4883840000000  0.4468290000000  0.5381010000000 1.0
C      1  0.4818760000000  0.4848450000000  0.4563360000000 1.0
C      1  0.5204670000000  0.4981700000000  0.5297920000000 1.0
C      1  0.4667800000000  0.4630180000000  0.5001380000000 1.0
C      1  0.4721390000000  0.4359070000000  0.5068500000000 1.0
C      1  0.4674650000000  0.4744660000000  0.5262660000000 1.0
C      1  0.5129590000000  0.5217620000000  0.5387170000000 1.0
END
