TITL C-216137-3344-4 0.208007117099603 125000 -818.99148575279 0 0 117 (C1) n - 1
REM
REM in /rds/project/t2_vol4/rds-t2-cs072/BORA/CARBON/from-Arr/AIRSS/Generating-Clusters/GAP-ML-2020/Only-C1/SD-CG/HFTN-CG
REM
REM
REM
REM
REM
REM ./C.cell (11c1c37f851c82e70ff6c80c92926a4b)
REM AIRSS Version 0.9.1 bugfix July 2018 build 013d7b7c2542+ Fri, 06 Jul 2018 19:26:36 +0100
REM compiler GCC version 9.3.0
REM options -cpp -mtune=generic -march=x86-64 -g -O0
REM seed -710768287 -873695607 1698695668 -619204857 1519036277 981975164 1568523019 -807215893 -1648783817 2040611150 -623194310 1562559945 -2115210677 -1387694038 1469590162 -1487536896 -1697065678 1488130839 -165100767 1778963973 1878106839 1751819435 -868142314 -721227949 1451135308 947702995 -306497238 984973161 2010905498 1638044511 -73737603 -94759251 963329892
REM
CELL 1.54180   50.00000   50.00000   50.00000   90.00000   90.00000   90.00000
LATT -1
SFAC C  
C      1  0.4608140000000  0.5341530000000  0.5039600000000 1.0
C      1  0.5275180000000  0.4554730000000  0.4907000000000 1.0
C      1  0.5784100000000  0.4665340000000  0.5018350000000 1.0
C      1  0.4892420000000  0.4725370000000  0.4733770000000 1.0
C      1  0.4479360000000  0.5078500000000  0.5814500000000 1.0
C      1  0.4199830000000  0.5216090000000  0.5544910000000 1.0
C      1  0.5533630000000  0.4929720000000  0.4992960000000 1.0
C      1  0.5489750000000  0.4437890000000  0.4361840000000 1.0
C      1  0.4392170000000  0.4421240000000  0.5165510000000 1.0
C      1  0.5428220000000  0.4926320000000  0.5524000000000 1.0
C      1  0.5104730000000  0.4103830000000  0.5195530000000 1.0
C      1  0.5346660000000  0.4947370000000  0.4771870000000 1.0
C      1  0.5298340000000  0.5527690000000  0.4410180000000 1.0
C      1  0.5642870000000  0.4187160000000  0.4721080000000 1.0
C      1  0.4831010000000  0.5802580000000  0.5096370000000 1.0
C      1  0.4016250000000  0.5221490000000  0.4884500000000 1.0
C      1  0.5156780000000  0.4217240000000  0.5466720000000 1.0
C      1  0.5918200000000  0.4888840000000  0.4639590000000 1.0
C      1  0.5311750000000  0.5913540000000  0.5126930000000 1.0
C      1  0.5238930000000  0.4803830000000  0.4121810000000 1.0
C      1  0.5399010000000  0.4089220000000  0.4794840000000 1.0
C      1  0.5827740000000  0.4625220000000  0.4727860000000 1.0
C      1  0.4864200000000  0.5409740000000  0.5732670000000 1.0
C      1  0.4588050000000  0.5527040000000  0.4418650000000 1.0
C      1  0.5059600000000  0.4635560000000  0.5767640000000 1.0
C      1  0.5189150000000  0.4514880000000  0.5409030000000 1.0
C      1  0.4192500000000  0.4987700000000  0.4554970000000 1.0
C      1  0.4341830000000  0.4505280000000  0.4660110000000 1.0
C      1  0.4313870000000  0.5738000000000  0.5069500000000 1.0
C      1  0.5069500000000  0.5929170000000  0.4950190000000 1.0
C      1  0.5323950000000  0.4664460000000  0.5646370000000 1.0
C      1  0.5164350000000  0.5319460000000  0.5353510000000 1.0
C      1  0.5192920000000  0.4725310000000  0.4701260000000 1.0
C      1  0.5104810000000  0.5401900000000  0.5875300000000 1.0
C      1  0.4624080000000  0.4835640000000  0.5761920000000 1.0
C      1  0.4209320000000  0.5261890000000  0.4474920000000 1.0
C      1  0.4054460000000  0.4952130000000  0.4797850000000 1.0
C      1  0.4809250000000  0.4441210000000  0.4565050000000 1.0
C      1  0.5478450000000  0.4674860000000  0.4213720000000 1.0
C      1  0.5287930000000  0.5182780000000  0.5600270000000 1.0
C      1  0.5161880000000  0.4654710000000  0.5149950000000 1.0
C      1  0.5739600000000  0.4590590000000  0.5488770000000 1.0
C      1  0.5170950000000  0.4156530000000  0.4634300000000 1.0
C      1  0.4829370000000  0.5067730000000  0.5285800000000 1.0
C      1  0.4283250000000  0.5636130000000  0.4802190000000 1.0
C      1  0.5870510000000  0.5053670000000  0.5336550000000 1.0
C      1  0.5564860000000  0.4224700000000  0.5250270000000 1.0
C      1  0.4385120000000  0.5679460000000  0.5341370000000 1.0
C      1  0.5594360000000  0.5553780000000  0.5273650000000 1.0
C      1  0.5686870000000  0.4416930000000  0.4580220000000 1.0
C      1  0.5555870000000  0.5772250000000  0.5061370000000 1.0
C      1  0.5762770000000  0.5311190000000  0.5223530000000 1.0
C      1  0.5078690000000  0.5878820000000  0.4687020000000 1.0
C      1  0.4530480000000  0.4506640000000  0.4471070000000 1.0
C      1  0.5225320000000  0.5325730000000  0.4220290000000 1.0
C      1  0.5334670000000  0.5448060000000  0.5153770000000 1.0
C      1  0.5452140000000  0.5547090000000  0.4659200000000 1.0
C      1  0.5825510000000  0.4994520000000  0.4407650000000 1.0
C      1  0.4914090000000  0.4215210000000  0.4750050000000 1.0
C      1  0.4540280000000  0.5637730000000  0.4677090000000 1.0
C      1  0.4004920000000  0.5251500000000  0.5148290000000 1.0
C      1  0.4980460000000  0.5476600000000  0.4746330000000 1.0
C      1  0.4742800000000  0.5569970000000  0.4887310000000 1.0
C      1  0.4132910000000  0.5415570000000  0.4703020000000 1.0
C      1  0.4916440000000  0.5478280000000  0.5449460000000 1.0
C      1  0.4881440000000  0.4701500000000  0.5032840000000 1.0
C      1  0.5426550000000  0.5652810000000  0.5526410000000 1.0
C      1  0.4727090000000  0.4998950000000  0.4693010000000 1.0
C      1  0.5738810000000  0.4459800000000  0.5229150000000 1.0
C      1  0.4258370000000  0.4509870000000  0.4916090000000 1.0
C      1  0.4955500000000  0.4400300000000  0.5612530000000 1.0
C      1  0.4985470000000  0.4686390000000  0.4157780000000 1.0
C      1  0.5235610000000  0.5826890000000  0.5382430000000 1.0
C      1  0.4121800000000  0.4793590000000  0.5261820000000 1.0
C      1  0.5319470000000  0.4900790000000  0.5217960000000 1.0
C      1  0.5537860000000  0.4468820000000  0.5647270000000 1.0
C      1  0.5727230000000  0.5180350000000  0.4969720000000 1.0
C      1  0.4840100000000  0.5580000000000  0.4311140000000 1.0
C      1  0.4597650000000  0.5070680000000  0.4943900000000 1.0
C      1  0.4311680000000  0.4604440000000  0.5377740000000 1.0
C      1  0.4072370000000  0.5070630000000  0.5334960000000 1.0
C      1  0.4696950000000  0.4402490000000  0.5498840000000 1.0
C      1  0.4487220000000  0.5263900000000  0.4325650000000 1.0
C      1  0.4543020000000  0.5845980000000  0.5185930000000 1.0
C      1  0.4724680000000  0.5153800000000  0.4150580000000 1.0
C      1  0.4862760000000  0.4170270000000  0.5047830000000 1.0
C      1  0.5063410000000  0.5123390000000  0.5796260000000 1.0
C      1  0.5260620000000  0.5426570000000  0.4873530000000 1.0
C      1  0.4752080000000  0.4853720000000  0.4153950000000 1.0
C      1  0.5050050000000  0.5665220000000  0.4499220000000 1.0
C      1  0.5607620000000  0.4941430000000  0.4257730000000 1.0
C      1  0.4538580000000  0.4749960000000  0.4305190000000 1.0
C      1  0.4518780000000  0.4615750000000  0.5584590000000 1.0
C      1  0.5971630000000  0.4899180000000  0.5106530000000 1.0
C      1  0.5366510000000  0.4098420000000  0.5076890000000 1.0
C      1  0.4961890000000  0.5749210000000  0.5355770000000 1.0
C      1  0.4694810000000  0.4883560000000  0.5136440000000 1.0
C      1  0.4943360000000  0.5190300000000  0.4672670000000 1.0
C      1  0.4907300000000  0.4867810000000  0.5812850000000 1.0
C      1  0.5724540000000  0.4879720000000  0.5502360000000 1.0
C      1  0.5336280000000  0.5464280000000  0.5716370000000 1.0
C      1  0.5444090000000  0.4232170000000  0.5508500000000 1.0
C      1  0.4995730000000  0.4454160000000  0.4328910000000 1.0
C      1  0.4933870000000  0.5350570000000  0.4169620000000 1.0
C      1  0.5355480000000  0.5073720000000  0.4166990000000 1.0
C      1  0.5160100000000  0.5145640000000  0.4863080000000 1.0
C      1  0.4094020000000  0.4737980000000  0.4984370000000 1.0
C      1  0.5100500000000  0.5105700000000  0.5172130000000 1.0
C      1  0.5971710000000  0.5050580000000  0.4869920000000 1.0
C      1  0.4435290000000  0.5417720000000  0.5501820000000 1.0
C      1  0.4588640000000  0.5348560000000  0.5755310000000 1.0
C      1  0.5230440000000  0.4314810000000  0.4396490000000 1.0
C      1  0.5592690000000  0.5733130000000  0.4791460000000 1.0
C      1  0.4685220000000  0.5331030000000  0.5322470000000 1.0
C      1  0.4488390000000  0.4978120000000  0.4481980000000 1.0
C      1  0.4200760000000  0.5087790000000  0.5788610000000 1.0
C      1  0.4646650000000  0.4292430000000  0.5223220000000 1.0
END
