TITL C-21772-1984-4 665.244542065485 125000 -790.497928700387 0 0 114 (C1) n - 1
REM
REM in /rds/project/t2_vol4/rds-t2-cs072/BORA/CARBON/from-Arr/AIRSS/Generating-Clusters/GAP-ML-2020/Only-C1/SD-CG/HFTN-CG
REM
REM
REM
REM
REM
REM ./C.cell (11c1c37f851c82e70ff6c80c92926a4b)
REM AIRSS Version 0.9.1 bugfix July 2018 build 013d7b7c2542+ Fri, 06 Jul 2018 19:26:36 +0100
REM compiler GCC version 9.3.0
REM options -cpp -mtune=generic -march=x86-64 -g -O0
REM seed -993744561 -603665373 -1585119340 1656741148 2127860466 1268694213 -1977993439 136224182 699192185 -1321815323 -1478356879 267301618 890339563 -927362928 -1094051217 1803888941 -1131006707 -1572783799 361404535 -102619802 -693848513 268046206 -757896146 -1442159101 -34550432 -808788949 -1178637832 864244678 -550079962 -1402632992 -126992346 349728015 56017029
REM
CELL 1.54180   50.00000   50.00000   50.00000   90.00000   90.00000   90.00000
LATT -1
SFAC C  
C      1  0.4868100000000  0.5325150000000  0.5270620000000 1.0
C      1  0.5118210000000  0.5710280000000  0.4508520000000 1.0
C      1  0.4503900000000  0.5026070000000  0.4303200000000 1.0
C      1  0.5668240000000  0.4428000000000  0.4828290000000 1.0
C      1  0.4257530000000  0.4515250000000  0.4597160000000 1.0
C      1  0.5445600000000  0.5485410000000  0.4787180000000 1.0
C      1  0.5221230000000  0.4690040000000  0.5030870000000 1.0
C      1  0.5386480000000  0.5211360000000  0.5825970000000 1.0
C      1  0.5342700000000  0.4325020000000  0.4427020000000 1.0
C      1  0.5274090000000  0.5598960000000  0.5472670000000 1.0
C      1  0.5364220000000  0.5537190000000  0.4508250000000 1.0
C      1  0.5686130000000  0.4699640000000  0.5290560000000 1.0
C      1  0.5426330000000  0.5304020000000  0.4341270000000 1.0
C      1  0.5733270000000  0.5549250000000  0.5351000000000 1.0
C      1  0.5694910000000  0.5367390000000  0.5562010000000 1.0
C      1  0.5178610000000  0.4189520000000  0.5277850000000 1.0
C      1  0.5221220000000  0.5044950000000  0.4690350000000 1.0
C      1  0.4965970000000  0.4566740000000  0.5788740000000 1.0
C      1  0.5134800000000  0.4670210000000  0.5319300000000 1.0
C      1  0.5568820000000  0.4983770000000  0.5797250000000 1.0
C      1  0.4320280000000  0.5382950000000  0.4642500000000 1.0
C      1  0.5253980000000  0.5119270000000  0.5208610000000 1.0
C      1  0.4777580000000  0.5548370000000  0.5669760000000 1.0
C      1  0.5212380000000  0.4936170000000  0.4163710000000 1.0
C      1  0.4950220000000  0.5395650000000  0.4818810000000 1.0
C      1  0.4222500000000  0.5335280000000  0.5317560000000 1.0
C      1  0.4380590000000  0.4846240000000  0.5302410000000 1.0
C      1  0.5705050000000  0.4718380000000  0.4813420000000 1.0
C      1  0.5579600000000  0.4445030000000  0.5333420000000 1.0
C      1  0.4167020000000  0.5379180000000  0.4872990000000 1.0
C      1  0.4719990000000  0.4719380000000  0.4584150000000 1.0
C      1  0.4899420000000  0.5057830000000  0.5880640000000 1.0
C      1  0.5803870000000  0.5164390000000  0.4755800000000 1.0
C      1  0.4884740000000  0.4273490000000  0.4439910000000 1.0
C      1  0.4660940000000  0.5267810000000  0.4253480000000 1.0
C      1  0.5579960000000  0.5025110000000  0.4410800000000 1.0
C      1  0.4218420000000  0.5528210000000  0.5105010000000 1.0
C      1  0.5854410000000  0.4916890000000  0.5388110000000 1.0
C      1  0.5757680000000  0.5081130000000  0.5603480000000 1.0
C      1  0.5187570000000  0.5527950000000  0.4957310000000 1.0
C      1  0.4723090000000  0.5273900000000  0.5802690000000 1.0
C      1  0.5130960000000  0.4959790000000  0.5427760000000 1.0
C      1  0.5211580000000  0.4597320000000  0.4407340000000 1.0
C      1  0.5166400000000  0.5028060000000  0.5753640000000 1.0
C      1  0.5650300000000  0.5647360000000  0.4927690000000 1.0
C      1  0.5593440000000  0.4303110000000  0.5089320000000 1.0
C      1  0.4559500000000  0.5781140000000  0.5323530000000 1.0
C      1  0.5354670000000  0.4148200000000  0.5062870000000 1.0
C      1  0.4788910000000  0.4991790000000  0.4967480000000 1.0
C      1  0.5208510000000  0.5215040000000  0.4168990000000 1.0
C      1  0.4529960000000  0.5620090000000  0.5556290000000 1.0
C      1  0.4807900000000  0.4609960000000  0.4114060000000 1.0
C      1  0.5242180000000  0.4533370000000  0.5729030000000 1.0
C      1  0.4971870000000  0.5189480000000  0.4601170000000 1.0
C      1  0.4167070000000  0.4957070000000  0.4714280000000 1.0
C      1  0.4435910000000  0.4439370000000  0.4403880000000 1.0
C      1  0.5292310000000  0.4429730000000  0.5444130000000 1.0
C      1  0.4608350000000  0.4221500000000  0.4515950000000 1.0
C      1  0.4301220000000  0.4592620000000  0.5146170000000 1.0
C      1  0.4553500000000  0.5782690000000  0.4847680000000 1.0
C      1  0.5446150000000  0.5441890000000  0.5675060000000 1.0
C      1  0.5134570000000  0.4149580000000  0.4529260000000 1.0
C      1  0.4536260000000  0.4422000000000  0.4973510000000 1.0
C      1  0.4852620000000  0.5056250000000  0.5390010000000 1.0
C      1  0.4769880000000  0.4011180000000  0.4974380000000 1.0
C      1  0.5497230000000  0.5078280000000  0.5080710000000 1.0
C      1  0.4870260000000  0.4349770000000  0.4158230000000 1.0
C      1  0.4839790000000  0.4605930000000  0.5308680000000 1.0
C      1  0.5498090000000  0.5199980000000  0.4814810000000 1.0
C      1  0.4959070000000  0.5301650000000  0.4288390000000 1.0
C      1  0.4466690000000  0.5175730000000  0.5698220000000 1.0
C      1  0.4403710000000  0.5739580000000  0.5088260000000 1.0
C      1  0.5974920000000  0.5061790000000  0.5186090000000 1.0
C      1  0.4414590000000  0.4899810000000  0.5613090000000 1.0
C      1  0.5085400000000  0.4686770000000  0.4144010000000 1.0
C      1  0.5055920000000  0.5874710000000  0.4764100000000 1.0
C      1  0.4830080000000  0.5827920000000  0.5255710000000 1.0
C      1  0.4065130000000  0.4611920000000  0.5013130000000 1.0
C      1  0.4599990000000  0.4157310000000  0.4808200000000 1.0
C      1  0.4985160000000  0.5700360000000  0.5502330000000 1.0
C      1  0.4721800000000  0.4996790000000  0.4678890000000 1.0
C      1  0.5237860000000  0.4213630000000  0.4799740000000 1.0
C      1  0.5771390000000  0.4931340000000  0.4615670000000 1.0
C      1  0.4638460000000  0.5532240000000  0.4383410000000 1.0
C      1  0.4089090000000  0.4679560000000  0.4736980000000 1.0
C      1  0.5168150000000  0.5401990000000  0.5231340000000 1.0
C      1  0.5507320000000  0.5728960000000  0.5336590000000 1.0
C      1  0.4697260000000  0.4864110000000  0.5227980000000 1.0
C      1  0.5236890000000  0.5834640000000  0.4968010000000 1.0
C      1  0.4204770000000  0.5070320000000  0.5209960000000 1.0
C      1  0.5109800000000  0.4950730000000  0.4957900000000 1.0
C      1  0.4757000000000  0.4528870000000  0.5589490000000 1.0
C      1  0.5331450000000  0.4872160000000  0.4435230000000 1.0
C      1  0.5496900000000  0.5839580000000  0.5076300000000 1.0
C      1  0.4904650000000  0.4139040000000  0.5176340000000 1.0
C      1  0.5936190000000  0.5247720000000  0.4993570000000 1.0
C      1  0.5491640000000  0.4301100000000  0.4660160000000 1.0
C      1  0.4121100000000  0.5109900000000  0.4942250000000 1.0
C      1  0.4497040000000  0.4601380000000  0.4751310000000 1.0
C      1  0.4819360000000  0.4415340000000  0.5086810000000 1.0
C      1  0.5831180000000  0.5500450000000  0.5085270000000 1.0
C      1  0.4771290000000  0.5285140000000  0.5013200000000 1.0
C      1  0.5541730000000  0.4787840000000  0.5044180000000 1.0
C      1  0.4923510000000  0.5588710000000  0.4350050000000 1.0
C      1  0.4391950000000  0.5090970000000  0.4571970000000 1.0
C      1  0.4355080000000  0.5392440000000  0.5556540000000 1.0
C      1  0.4968000000000  0.4551520000000  0.4596790000000 1.0
C      1  0.4814820000000  0.5869680000000  0.4935380000000 1.0
C      1  0.4599870000000  0.4717420000000  0.4299840000000 1.0
C      1  0.4804570000000  0.4789940000000  0.5898160000000 1.0
C      1  0.4484110000000  0.5612190000000  0.4608980000000 1.0
C      1  0.5350280000000  0.4786890000000  0.5810330000000 1.0
C      1  0.5062490000000  0.4478730000000  0.4872930000000 1.0
C      1  0.4583340000000  0.4717760000000  0.5728310000000 1.0
END
