TITL C-216152-3392-5 237.908624020281 125000 -1020.20907958672 0 0 145 (C1) n - 1
REM
REM in /rds/project/t2_vol4/rds-t2-cs072/BORA/CARBON/from-Arr/AIRSS/Generating-Clusters/GAP-ML-2020/Only-C1/SD-CG/HFTN-CG
REM
REM
REM
REM
REM
REM ./C.cell (11c1c37f851c82e70ff6c80c92926a4b)
REM AIRSS Version 0.9.1 bugfix July 2018 build 013d7b7c2542+ Fri, 06 Jul 2018 19:26:36 +0100
REM compiler GCC version 9.3.0
REM options -cpp -mtune=generic -march=x86-64 -g -O0
REM seed -1331338772 -621718845 -1686784651 1331934500 512090581 1104107988 293710706 2110722691 602499851 1435775084 -1295300633 -1978255605 1792471116 -1619241582 -744075305 -274837584 -432427531 2110117274 -1860749582 -1486014953 1241553157 414749124 -739169104 -1765996256 850116491 193408926 566767151 -1851340004 -537989436 632352068 -1358185986 -1369660715 1512330225
REM
CELL 1.54180   50.00000   50.00000   50.00000   90.00000   90.00000   90.00000
LATT -1
SFAC C  
C      1  0.5394340000000  0.4697610000000  0.5576970000000 1.0
C      1  0.5940280000000  0.5601550000000  0.5448170000000 1.0
C      1  0.5144590000000  0.4452780000000  0.4110310000000 1.0
C      1  0.5366140000000  0.5070040000000  0.5190810000000 1.0
C      1  0.4387740000000  0.5343230000000  0.4980530000000 1.0
C      1  0.4688930000000  0.5042640000000  0.5105900000000 1.0
C      1  0.4634030000000  0.4827440000000  0.5878440000000 1.0
C      1  0.5324700000000  0.5616080000000  0.4292080000000 1.0
C      1  0.4719110000000  0.4722020000000  0.5404570000000 1.0
C      1  0.4798000000000  0.4775940000000  0.3978190000000 1.0
C      1  0.4805350000000  0.5483180000000  0.4192510000000 1.0
C      1  0.4715990000000  0.5345220000000  0.5912760000000 1.0
C      1  0.5299550000000  0.4208310000000  0.4950140000000 1.0
C      1  0.4341440000000  0.4550020000000  0.5651230000000 1.0
C      1  0.4379580000000  0.5427850000000  0.5595560000000 1.0
C      1  0.4891530000000  0.5174580000000  0.6049170000000 1.0
C      1  0.4377220000000  0.5796290000000  0.4974540000000 1.0
C      1  0.5102350000000  0.4502730000000  0.4604730000000 1.0
C      1  0.5397390000000  0.5819530000000  0.4456250000000 1.0
C      1  0.4204200000000  0.4642220000000  0.5079350000000 1.0
C      1  0.5117270000000  0.4990670000000  0.6038940000000 1.0
C      1  0.5643880000000  0.4595010000000  0.5449260000000 1.0
C      1  0.4340970000000  0.4334090000000  0.5449200000000 1.0
C      1  0.5172860000000  0.4489860000000  0.5553560000000 1.0
C      1  0.4611500000000  0.5611970000000  0.5538670000000 1.0
C      1  0.5511540000000  0.5401630000000  0.4178000000000 1.0
C      1  0.5004950000000  0.4072590000000  0.5438210000000 1.0
C      1  0.3978200000000  0.5328840000000  0.4958430000000 1.0
C      1  0.4899980000000  0.4882540000000  0.4955860000000 1.0
C      1  0.4394860000000  0.4305770000000  0.4935360000000 1.0
C      1  0.5339350000000  0.4724550000000  0.4925130000000 1.0
C      1  0.4278490000000  0.5594950000000  0.5141820000000 1.0
C      1  0.5892940000000  0.5060890000000  0.4697750000000 1.0
C      1  0.4688630000000  0.4574680000000  0.4791010000000 1.0
C      1  0.4134910000000  0.4912580000000  0.5161680000000 1.0
C      1  0.5607740000000  0.5105610000000  0.5018100000000 1.0
C      1  0.5542960000000  0.5747310000000  0.4918310000000 1.0
C      1  0.4393630000000  0.4606330000000  0.4843090000000 1.0
C      1  0.4391000000000  0.5043680000000  0.5027280000000 1.0
C      1  0.5048650000000  0.5367620000000  0.5371490000000 1.0
C      1  0.5348330000000  0.4318750000000  0.4479860000000 1.0
C      1  0.5726610000000  0.4999760000000  0.4272800000000 1.0
C      1  0.4606780000000  0.5038970000000  0.4595680000000 1.0
C      1  0.4486010000000  0.5756730000000  0.4496520000000 1.0
C      1  0.4369450000000  0.4916410000000  0.4767460000000 1.0
C      1  0.4902140000000  0.4075670000000  0.4401980000000 1.0
C      1  0.4644790000000  0.4023750000000  0.5175980000000 1.0
C      1  0.5072410000000  0.5466190000000  0.4355780000000 1.0
C      1  0.5039410000000  0.5805150000000  0.5419840000000 1.0
C      1  0.4880600000000  0.5003400000000  0.5811410000000 1.0
C      1  0.4912090000000  0.4581650000000  0.5030410000000 1.0
C      1  0.4241860000000  0.4832540000000  0.5647890000000 1.0
C      1  0.5237820000000  0.5144460000000  0.4711490000000 1.0
C      1  0.4869950000000  0.5234140000000  0.4073000000000 1.0
C      1  0.5087010000000  0.5855780000000  0.4833300000000 1.0
C      1  0.4179950000000  0.5428230000000  0.4734390000000 1.0
C      1  0.5129880000000  0.5186490000000  0.4218760000000 1.0
C      1  0.5413660000000  0.4759450000000  0.5877970000000 1.0
C      1  0.4658870000000  0.4433490000000  0.4296670000000 1.0
C      1  0.4505640000000  0.5048650000000  0.4283780000000 1.0
C      1  0.4409620000000  0.4592170000000  0.4319080000000 1.0
C      1  0.4075780000000  0.4942200000000  0.4711410000000 1.0
C      1  0.5734660000000  0.4587360000000  0.4522030000000 1.0
C      1  0.4133530000000  0.5006390000000  0.5443930000000 1.0
C      1  0.5460100000000  0.5217070000000  0.5705290000000 1.0
C      1  0.4552320000000  0.4140900000000  0.5429900000000 1.0
C      1  0.5083920000000  0.5568520000000  0.4902600000000 1.0
C      1  0.4294130000000  0.4834800000000  0.4302030000000 1.0
C      1  0.4087980000000  0.4996560000000  0.4446930000000 1.0
C      1  0.5364090000000  0.5495670000000  0.4977430000000 1.0
C      1  0.4663020000000  0.5947160000000  0.4588510000000 1.0
C      1  0.4879130000000  0.5495240000000  0.5139560000000 1.0
C      1  0.4544480000000  0.5553150000000  0.4286520000000 1.0
C      1  0.4304910000000  0.5700720000000  0.4710990000000 1.0
C      1  0.5510250000000  0.4908410000000  0.4101430000000 1.0
C      1  0.5305890000000  0.4989520000000  0.5479000000000 1.0
C      1  0.5928510000000  0.5450930000000  0.5682690000000 1.0
C      1  0.4582710000000  0.4101130000000  0.4909770000000 1.0
C      1  0.5192360000000  0.4965660000000  0.4955960000000 1.0
C      1  0.3965380000000  0.5049860000000  0.4948200000000 1.0
C      1  0.4698510000000  0.5011020000000  0.4060600000000 1.0
C      1  0.4163090000000  0.5281460000000  0.4474640000000 1.0
C      1  0.4815900000000  0.4387610000000  0.4598700000000 1.0
C      1  0.4405690000000  0.4981950000000  0.5829070000000 1.0
C      1  0.5386990000000  0.5039890000000  0.5938360000000 1.0
C      1  0.5715700000000  0.5284630000000  0.4333450000000 1.0
C      1  0.4801310000000  0.5556620000000  0.5740280000000 1.0
C      1  0.4576120000000  0.4552330000000  0.5821460000000 1.0
C      1  0.5751380000000  0.5325470000000  0.4628970000000 1.0
C      1  0.6038920000000  0.5456040000000  0.5212330000000 1.0
C      1  0.5065060000000  0.5568900000000  0.5607130000000 1.0
C      1  0.5533770000000  0.4495870000000  0.4339210000000 1.0
C      1  0.5787690000000  0.4489910000000  0.5021430000000 1.0
C      1  0.5906320000000  0.4734850000000  0.5111570000000 1.0
C      1  0.5709560000000  0.4416750000000  0.4755790000000 1.0
C      1  0.5476870000000  0.5733690000000  0.5574820000000 1.0
C      1  0.4802010000000  0.4837370000000  0.4674740000000 1.0
C      1  0.5168230000000  0.4504990000000  0.4897790000000 1.0
C      1  0.4688590000000  0.5318440000000  0.4983670000000 1.0
C      1  0.5765900000000  0.5225190000000  0.5652230000000 1.0
C      1  0.4262110000000  0.4384000000000  0.5179520000000 1.0
C      1  0.4832170000000  0.4108770000000  0.4729010000000 1.0
C      1  0.6004110000000  0.5172280000000  0.5223270000000 1.0
C      1  0.5898600000000  0.5048370000000  0.5457280000000 1.0
C      1  0.5713830000000  0.5777400000000  0.5415530000000 1.0
C      1  0.6011090000000  0.5559240000000  0.4959870000000 1.0
C      1  0.5897740000000  0.5006830000000  0.4992050000000 1.0
C      1  0.4163710000000  0.5298520000000  0.5443170000000 1.0
C      1  0.5193240000000  0.4996550000000  0.4467940000000 1.0
C      1  0.5046530000000  0.4485840000000  0.5819950000000 1.0
C      1  0.4060470000000  0.5439260000000  0.5212690000000 1.0
C      1  0.5306970000000  0.5871970000000  0.5369430000000 1.0
C      1  0.4901990000000  0.4547730000000  0.5316240000000 1.0
C      1  0.5829650000000  0.4861900000000  0.4502100000000 1.0
C      1  0.5419040000000  0.4219830000000  0.5220650000000 1.0
C      1  0.5238850000000  0.4225570000000  0.5438660000000 1.0
C      1  0.5375940000000  0.5171250000000  0.4067700000000 1.0
C      1  0.5007810000000  0.5085340000000  0.5507820000000 1.0
C      1  0.5302300000000  0.5347100000000  0.5227420000000 1.0
C      1  0.4685780000000  0.4131490000000  0.4240720000000 1.0
C      1  0.4765590000000  0.4987430000000  0.5377530000000 1.0
C      1  0.5161640000000  0.4686440000000  0.5992970000000 1.0
C      1  0.5350850000000  0.5513000000000  0.5695540000000 1.0
C      1  0.4766420000000  0.5740910000000  0.5286720000000 1.0
C      1  0.5497540000000  0.5275240000000  0.4806490000000 1.0
C      1  0.4789490000000  0.4365090000000  0.5799390000000 1.0
C      1  0.5026620000000  0.5372290000000  0.4661530000000 1.0
C      1  0.5634960000000  0.4395790000000  0.5242050000000 1.0
C      1  0.5848650000000  0.4776640000000  0.5384230000000 1.0
C      1  0.4871020000000  0.4536880000000  0.4072300000000 1.0
C      1  0.5548300000000  0.5871810000000  0.5191170000000 1.0
C      1  0.5044290000000  0.4049500000000  0.4930570000000 1.0
C      1  0.4641540000000  0.5885060000000  0.5052080000000 1.0
C      1  0.5810270000000  0.5586760000000  0.4793270000000 1.0
C      1  0.5354900000000  0.5883400000000  0.4715900000000 1.0
C      1  0.4924780000000  0.3980870000000  0.5182150000000 1.0
C      1  0.5033950000000  0.4777780000000  0.4520190000000 1.0
C      1  0.4813270000000  0.5951830000000  0.4819610000000 1.0
C      1  0.4378130000000  0.5322630000000  0.4297950000000 1.0
C      1  0.4459880000000  0.5262920000000  0.5816460000000 1.0
C      1  0.5491780000000  0.4236340000000  0.4722550000000 1.0
C      1  0.4780090000000  0.4162270000000  0.5599170000000 1.0
C      1  0.5400530000000  0.4629390000000  0.4127900000000 1.0
C      1  0.5155170000000  0.4217260000000  0.4288000000000 1.0
C      1  0.4747980000000  0.5286740000000  0.4705460000000 1.0
END
