TITL C-215716-9174-6 -10.7482460502905 125000 -1081.24888010008 0 0 154 (C1) n - 1
REM
REM in /rds/project/t2_vol4/rds-t2-cs072/BORA/CARBON/from-Arr/AIRSS/Generating-Clusters/GAP-ML-2020/Only-C1/SD-CG/HFTN-CG
REM
REM
REM
REM
REM
REM ./C.cell (11c1c37f851c82e70ff6c80c92926a4b)
REM AIRSS Version 0.9.1 bugfix July 2018 build 013d7b7c2542+ Fri, 06 Jul 2018 19:26:36 +0100
REM compiler GCC version 9.3.0
REM options -cpp -mtune=generic -march=x86-64 -g -O0
REM seed 274384186 -666942190 -1793774250 1395206520 -96123909 2127367278 747736328 -802752348 -1129475228 -1602642403 1320299169 657725451 1160332995 300207393 851099077 169449271 -83339805 -1000753730 -794847995 2071994872 -966097519 1382852479 -462568901 679272531 -81291911 -1137298822 -497066202 -18244707 -1528305251 1406581819 -1368012849 515557847 1045812968
REM
CELL 1.54180   50.00000   50.00000   50.00000   90.00000   90.00000   90.00000
LATT -1
SFAC C  
C      1  0.4863730000000  0.5274040000000  0.5908090000000 1.0
C      1  0.4887310000000  0.4525890000000  0.4192160000000 1.0
C      1  0.5865040000000  0.4813680000000  0.5195630000000 1.0
C      1  0.4098030000000  0.4932860000000  0.5684610000000 1.0
C      1  0.5251020000000  0.5683500000000  0.4192280000000 1.0
C      1  0.5147950000000  0.5657710000000  0.5763530000000 1.0
C      1  0.3956000000000  0.4923020000000  0.5428660000000 1.0
C      1  0.5275140000000  0.6021680000000  0.4913760000000 1.0
C      1  0.5072210000000  0.5299860000000  0.5390390000000 1.0
C      1  0.4336140000000  0.5761040000000  0.5023460000000 1.0
C      1  0.4459570000000  0.5136090000000  0.4098630000000 1.0
C      1  0.5440840000000  0.4248090000000  0.5748720000000 1.0
C      1  0.5517370000000  0.5520440000000  0.5557250000000 1.0
C      1  0.5800260000000  0.4459460000000  0.5546960000000 1.0
C      1  0.5672090000000  0.5451240000000  0.4323800000000 1.0
C      1  0.5461690000000  0.4684080000000  0.4350430000000 1.0
C      1  0.4794000000000  0.5461590000000  0.4010730000000 1.0
C      1  0.5460650000000  0.5166210000000  0.5169930000000 1.0
C      1  0.4123440000000  0.4487110000000  0.4742050000000 1.0
C      1  0.5665330000000  0.5123070000000  0.4711130000000 1.0
C      1  0.4899270000000  0.5900890000000  0.4502010000000 1.0
C      1  0.4088400000000  0.5366220000000  0.4887670000000 1.0
C      1  0.5454650000000  0.4155250000000  0.4756660000000 1.0
C      1  0.4069430000000  0.4461310000000  0.5250550000000 1.0
C      1  0.5405910000000  0.4280640000000  0.4264230000000 1.0
C      1  0.5166740000000  0.4553740000000  0.4708290000000 1.0
C      1  0.5355300000000  0.5263430000000  0.5478120000000 1.0
C      1  0.4994420000000  0.5067700000000  0.4481940000000 1.0
C      1  0.5380820000000  0.5054270000000  0.4025080000000 1.0
C      1  0.4423680000000  0.5304020000000  0.5655950000000 1.0
C      1  0.4554580000000  0.4905980000000  0.5881420000000 1.0
C      1  0.5898480000000  0.5536440000000  0.4453870000000 1.0
C      1  0.4299610000000  0.4780000000000  0.5796000000000 1.0
C      1  0.4151000000000  0.5634680000000  0.4840330000000 1.0
C      1  0.4331080000000  0.4492100000000  0.4551130000000 1.0
C      1  0.4520380000000  0.5896760000000  0.4831820000000 1.0
C      1  0.5519120000000  0.5616080000000  0.4165480000000 1.0
C      1  0.5452380000000  0.4627800000000  0.4663570000000 1.0
C      1  0.5009240000000  0.4230720000000  0.5664880000000 1.0
C      1  0.5352720000000  0.5851120000000  0.4703580000000 1.0
C      1  0.5225830000000  0.4816450000000  0.5543890000000 1.0
C      1  0.4698500000000  0.5194620000000  0.3951240000000 1.0
C      1  0.5234770000000  0.5011660000000  0.4794850000000 1.0
C      1  0.4470490000000  0.5110400000000  0.5190010000000 1.0
C      1  0.4201250000000  0.5418800000000  0.4436710000000 1.0
C      1  0.5914090000000  0.4487510000000  0.4762680000000 1.0
C      1  0.4771970000000  0.4750300000000  0.4815670000000 1.0
C      1  0.5806740000000  0.4951720000000  0.5636350000000 1.0
C      1  0.5124720000000  0.4413590000000  0.4969410000000 1.0
C      1  0.5636400000000  0.4443670000000  0.5785420000000 1.0
C      1  0.5959450000000  0.5094210000000  0.4672790000000 1.0
C      1  0.5575780000000  0.4929340000000  0.5810570000000 1.0
C      1  0.5741940000000  0.4285000000000  0.5338650000000 1.0
C      1  0.4862910000000  0.4233860000000  0.5028990000000 1.0
C      1  0.5505400000000  0.4880590000000  0.4815130000000 1.0
C      1  0.3912310000000  0.4709440000000  0.5239160000000 1.0
C      1  0.5512340000000  0.4959860000000  0.4258310000000 1.0
C      1  0.5228700000000  0.5274920000000  0.3942210000000 1.0
C      1  0.5522750000000  0.4152190000000  0.5253770000000 1.0
C      1  0.4436670000000  0.5840730000000  0.4565270000000 1.0
C      1  0.5071870000000  0.5066160000000  0.5910800000000 1.0
C      1  0.5369010000000  0.4724380000000  0.5302720000000 1.0
C      1  0.5559610000000  0.4881480000000  0.5127900000000 1.0
C      1  0.4999960000000  0.6058340000000  0.5003170000000 1.0
C      1  0.4898740000000  0.5585300000000  0.4798060000000 1.0
C      1  0.4902860000000  0.5545000000000  0.5796310000000 1.0
C      1  0.5317030000000  0.5052520000000  0.5708260000000 1.0
C      1  0.4834820000000  0.5483250000000  0.5051030000000 1.0
C      1  0.5087230000000  0.4351340000000  0.4507920000000 1.0
C      1  0.5065330000000  0.4014650000000  0.5104190000000 1.0
C      1  0.5231450000000  0.5229240000000  0.4562980000000 1.0
C      1  0.4715690000000  0.5679060000000  0.5596250000000 1.0
C      1  0.4675190000000  0.4901890000000  0.5592560000000 1.0
C      1  0.5398770000000  0.5572820000000  0.4860890000000 1.0
C      1  0.6001180000000  0.5088150000000  0.5241830000000 1.0
C      1  0.4448110000000  0.4840530000000  0.5065660000000 1.0
C      1  0.5776930000000  0.5441260000000  0.5548170000000 1.0
C      1  0.5171520000000  0.5787320000000  0.4468870000000 1.0
C      1  0.4209490000000  0.5313370000000  0.5168170000000 1.0
C      1  0.4349080000000  0.4788830000000  0.4470960000000 1.0
C      1  0.4737760000000  0.4699270000000  0.5960260000000 1.0
C      1  0.4660100000000  0.5751930000000  0.4400540000000 1.0
C      1  0.5407650000000  0.4100550000000  0.5508300000000 1.0
C      1  0.4332650000000  0.5588610000000  0.5260080000000 1.0
C      1  0.6096670000000  0.5556750000000  0.4625900000000 1.0
C      1  0.5152640000000  0.4615020000000  0.5164180000000 1.0
C      1  0.5134270000000  0.5010290000000  0.3902910000000 1.0
C      1  0.4464590000000  0.5568940000000  0.5518750000000 1.0
C      1  0.4874040000000  0.5790160000000  0.5388970000000 1.0
C      1  0.3848240000000  0.4777980000000  0.4982520000000 1.0
C      1  0.4095980000000  0.4934310000000  0.4573490000000 1.0
C      1  0.5023130000000  0.4818950000000  0.4691770000000 1.0
C      1  0.4921660000000  0.4790110000000  0.5228310000000 1.0
C      1  0.4387530000000  0.4207120000000  0.5015790000000 1.0
C      1  0.4966200000000  0.5090530000000  0.5189390000000 1.0
C      1  0.4145400000000  0.4346340000000  0.4989580000000 1.0
C      1  0.4572800000000  0.4322540000000  0.4577390000000 1.0
C      1  0.4268020000000  0.4390580000000  0.5451430000000 1.0
C      1  0.4588380000000  0.5585270000000  0.4164720000000 1.0
C      1  0.4641820000000  0.5124040000000  0.4775930000000 1.0
C      1  0.4823480000000  0.5917660000000  0.4806860000000 1.0
C      1  0.4215270000000  0.5670370000000  0.4569240000000 1.0
C      1  0.5279600000000  0.5984940000000  0.5412250000000 1.0
C      1  0.4516030000000  0.4872460000000  0.4766240000000 1.0
C      1  0.4456650000000  0.4251300000000  0.5290700000000 1.0
C      1  0.4721110000000  0.5212170000000  0.5047770000000 1.0
C      1  0.5643100000000  0.4444870000000  0.4297960000000 1.0
C      1  0.5172920000000  0.5509670000000  0.4672500000000 1.0
C      1  0.4857040000000  0.4957370000000  0.3933830000000 1.0
C      1  0.5197720000000  0.4498920000000  0.4249130000000 1.0
C      1  0.4919630000000  0.4747830000000  0.5515570000000 1.0
C      1  0.4830260000000  0.4432510000000  0.5553330000000 1.0
C      1  0.4025360000000  0.5202230000000  0.5383560000000 1.0
C      1  0.5890810000000  0.5195460000000  0.5490320000000 1.0
C      1  0.5341300000000  0.5755040000000  0.5603550000000 1.0
C      1  0.6114370000000  0.4913120000000  0.4838610000000 1.0
C      1  0.5081470000000  0.5505160000000  0.4029290000000 1.0
C      1  0.5324130000000  0.4157610000000  0.5016370000000 1.0
C      1  0.4805470000000  0.4357650000000  0.4410200000000 1.0
C      1  0.5032760000000  0.5560040000000  0.5253460000000 1.0
C      1  0.5532020000000  0.5185380000000  0.4450790000000 1.0
C      1  0.5230540000000  0.4601430000000  0.5963650000000 1.0
C      1  0.4096060000000  0.5221320000000  0.4626810000000 1.0
C      1  0.5630420000000  0.4395380000000  0.4749860000000 1.0
C      1  0.5512330000000  0.4670470000000  0.5911510000000 1.0
C      1  0.5831890000000  0.4399320000000  0.4513130000000 1.0
C      1  0.4727890000000  0.5487250000000  0.4592480000000 1.0
C      1  0.5386310000000  0.5926900000000  0.5162520000000 1.0
C      1  0.4717090000000  0.4371400000000  0.5268080000000 1.0
C      1  0.5570100000000  0.5333330000000  0.4936950000000 1.0
C      1  0.4481720000000  0.4864000000000  0.4206860000000 1.0
C      1  0.6100140000000  0.5332320000000  0.4787860000000 1.0
C      1  0.4692070000000  0.4673490000000  0.5103640000000 1.0
C      1  0.6006170000000  0.4683190000000  0.4947120000000 1.0
C      1  0.5013090000000  0.4788630000000  0.5993640000000 1.0
C      1  0.5131190000000  0.4026420000000  0.5498840000000 1.0
C      1  0.4732020000000  0.4749310000000  0.4090550000000 1.0
C      1  0.4374520000000  0.5388240000000  0.4211940000000 1.0
C      1  0.4592610000000  0.5196280000000  0.5899810000000 1.0
C      1  0.4609060000000  0.4210330000000  0.4841450000000 1.0
C      1  0.4546190000000  0.5104830000000  0.5460330000000 1.0
C      1  0.4145270000000  0.5221210000000  0.5647910000000 1.0
C      1  0.5196390000000  0.4336370000000  0.5850040000000 1.0
C      1  0.4638390000000  0.4479580000000  0.5778530000000 1.0
C      1  0.4764860000000  0.5216790000000  0.4548960000000 1.0
C      1  0.5309600000000  0.4158230000000  0.4505330000000 1.0
C      1  0.5318480000000  0.5651690000000  0.5126730000000 1.0
C      1  0.4370490000000  0.4518980000000  0.5694500000000 1.0
C      1  0.6156080000000  0.5157230000000  0.5016370000000 1.0
C      1  0.5202840000000  0.5140430000000  0.5039360000000 1.0
C      1  0.3978350000000  0.4740320000000  0.4748900000000 1.0
C      1  0.5876180000000  0.4719280000000  0.5479570000000 1.0
C      1  0.5007390000000  0.6024640000000  0.5307520000000 1.0
C      1  0.5052290000000  0.3836770000000  0.5314940000000 1.0
END
