TITL C-21923-1654-6 -29.6349841345481 125000 -432.399531065226 0 0 64 (C1) n - 1
REM
REM in /rds/project/t2_vol4/rds-t2-cs072/BORA/CARBON/from-Arr/AIRSS/Generating-Clusters/GAP-ML-2020/Only-C1/SD-CG/HFTN-CG
REM
REM
REM
REM
REM
REM ./C.cell (11c1c37f851c82e70ff6c80c92926a4b)
REM AIRSS Version 0.9.1 bugfix July 2018 build 013d7b7c2542+ Fri, 06 Jul 2018 19:26:36 +0100
REM compiler GCC version 9.3.0
REM options -cpp -mtune=generic -march=x86-64 -g -O0
REM seed 1921153267 -2100967998 279580224 981804452 -1116874751 -2142382425 487329957 766266610 -1835910193 -1980151251 2002728587 156097965 -1691636670 -1866250103 -212270257 51292665 477327717 -267211454 -608661622 339297144 -1850990692 1720321889 -1819168720 -1388307466 378017269 786414153 456009327 776555013 -203338387 1147486717 327851152 -466422580 569398942
REM
CELL 1.54180   50.00000   50.00000   50.00000   90.00000   90.00000   90.00000
LATT -1
SFAC C  
C      1  0.4840490000000  0.4467900000000  0.5412410000000 1.0
C      1  0.5072530000000  0.4906810000000  0.5652450000000 1.0
C      1  0.5455530000000  0.5463930000000  0.4670880000000 1.0
C      1  0.4681770000000  0.5142850000000  0.5617820000000 1.0
C      1  0.4899900000000  0.5325730000000  0.5659430000000 1.0
C      1  0.4570280000000  0.5481820000000  0.5039510000000 1.0
C      1  0.4595190000000  0.4844520000000  0.4870920000000 1.0
C      1  0.4902250000000  0.4383530000000  0.4947740000000 1.0
C      1  0.5114110000000  0.4836200000000  0.5353230000000 1.0
C      1  0.4356960000000  0.5051530000000  0.4958510000000 1.0
C      1  0.5071260000000  0.4875220000000  0.4772530000000 1.0
C      1  0.4903530000000  0.5098490000000  0.4392610000000 1.0
C      1  0.5208220000000  0.4695270000000  0.4360170000000 1.0
C      1  0.5358620000000  0.4534470000000  0.4916840000000 1.0
C      1  0.4425190000000  0.4965890000000  0.4464070000000 1.0
C      1  0.5087970000000  0.5150790000000  0.4622310000000 1.0
C      1  0.5520810000000  0.4948650000000  0.4684930000000 1.0
C      1  0.4694150000000  0.4630430000000  0.5598410000000 1.0
C      1  0.5580120000000  0.4727570000000  0.5456760000000 1.0
C      1  0.5590120000000  0.4998740000000  0.5311630000000 1.0
C      1  0.4318560000000  0.5147850000000  0.4683820000000 1.0
C      1  0.5001080000000  0.5258150000000  0.4927250000000 1.0
C      1  0.4433500000000  0.5263480000000  0.5155810000000 1.0
C      1  0.4461180000000  0.5146350000000  0.5421160000000 1.0
C      1  0.5318350000000  0.4964460000000  0.5177730000000 1.0
C      1  0.5044740000000  0.5786460000000  0.4617710000000 1.0
C      1  0.5130150000000  0.4524740000000  0.5348720000000 1.0
C      1  0.4502070000000  0.4613170000000  0.5053930000000 1.0
C      1  0.5378440000000  0.5196620000000  0.4598610000000 1.0
C      1  0.5067230000000  0.5520680000000  0.5507750000000 1.0
C      1  0.5312070000000  0.5346790000000  0.5570110000000 1.0
C      1  0.5268860000000  0.5655140000000  0.4607340000000 1.0
C      1  0.5463060000000  0.5413170000000  0.5145800000000 1.0
C      1  0.5414290000000  0.4534290000000  0.5472120000000 1.0
C      1  0.5784990000000  0.5013510000000  0.4810940000000 1.0
C      1  0.4840010000000  0.5687630000000  0.4776650000000 1.0
C      1  0.5331550000000  0.4827420000000  0.4917670000000 1.0
C      1  0.5396490000000  0.4468090000000  0.4647330000000 1.0
C      1  0.4689580000000  0.4554240000000  0.4498820000000 1.0
C      1  0.4513570000000  0.4743550000000  0.4608250000000 1.0
C      1  0.4893010000000  0.4414440000000  0.4657060000000 1.0
C      1  0.4988040000000  0.5656750000000  0.5294360000000 1.0
C      1  0.4303890000000  0.4805600000000  0.5127620000000 1.0
C      1  0.5145070000000  0.4443820000000  0.4525500000000 1.0
C      1  0.5528070000000  0.5296390000000  0.5408060000000 1.0
C      1  0.4346710000000  0.4880070000000  0.5399080000000 1.0
C      1  0.5236120000000  0.5228600000000  0.5094030000000 1.0
C      1  0.5142140000000  0.5173890000000  0.5718780000000 1.0
C      1  0.4795440000000  0.4877570000000  0.5698580000000 1.0
C      1  0.4970780000000  0.4838430000000  0.4281860000000 1.0
C      1  0.5830110000000  0.5263780000000  0.4934760000000 1.0
C      1  0.5793180000000  0.5034550000000  0.5094360000000 1.0
C      1  0.4576760000000  0.5555550000000  0.4760210000000 1.0
C      1  0.4759220000000  0.4666730000000  0.4255290000000 1.0
C      1  0.4436140000000  0.4683360000000  0.5560130000000 1.0
C      1  0.4706130000000  0.4438460000000  0.5154270000000 1.0
C      1  0.4866640000000  0.4970050000000  0.4964290000000 1.0
C      1  0.5453530000000  0.4721270000000  0.4496880000000 1.0
C      1  0.4490380000000  0.5353310000000  0.4589000000000 1.0
C      1  0.4873780000000  0.5541430000000  0.5045150000000 1.0
C      1  0.4862710000000  0.4903840000000  0.5234850000000 1.0
C      1  0.5151570000000  0.4425590000000  0.5072490000000 1.0
C      1  0.5622420000000  0.5463870000000  0.4920930000000 1.0
C      1  0.4629370000000  0.5166500000000  0.4401780000000 1.0
END
