TITL C-211903-535-1 0.780191489570709 125000 -901.159932458285 0 0 127 (C1) n - 1
REM
REM in /rds/project/t2_vol4/rds-t2-cs072/BORA/CARBON/from-Arr/AIRSS/Generating-Clusters/GAP-ML-2020/Only-C1/SD-CG/HFTN-CG
REM
REM
REM
REM
REM
REM ./C.cell (11c1c37f851c82e70ff6c80c92926a4b)
REM AIRSS Version 0.9.1 bugfix July 2018 build 013d7b7c2542+ Fri, 06 Jul 2018 19:26:36 +0100
REM compiler GCC version 9.3.0
REM options -cpp -mtune=generic -march=x86-64 -g -O0
REM seed 1545852308 -588559347 -677397379 -1766195386 2015024671 580735557 313712038 -654205741 -162960078 -248648713 268056196 -2082466556 1489866390 1317753908 1950194757 -1495134419 -44469035 -171359626 605777517 -670498324 -813902352 -1570076163 818240779 -117313809 305618891 761190979 -2065575788 1715162481 -326252094 1288889444 248937291 880841857 -2044727766
REM
CELL 1.54180   50.00000   50.00000   50.00000   90.00000   90.00000   90.00000
LATT -1
SFAC C  
C      1  0.4974150000000  0.5652500000000  0.5680320000000 1.0
C      1  0.5282920000000  0.4987400000000  0.4898930000000 1.0
C      1  0.4380650000000  0.5457450000000  0.5524340000000 1.0
C      1  0.4442700000000  0.5744230000000  0.4644360000000 1.0
C      1  0.5222960000000  0.5632570000000  0.4507680000000 1.0
C      1  0.4668570000000  0.4749940000000  0.5887400000000 1.0
C      1  0.4799880000000  0.4988320000000  0.5954880000000 1.0
C      1  0.4918890000000  0.5663010000000  0.4529230000000 1.0
C      1  0.5329770000000  0.4997190000000  0.5173550000000 1.0
C      1  0.5174020000000  0.4424550000000  0.5157990000000 1.0
C      1  0.5118150000000  0.5463220000000  0.4925720000000 1.0
C      1  0.4697860000000  0.5146510000000  0.3953630000000 1.0
C      1  0.5226660000000  0.4379390000000  0.5668130000000 1.0
C      1  0.5069730000000  0.4557160000000  0.4245470000000 1.0
C      1  0.5346890000000  0.5064270000000  0.4402820000000 1.0
C      1  0.5276850000000  0.4533170000000  0.4908410000000 1.0
C      1  0.4916630000000  0.6032570000000  0.5056860000000 1.0
C      1  0.4952220000000  0.5949850000000  0.5336730000000 1.0
C      1  0.5173350000000  0.5246810000000  0.5838420000000 1.0
C      1  0.5199790000000  0.6017060000000  0.5042250000000 1.0
C      1  0.4755820000000  0.4956950000000  0.5182780000000 1.0
C      1  0.4270800000000  0.4720920000000  0.4547670000000 1.0
C      1  0.5313640000000  0.4533710000000  0.5420620000000 1.0
C      1  0.4695400000000  0.4760420000000  0.4476690000000 1.0
C      1  0.5915080000000  0.5098520000000  0.5309850000000 1.0
C      1  0.4451520000000  0.4746880000000  0.5694390000000 1.0
C      1  0.4685940000000  0.4650130000000  0.4743330000000 1.0
C      1  0.4810690000000  0.5582830000000  0.4269990000000 1.0
C      1  0.4548940000000  0.5646090000000  0.5368110000000 1.0
C      1  0.4439940000000  0.5862270000000  0.4915800000000 1.0
C      1  0.5594020000000  0.4201850000000  0.5293300000000 1.0
C      1  0.5490860000000  0.4806240000000  0.4356680000000 1.0
C      1  0.4481490000000  0.4208720000000  0.5183380000000 1.0
C      1  0.4469050000000  0.4500180000000  0.5548920000000 1.0
C      1  0.4907030000000  0.4797650000000  0.4248660000000 1.0
C      1  0.5742370000000  0.5513750000000  0.5107070000000 1.0
C      1  0.4626820000000  0.4360660000000  0.4416990000000 1.0
C      1  0.5402870000000  0.5436360000000  0.5767670000000 1.0
C      1  0.4212940000000  0.4999880000000  0.4471660000000 1.0
C      1  0.5363000000000  0.5165360000000  0.4701290000000 1.0
C      1  0.4353280000000  0.5736150000000  0.5148290000000 1.0
C      1  0.4487700000000  0.5124860000000  0.4830330000000 1.0
C      1  0.4339400000000  0.4659450000000  0.5068450000000 1.0
C      1  0.5340660000000  0.4059180000000  0.5363250000000 1.0
C      1  0.4378580000000  0.5505250000000  0.4507800000000 1.0
C      1  0.5080330000000  0.4998000000000  0.5982520000000 1.0
C      1  0.5199420000000  0.4825360000000  0.5392780000000 1.0
C      1  0.4467900000000  0.4612100000000  0.4344440000000 1.0
C      1  0.5349090000000  0.5492750000000  0.4751590000000 1.0
C      1  0.5631970000000  0.5572650000000  0.4840080000000 1.0
C      1  0.4702510000000  0.5982190000000  0.4879120000000 1.0
C      1  0.4175790000000  0.5504530000000  0.5100250000000 1.0
C      1  0.5421350000000  0.5765790000000  0.5446800000000 1.0
C      1  0.4201700000000  0.5342040000000  0.5332560000000 1.0
C      1  0.5059910000000  0.3961120000000  0.4923280000000 1.0
C      1  0.5602730000000  0.4452930000000  0.5417900000000 1.0
C      1  0.5104040000000  0.3976050000000  0.4652450000000 1.0
C      1  0.5130950000000  0.4763450000000  0.4840800000000 1.0
C      1  0.5896880000000  0.5077860000000  0.4853620000000 1.0
C      1  0.4379140000000  0.4590990000000  0.4785570000000 1.0
C      1  0.5534100000000  0.4196790000000  0.5007000000000 1.0
C      1  0.4939690000000  0.5295390000000  0.3916000000000 1.0
C      1  0.4792640000000  0.5781070000000  0.5493420000000 1.0
C      1  0.4708760000000  0.4058530000000  0.5294710000000 1.0
C      1  0.5902900000000  0.4819670000000  0.5233340000000 1.0
C      1  0.4704980000000  0.5235310000000  0.5844990000000 1.0
C      1  0.4386740000000  0.4460730000000  0.5273810000000 1.0
C      1  0.4844860000000  0.4141640000000  0.5526620000000 1.0
C      1  0.4661330000000  0.5430240000000  0.5170670000000 1.0
C      1  0.5144550000000  0.4186170000000  0.4487710000000 1.0
C      1  0.5719620000000  0.4816920000000  0.4521880000000 1.0
C      1  0.5779500000000  0.4671570000000  0.5448430000000 1.0
C      1  0.4694260000000  0.4346160000000  0.5663940000000 1.0
C      1  0.4717730000000  0.5857920000000  0.4621590000000 1.0
C      1  0.5140380000000  0.4135070000000  0.5562330000000 1.0
C      1  0.4861490000000  0.4738540000000  0.4948550000000 1.0
C      1  0.4893520000000  0.5407890000000  0.4735450000000 1.0
C      1  0.5774500000000  0.5555510000000  0.4603390000000 1.0
C      1  0.5886120000000  0.5264130000000  0.5081780000000 1.0
C      1  0.5258540000000  0.4104130000000  0.5089120000000 1.0
C      1  0.5789570000000  0.5144290000000  0.5557840000000 1.0
C      1  0.4823070000000  0.4512860000000  0.5859910000000 1.0
C      1  0.4463020000000  0.5244550000000  0.5697750000000 1.0
C      1  0.4264060000000  0.5063630000000  0.5325940000000 1.0
C      1  0.4534360000000  0.4339080000000  0.4698100000000 1.0
C      1  0.4478100000000  0.5251770000000  0.4106550000000 1.0
C      1  0.5816300000000  0.5085320000000  0.4580150000000 1.0
C      1  0.4662470000000  0.5022690000000  0.4598780000000 1.0
C      1  0.4930030000000  0.5407120000000  0.5813030000000 1.0
C      1  0.5314430000000  0.5227260000000  0.5329550000000 1.0
C      1  0.4794460000000  0.3997420000000  0.5026540000000 1.0
C      1  0.4442280000000  0.4787720000000  0.4111200000000 1.0
C      1  0.4915530000000  0.4777030000000  0.5357900000000 1.0
C      1  0.5392500000000  0.4348870000000  0.4508970000000 1.0
C      1  0.4105740000000  0.5387170000000  0.4870120000000 1.0
C      1  0.5704800000000  0.4874900000000  0.5646970000000 1.0
C      1  0.5108800000000  0.4525870000000  0.5877940000000 1.0
C      1  0.5271320000000  0.5064440000000  0.5598580000000 1.0
C      1  0.4355690000000  0.4997810000000  0.5595590000000 1.0
C      1  0.5348410000000  0.4562170000000  0.4330510000000 1.0
C      1  0.5639360000000  0.5582600000000  0.5374840000000 1.0
C      1  0.5280490000000  0.5517950000000  0.4259500000000 1.0
C      1  0.4432330000000  0.4946730000000  0.5104440000000 1.0
C      1  0.5026800000000  0.5504520000000  0.4102040000000 1.0
C      1  0.4540050000000  0.5471730000000  0.4276070000000 1.0
C      1  0.5061000000000  0.5048640000000  0.4319810000000 1.0
C      1  0.5105140000000  0.5128250000000  0.4031720000000 1.0
C      1  0.5242470000000  0.4771730000000  0.5937070000000 1.0
C      1  0.5881930000000  0.4804120000000  0.4943770000000 1.0
C      1  0.4566190000000  0.4149930000000  0.4911360000000 1.0
C      1  0.4248360000000  0.5250550000000  0.4659670000000 1.0
C      1  0.5726170000000  0.5333960000000  0.4445520000000 1.0
C      1  0.5533380000000  0.4417430000000  0.4783430000000 1.0
C      1  0.4310870000000  0.5027850000000  0.4200390000000 1.0
C      1  0.5460800000000  0.4887730000000  0.5777080000000 1.0
C      1  0.4912910000000  0.4550930000000  0.5176310000000 1.0
C      1  0.4841350000000  0.5226880000000  0.5224740000000 1.0
C      1  0.5248670000000  0.5939890000000  0.5307590000000 1.0
C      1  0.4704880000000  0.4867850000000  0.4022440000000 1.0
C      1  0.5270520000000  0.5664900000000  0.5665080000000 1.0
C      1  0.4653230000000  0.5359290000000  0.4905510000000 1.0
C      1  0.4891070000000  0.5165540000000  0.4553500000000 1.0
C      1  0.4927160000000  0.4338540000000  0.4355490000000 1.0
C      1  0.5484290000000  0.5310380000000  0.4290900000000 1.0
C      1  0.5099880000000  0.5341150000000  0.5186990000000 1.0
C      1  0.5746580000000  0.4636220000000  0.4744750000000 1.0
C      1  0.5648750000000  0.5390190000000  0.5599490000000 1.0
END
