TITL C-216148-3349-8 -0.0580624066348775 125000 -448.881987493094 0 0 66 (C1) n - 1
REM
REM in /rds/project/t2_vol4/rds-t2-cs072/BORA/CARBON/from-Arr/AIRSS/Generating-Clusters/GAP-ML-2020/Only-C1/SD-CG/HFTN-CG
REM
REM
REM
REM
REM
REM ./C.cell (11c1c37f851c82e70ff6c80c92926a4b)
REM AIRSS Version 0.9.1 bugfix July 2018 build 013d7b7c2542+ Fri, 06 Jul 2018 19:26:36 +0100
REM compiler GCC version 9.3.0
REM options -cpp -mtune=generic -march=x86-64 -g -O0
REM seed 1933626385 -184345348 939913197 1341918017 -1498919574 -242120630 1725221765 -941548668 2106877567 -1400769315 761683082 -1181184299 -2019444646 878360746 -428973103 -400845423 1173745860 224846767 1413642214 317560614 -1738600277 109063080 117556073 1206727597 301284490 192403669 1219532428 -1678208747 1531996497 -398157610 192202669 1726822870 2059794715
REM
CELL 1.54180   50.00000   50.00000   50.00000   90.00000   90.00000   90.00000
LATT -1
SFAC C  
C      1  0.5066150000000  0.4961560000000  0.5701680000000 1.0
C      1  0.5353500000000  0.4485970000000  0.5272980000000 1.0
C      1  0.4390490000000  0.4464570000000  0.4743550000000 1.0
C      1  0.5131810000000  0.5425450000000  0.4987150000000 1.0
C      1  0.4712060000000  0.4689720000000  0.4698140000000 1.0
C      1  0.4522090000000  0.5123120000000  0.4364680000000 1.0
C      1  0.4959040000000  0.5717330000000  0.4990020000000 1.0
C      1  0.4560960000000  0.5108670000000  0.5392900000000 1.0
C      1  0.5555460000000  0.4695340000000  0.5244700000000 1.0
C      1  0.5080860000000  0.5155500000000  0.5135710000000 1.0
C      1  0.4607040000000  0.5555160000000  0.5249940000000 1.0
C      1  0.5517400000000  0.5197950000000  0.5408630000000 1.0
C      1  0.4520730000000  0.5306080000000  0.4557100000000 1.0
C      1  0.5226670000000  0.4332540000000  0.5074610000000 1.0
C      1  0.5187970000000  0.4565610000000  0.5490410000000 1.0
C      1  0.5203840000000  0.5049670000000  0.4195640000000 1.0
C      1  0.4967160000000  0.4212370000000  0.5062680000000 1.0
C      1  0.4727110000000  0.5156700000000  0.4915910000000 1.0
C      1  0.4580680000000  0.4879440000000  0.5571200000000 1.0
C      1  0.4801080000000  0.5052790000000  0.5182450000000 1.0
C      1  0.4834780000000  0.4796860000000  0.5653530000000 1.0
C      1  0.4748330000000  0.4996450000000  0.4286910000000 1.0
C      1  0.5127060000000  0.4957170000000  0.4920330000000 1.0
C      1  0.4744750000000  0.5497430000000  0.4564870000000 1.0
C      1  0.5152920000000  0.4468160000000  0.4806190000000 1.0
C      1  0.5416750000000  0.4521220000000  0.4673740000000 1.0
C      1  0.4663150000000  0.4385660000000  0.4798650000000 1.0
C      1  0.5179970000000  0.5340600000000  0.4695900000000 1.0
C      1  0.4968940000000  0.5106260000000  0.4734800000000 1.0
C      1  0.5085440000000  0.5241000000000  0.5687460000000 1.0
C      1  0.5573500000000  0.4977680000000  0.4587660000000 1.0
C      1  0.4339820000000  0.4978170000000  0.4936540000000 1.0
C      1  0.4930870000000  0.4267040000000  0.4765490000000 1.0
C      1  0.5618810000000  0.5233900000000  0.4912640000000 1.0
C      1  0.4994700000000  0.5403700000000  0.4466190000000 1.0
C      1  0.5690400000000  0.4719190000000  0.4989130000000 1.0
C      1  0.4981910000000  0.5182880000000  0.4268930000000 1.0
C      1  0.4965170000000  0.4715300000000  0.4904900000000 1.0
C      1  0.4449770000000  0.5239480000000  0.4835350000000 1.0
C      1  0.5244720000000  0.4792750000000  0.4301030000000 1.0
C      1  0.5362400000000  0.5578650000000  0.5154720000000 1.0
C      1  0.4714720000000  0.4325500000000  0.5096900000000 1.0
C      1  0.4792570000000  0.4732720000000  0.4411530000000 1.0
C      1  0.4733040000000  0.5627820000000  0.4811580000000 1.0
C      1  0.5242340000000  0.5791020000000  0.5001120000000 1.0
C      1  0.5506830000000  0.4908950000000  0.5436600000000 1.0
C      1  0.4835310000000  0.5719540000000  0.5254020000000 1.0
C      1  0.4612840000000  0.5378560000000  0.5479240000000 1.0
C      1  0.5457540000000  0.5244060000000  0.4664360000000 1.0
C      1  0.5027080000000  0.4625050000000  0.4349510000000 1.0
C      1  0.5565890000000  0.5354760000000  0.5160000000000 1.0
C      1  0.5454120000000  0.4742890000000  0.4486750000000 1.0
C      1  0.5643050000000  0.4493160000000  0.4833000000000 1.0
C      1  0.4685670000000  0.4539920000000  0.5296210000000 1.0
C      1  0.4457670000000  0.4711710000000  0.5374120000000 1.0
C      1  0.4903280000000  0.4567030000000  0.5505680000000 1.0
C      1  0.5709660000000  0.4965510000000  0.4843470000000 1.0
C      1  0.4829570000000  0.4761820000000  0.5156920000000 1.0
C      1  0.5265500000000  0.5584390000000  0.5430870000000 1.0
C      1  0.5286860000000  0.4811690000000  0.5596400000000 1.0
C      1  0.4869790000000  0.5422150000000  0.5613520000000 1.0
C      1  0.4543860000000  0.5484950000000  0.4978740000000 1.0
C      1  0.4422710000000  0.4744920000000  0.4777640000000 1.0
C      1  0.5329560000000  0.5344910000000  0.5565760000000 1.0
C      1  0.4994450000000  0.5641000000000  0.5476680000000 1.0
C      1  0.4369790000000  0.4940880000000  0.5214350000000 1.0
END
