TITL C-21792-2975-1 0.00636936689668328 125000 -746.872471372566 0 0 105 (C1) n - 1
REM
REM in /rds/project/t2_vol4/rds-t2-cs072/BORA/CARBON/from-Arr/AIRSS/Generating-Clusters/GAP-ML-2020/Only-C1/SD-CG/HFTN-CG
REM
REM
REM
REM
REM
REM ./C.cell (11c1c37f851c82e70ff6c80c92926a4b)
REM AIRSS Version 0.9.1 bugfix July 2018 build 013d7b7c2542+ Fri, 06 Jul 2018 19:26:36 +0100
REM compiler GCC version 9.3.0
REM options -cpp -mtune=generic -march=x86-64 -g -O0
REM seed 1207093606 1417983406 -1176919884 -1865671195 -374053406 1839579381 -197969053 -385098197 -2011529347 782720366 -763432441 -682737227 1332073739 1284578305 -1272145473 -1160056581 -1243184068 -290445155 -229936024 -851211200 1797740797 -379483532 -982130039 -541085151 522683098 1564825895 1458421274 618097611 -113169366 677637980 -1024358505 -212245627 -1423359301
REM
CELL 1.54180   50.00000   50.00000   50.00000   90.00000   90.00000   90.00000
LATT -1
SFAC C  
C      1  0.5745400000000  0.4557220000000  0.5045760000000 1.0
C      1  0.5361530000000  0.5205330000000  0.5636970000000 1.0
C      1  0.4231140000000  0.5302510000000  0.4988540000000 1.0
C      1  0.4692740000000  0.4216990000000  0.4375050000000 1.0
C      1  0.5864380000000  0.4742580000000  0.4885310000000 1.0
C      1  0.4983220000000  0.5368690000000  0.5395440000000 1.0
C      1  0.5040940000000  0.5910240000000  0.5197680000000 1.0
C      1  0.4536210000000  0.4634720000000  0.4167080000000 1.0
C      1  0.4660630000000  0.5253520000000  0.5811610000000 1.0
C      1  0.5293050000000  0.4697110000000  0.4804420000000 1.0
C      1  0.4552440000000  0.4985980000000  0.5827240000000 1.0
C      1  0.4718920000000  0.5583960000000  0.5414250000000 1.0
C      1  0.4358190000000  0.4791270000000  0.4667090000000 1.0
C      1  0.4800420000000  0.4703430000000  0.4764200000000 1.0
C      1  0.5204800000000  0.5704770000000  0.5645580000000 1.0
C      1  0.5281440000000  0.5637890000000  0.4304850000000 1.0
C      1  0.5400920000000  0.4152320000000  0.5289590000000 1.0
C      1  0.5628030000000  0.5364000000000  0.4762310000000 1.0
C      1  0.5126990000000  0.5397370000000  0.5679770000000 1.0
C      1  0.4751140000000  0.5773980000000  0.4781490000000 1.0
C      1  0.4918110000000  0.4643830000000  0.5193550000000 1.0
C      1  0.5854990000000  0.5207200000000  0.4860830000000 1.0
C      1  0.5182720000000  0.4742870000000  0.5629880000000 1.0
C      1  0.4534210000000  0.4552470000000  0.4646440000000 1.0
C      1  0.4718100000000  0.4807480000000  0.5037220000000 1.0
C      1  0.4394370000000  0.5426850000000  0.4776070000000 1.0
C      1  0.5247890000000  0.4612340000000  0.4241920000000 1.0
C      1  0.5128430000000  0.5747430000000  0.4507090000000 1.0
C      1  0.5627920000000  0.4862620000000  0.5435540000000 1.0
C      1  0.5252450000000  0.4906510000000  0.4337170000000 1.0
C      1  0.5016530000000  0.4125760000000  0.4678820000000 1.0
C      1  0.4104350000000  0.4951000000000  0.5307420000000 1.0
C      1  0.4747580000000  0.5438150000000  0.4422580000000 1.0
C      1  0.5037670000000  0.4846120000000  0.5368640000000 1.0
C      1  0.4533280000000  0.4448660000000  0.4375470000000 1.0
C      1  0.5329870000000  0.4930650000000  0.4649860000000 1.0
C      1  0.5467550000000  0.5292350000000  0.5376400000000 1.0
C      1  0.4844700000000  0.5680560000000  0.4530490000000 1.0
C      1  0.5207030000000  0.5861180000000  0.4764360000000 1.0
C      1  0.4730540000000  0.4144640000000  0.4658500000000 1.0
C      1  0.4508430000000  0.4379730000000  0.5100620000000 1.0
C      1  0.4511300000000  0.5310220000000  0.4540830000000 1.0
C      1  0.5417260000000  0.4925520000000  0.5634380000000 1.0
C      1  0.4899280000000  0.5168460000000  0.4847460000000 1.0
C      1  0.5145370000000  0.4061400000000  0.5395800000000 1.0
C      1  0.4970980000000  0.5893060000000  0.4922060000000 1.0
C      1  0.5008970000000  0.4285860000000  0.5466540000000 1.0
C      1  0.5651680000000  0.4598620000000  0.5326190000000 1.0
C      1  0.4307260000000  0.4917150000000  0.5711360000000 1.0
C      1  0.4798010000000  0.4663630000000  0.4040520000000 1.0
C      1  0.5024240000000  0.5914960000000  0.5680300000000 1.0
C      1  0.4535530000000  0.5643140000000  0.4904790000000 1.0
C      1  0.5855230000000  0.5004880000000  0.4436860000000 1.0
C      1  0.5596230000000  0.5560800000000  0.5384910000000 1.0
C      1  0.4294690000000  0.5446530000000  0.5229840000000 1.0
C      1  0.4176540000000  0.5099840000000  0.5540800000000 1.0
C      1  0.4334900000000  0.4657850000000  0.5580830000000 1.0
C      1  0.5045780000000  0.5043060000000  0.5980610000000 1.0
C      1  0.5387300000000  0.4209960000000  0.5016770000000 1.0
C      1  0.4965250000000  0.5011260000000  0.4345030000000 1.0
C      1  0.4763100000000  0.5080260000000  0.5082990000000 1.0
C      1  0.4942160000000  0.5274420000000  0.5876590000000 1.0
C      1  0.4514260000000  0.5011580000000  0.4516220000000 1.0
C      1  0.5900940000000  0.4956510000000  0.4726060000000 1.0
C      1  0.4742840000000  0.4429120000000  0.5359000000000 1.0
C      1  0.5430760000000  0.5818140000000  0.4940140000000 1.0
C      1  0.5474150000000  0.4489970000000  0.4656930000000 1.0
C      1  0.4139120000000  0.5032000000000  0.5040270000000 1.0
C      1  0.4913840000000  0.5096410000000  0.5330680000000 1.0
C      1  0.5379280000000  0.5193740000000  0.4761750000000 1.0
C      1  0.5233710000000  0.5375860000000  0.4238260000000 1.0
C      1  0.5196090000000  0.5324490000000  0.5200200000000 1.0
C      1  0.4897840000000  0.5838470000000  0.5444470000000 1.0
C      1  0.5696850000000  0.5111580000000  0.5315090000000 1.0
C      1  0.5162910000000  0.5263310000000  0.4925440000000 1.0
C      1  0.5637490000000  0.5620460000000  0.4916220000000 1.0
C      1  0.5474090000000  0.4397560000000  0.5433190000000 1.0
C      1  0.5325740000000  0.5879950000000  0.5208170000000 1.0
C      1  0.5859400000000  0.5263180000000  0.5136650000000 1.0
C      1  0.5414220000000  0.5140270000000  0.4217030000000 1.0
C      1  0.5764020000000  0.5545540000000  0.5157890000000 1.0
C      1  0.4548000000000  0.5429470000000  0.5617110000000 1.0
C      1  0.5147480000000  0.4196580000000  0.4428300000000 1.0
C      1  0.5415990000000  0.5759520000000  0.5452010000000 1.0
C      1  0.4191330000000  0.4676680000000  0.5340810000000 1.0
C      1  0.4515150000000  0.5613410000000  0.5190550000000 1.0
C      1  0.4965140000000  0.5292430000000  0.4304270000000 1.0
C      1  0.4942700000000  0.4249040000000  0.4236440000000 1.0
C      1  0.4822220000000  0.4966620000000  0.4616480000000 1.0
C      1  0.5048390000000  0.4560480000000  0.4917160000000 1.0
C      1  0.5583280000000  0.4370360000000  0.4890600000000 1.0
C      1  0.4219760000000  0.4788260000000  0.4903930000000 1.0
C      1  0.5233110000000  0.4466040000000  0.5560290000000 1.0
C      1  0.4604080000000  0.4566450000000  0.5595930000000 1.0
C      1  0.4563140000000  0.4311300000000  0.4833920000000 1.0
C      1  0.5124070000000  0.4249400000000  0.4902560000000 1.0
C      1  0.4995710000000  0.4808980000000  0.5848020000000 1.0
C      1  0.5012100000000  0.4501620000000  0.4109870000000 1.0
C      1  0.4720720000000  0.4754870000000  0.5791310000000 1.0
C      1  0.4284400000000  0.4569660000000  0.5101940000000 1.0
C      1  0.4524150000000  0.4915790000000  0.4234610000000 1.0
C      1  0.4788470000000  0.4935850000000  0.4122400000000 1.0
C      1  0.5350510000000  0.4407730000000  0.4418570000000 1.0
C      1  0.5688570000000  0.5109500000000  0.4275770000000 1.0
C      1  0.4303740000000  0.5348670000000  0.5494940000000 1.0
END
