TITL C-21802-3053-4 -0.025825955115917 125000 -398.541708476642 0 0 60 (C1) n - 1
REM
REM in /rds/project/t2_vol4/rds-t2-cs072/BORA/CARBON/from-Arr/AIRSS/Generating-Clusters/GAP-ML-2020/Only-C1/SD-CG/HFTN-CG
REM
REM
REM
REM
REM
REM ./C.cell (11c1c37f851c82e70ff6c80c92926a4b)
REM AIRSS Version 0.9.1 bugfix July 2018 build 013d7b7c2542+ Fri, 06 Jul 2018 19:26:36 +0100
REM compiler GCC version 9.3.0
REM options -cpp -mtune=generic -march=x86-64 -g -O0
REM seed -1086311520 7662801 248935784 243596998 -1677663555 -711553815 -1222612424 1665253126 -685771334 -2024474601 -1877213207 -1264465000 618651304 -899452614 -533769034 -1902209737 2064578082 1907873030 -1684903985 77191246 1873847314 -650117695 446801026 772406819 1276318961 -902665463 544661248 1040895891 502850543 1872033589 1632202920 284470669 511523684
REM
CELL 1.54180   50.00000   50.00000   50.00000   90.00000   90.00000   90.00000
LATT -1
SFAC C  
C      1  0.5531170000000  0.4923680000000  0.5342940000000 1.0
C      1  0.5024920000000  0.4674740000000  0.5035810000000 1.0
C      1  0.5550200000000  0.5194400000000  0.4922850000000 1.0
C      1  0.4654010000000  0.4630470000000  0.5473090000000 1.0
C      1  0.5448830000000  0.4496640000000  0.4917940000000 1.0
C      1  0.4792060000000  0.5402160000000  0.5311900000000 1.0
C      1  0.4803450000000  0.5058600000000  0.4546140000000 1.0
C      1  0.4921160000000  0.4501770000000  0.5459910000000 1.0
C      1  0.4668290000000  0.5461570000000  0.4694000000000 1.0
C      1  0.5107830000000  0.5059010000000  0.5864130000000 1.0
C      1  0.5580540000000  0.5137730000000  0.4633550000000 1.0
C      1  0.4345210000000  0.4521360000000  0.5062890000000 1.0
C      1  0.4603110000000  0.4471010000000  0.4946500000000 1.0
C      1  0.4344980000000  0.5008320000000  0.5014930000000 1.0
C      1  0.5187470000000  0.5143900000000  0.5619180000000 1.0
C      1  0.5344240000000  0.4434770000000  0.5260640000000 1.0
C      1  0.5180150000000  0.4886380000000  0.5167320000000 1.0
C      1  0.5065070000000  0.5264430000000  0.4913260000000 1.0
C      1  0.5361990000000  0.5413000000000  0.5336550000000 1.0
C      1  0.4723350000000  0.4902110000000  0.5562750000000 1.0
C      1  0.4786330000000  0.5346350000000  0.4448790000000 1.0
C      1  0.5043940000000  0.5756430000000  0.4900940000000 1.0
C      1  0.5076630000000  0.5356670000000  0.5212460000000 1.0
C      1  0.5116590000000  0.4659010000000  0.5582860000000 1.0
C      1  0.4305630000000  0.5139070000000  0.4755810000000 1.0
C      1  0.4749840000000  0.4732080000000  0.4989900000000 1.0
C      1  0.5503580000000  0.5501080000000  0.4996160000000 1.0
C      1  0.5434690000000  0.5166960000000  0.5474500000000 1.0
C      1  0.4345290000000  0.4865370000000  0.4651480000000 1.0
C      1  0.5177830000000  0.4563550000000  0.4780230000000 1.0
C      1  0.5261990000000  0.4749050000000  0.4570640000000 1.0
C      1  0.4652470000000  0.5549760000000  0.5131140000000 1.0
C      1  0.5416930000000  0.5320290000000  0.4512770000000 1.0
C      1  0.4814490000000  0.4641280000000  0.4482970000000 1.0
C      1  0.5045670000000  0.5082470000000  0.5341460000000 1.0
C      1  0.5280440000000  0.5409790000000  0.4287500000000 1.0
C      1  0.5047350000000  0.4436990000000  0.5221800000000 1.0
C      1  0.5299090000000  0.5648930000000  0.4840970000000 1.0
C      1  0.4736280000000  0.5101980000000  0.5337750000000 1.0
C      1  0.4267710000000  0.4744960000000  0.4910360000000 1.0
C      1  0.5190410000000  0.5433710000000  0.4685940000000 1.0
C      1  0.4408330000000  0.5466270000000  0.5055050000000 1.0
C      1  0.4973880000000  0.4857550000000  0.5732540000000 1.0
C      1  0.5509820000000  0.4293770000000  0.5100720000000 1.0
C      1  0.4647610000000  0.5001010000000  0.5059620000000 1.0
C      1  0.5014310000000  0.4848360000000  0.4463120000000 1.0
C      1  0.5546490000000  0.5596440000000  0.5246720000000 1.0
C      1  0.4791770000000  0.5662010000000  0.4886590000000 1.0
C      1  0.4741140000000  0.4297510000000  0.4784440000000 1.0
C      1  0.5643830000000  0.4949820000000  0.5077700000000 1.0
C      1  0.5038720000000  0.5458750000000  0.4421000000000 1.0
C      1  0.4929500000000  0.4430430000000  0.4644880000000 1.0
C      1  0.5521180000000  0.4856220000000  0.4625000000000 1.0
C      1  0.4797600000000  0.5174180000000  0.4843360000000 1.0
C      1  0.4599480000000  0.4836100000000  0.4528520000000 1.0
C      1  0.5259710000000  0.5069060000000  0.4951900000000 1.0
C      1  0.5596000000000  0.4741930000000  0.4881440000000 1.0
C      1  0.4444360000000  0.4567120000000  0.5320100000000 1.0
C      1  0.4395040000000  0.5401920000000  0.4779910000000 1.0
C      1  0.5350000000000  0.4699700000000  0.5394690000000 1.0
END
