TITL C-215713-9171-3 0.0768285175358037 125000 -432.661978240504 0 0 62 (C1) n - 1
REM
REM in /rds/project/t2_vol4/rds-t2-cs072/BORA/CARBON/from-Arr/AIRSS/Generating-Clusters/GAP-ML-2020/Only-C1/SD-CG/HFTN-CG
REM
REM
REM
REM
REM
REM ./C.cell (11c1c37f851c82e70ff6c80c92926a4b)
REM AIRSS Version 0.9.1 bugfix July 2018 build 013d7b7c2542+ Fri, 06 Jul 2018 19:26:36 +0100
REM compiler GCC version 9.3.0
REM options -cpp -mtune=generic -march=x86-64 -g -O0
REM seed -915374091 12501892 -1651086038 1682213612 1968157801 -1980333688 -1645625714 -1621896831 -1009917790 -1703147216 515549086 -368461276 -1571359618 -786551789 2097841743 392680823 -189434801 156578442 -1187615252 -2015915981 -1314504083 -1557248311 1012191884 1537645102 -871736503 -125262710 -1349522968 -1033058626 -778789557 795135249 1822401665 -1481929403 -561388062
REM
CELL 1.54180   50.00000   50.00000   50.00000   90.00000   90.00000   90.00000
LATT -1
SFAC C  
C      1  0.5307350000000  0.4346480000000  0.4990600000000 1.0
C      1  0.5323920000000  0.4555490000000  0.5442540000000 1.0
C      1  0.5002310000000  0.5032790000000  0.4717780000000 1.0
C      1  0.5483450000000  0.5024260000000  0.4469370000000 1.0
C      1  0.5326160000000  0.5401870000000  0.5319880000000 1.0
C      1  0.4595690000000  0.5260870000000  0.4716750000000 1.0
C      1  0.4745800000000  0.5506320000000  0.5291020000000 1.0
C      1  0.5635400000000  0.4860290000000  0.4641280000000 1.0
C      1  0.4649340000000  0.5769550000000  0.4710300000000 1.0
C      1  0.5532050000000  0.5373510000000  0.4803100000000 1.0
C      1  0.5331620000000  0.5565270000000  0.4862340000000 1.0
C      1  0.5209020000000  0.5571890000000  0.5125240000000 1.0
C      1  0.4841000000000  0.5199450000000  0.4911400000000 1.0
C      1  0.5250530000000  0.4343760000000  0.5271200000000 1.0
C      1  0.4849220000000  0.5300740000000  0.5487620000000 1.0
C      1  0.5016460000000  0.4545910000000  0.4638490000000 1.0
C      1  0.4366730000000  0.5140080000000  0.4848030000000 1.0
C      1  0.4554190000000  0.4871830000000  0.5435020000000 1.0
C      1  0.4893580000000  0.5666550000000  0.4799770000000 1.0
C      1  0.4856900000000  0.4483860000000  0.5490860000000 1.0
C      1  0.5186490000000  0.5381330000000  0.4469050000000 1.0
C      1  0.4971940000000  0.4301090000000  0.5302750000000 1.0
C      1  0.5107900000000  0.4894930000000  0.5126010000000 1.0
C      1  0.5131020000000  0.5583870000000  0.4661430000000 1.0
C      1  0.4764550000000  0.5035410000000  0.5573150000000 1.0
C      1  0.4706350000000  0.5130350000000  0.4452130000000 1.0
C      1  0.5078760000000  0.4635690000000  0.5587350000000 1.0
C      1  0.4539660000000  0.5544820000000  0.4813870000000 1.0
C      1  0.5049430000000  0.4360880000000  0.4850130000000 1.0
C      1  0.5248200000000  0.4642650000000  0.4503290000000 1.0
C      1  0.4386080000000  0.4723380000000  0.4500480000000 1.0
C      1  0.4351950000000  0.4451910000000  0.4939040000000 1.0
C      1  0.4379040000000  0.4978070000000  0.5234430000000 1.0
C      1  0.4293210000000  0.4642930000000  0.4755570000000 1.0
C      1  0.5497310000000  0.4612150000000  0.4639910000000 1.0
C      1  0.4839190000000  0.4966150000000  0.5104850000000 1.0
C      1  0.5643430000000  0.5194100000000  0.5004700000000 1.0
C      1  0.5704490000000  0.4928770000000  0.4914200000000 1.0
C      1  0.4501510000000  0.5478040000000  0.5117050000000 1.0
C      1  0.5242170000000  0.5057950000000  0.5594780000000 1.0
C      1  0.4618700000000  0.4595470000000  0.5387940000000 1.0
C      1  0.4818000000000  0.4764400000000  0.4686470000000 1.0
C      1  0.5096860000000  0.5828360000000  0.5285840000000 1.0
C      1  0.5518740000000  0.4506130000000  0.4904380000000 1.0
C      1  0.5451960000000  0.5286660000000  0.4541780000000 1.0
C      1  0.4928470000000  0.5474040000000  0.5038680000000 1.0
C      1  0.5225120000000  0.4943790000000  0.4888770000000 1.0
C      1  0.4677170000000  0.4767220000000  0.4954730000000 1.0
C      1  0.5530790000000  0.4733270000000  0.5352900000000 1.0
C      1  0.5230220000000  0.4911290000000  0.4391160000000 1.0
C      1  0.5016630000000  0.5134780000000  0.4432980000000 1.0
C      1  0.4858710000000  0.5783600000000  0.5371240000000 1.0
C      1  0.4365150000000  0.5239880000000  0.5125130000000 1.0
C      1  0.4602880000000  0.4495470000000  0.5090350000000 1.0
C      1  0.4622280000000  0.4857490000000  0.4474770000000 1.0
C      1  0.5134940000000  0.5301460000000  0.5503020000000 1.0
C      1  0.5637730000000  0.4702330000000  0.5084010000000 1.0
C      1  0.5015620000000  0.4899330000000  0.5649490000000 1.0
C      1  0.5535490000000  0.5218140000000  0.5270060000000 1.0
C      1  0.4846410000000  0.4324250000000  0.5054450000000 1.0
C      1  0.4393340000000  0.4870810000000  0.4949950000000 1.0
C      1  0.5481350000000  0.4996590000000  0.5445130000000 1.0
END
