TITL C-2109095-4927-34 -7.2009087763019 125000 -515.65860859015 0 0 76 (C1) n - 1
REM
REM in /nfs/bkarasulu/CARBON/AIRSS/Generating-Clusters/GAP-ML-2020/Only-C1/SD-CG/HFTN-CG
REM
REM
REM
REM
REM
REM ./C.cell (11c1c37f851c82e70ff6c80c92926a4b)
REM
REM compiler GCC version 9.2.1 20190827 (Red Hat 9.2.1-1)
REM options -cpp -mtune=generic -march=x86-64 -g -O0 -fpre-include=/usr/include/finclude/math-vector-fortran.h
REM seed 1265804272 -514946616 2124958387 -234425764 -1412342884 677246639 43316905 -967865192 1772898952 -1441506554 -1738439188 -606058899 -1467678529 -867052076 -1992143193 -2070253944 1338034405 571233502 -1678673140 990944407 -1239818323 -1468890435 2108114800 -401080070 -810434350 1516779961 597373783 -1496008894 55605915 -733281112 1057381063 599177207 986290808
REM
CELL 1.54180   50.00000   50.00000   50.00000   90.00000   90.00000   90.00000
LATT -1
SFAC C  
C      1  0.4971530000000  0.5021950000000  0.5929910000000 1.0
C      1  0.4438060000000  0.5110190000000  0.5182260000000 1.0
C      1  0.4699160000000  0.5585760000000  0.5238010000000 1.0
C      1  0.4709370000000  0.5077950000000  0.4394580000000 1.0
C      1  0.5043520000000  0.4173780000000  0.4920650000000 1.0
C      1  0.5431430000000  0.5596820000000  0.4731360000000 1.0
C      1  0.5079290000000  0.4369560000000  0.4701320000000 1.0
C      1  0.4902030000000  0.4880000000000  0.5256000000000 1.0
C      1  0.5420070000000  0.5206540000000  0.5815130000000 1.0
C      1  0.4539130000000  0.4681960000000  0.4366420000000 1.0
C      1  0.5671240000000  0.4544310000000  0.5088270000000 1.0
C      1  0.5597130000000  0.5361830000000  0.4747530000000 1.0
C      1  0.4253380000000  0.4669940000000  0.5137730000000 1.0
C      1  0.4330370000000  0.5171020000000  0.4899750000000 1.0
C      1  0.5020640000000  0.5775240000000  0.4867830000000 1.0
C      1  0.4905400000000  0.5049220000000  0.4635460000000 1.0
C      1  0.4321280000000  0.4680050000000  0.4860790000000 1.0
C      1  0.5049290000000  0.4595960000000  0.5595200000000 1.0
C      1  0.4778780000000  0.4810060000000  0.4260980000000 1.0
C      1  0.5066210000000  0.4671540000000  0.5125460000000 1.0
C      1  0.5448310000000  0.5014040000000  0.5132160000000 1.0
C      1  0.5417040000000  0.5142220000000  0.4683190000000 1.0
C      1  0.5239330000000  0.4999460000000  0.5871190000000 1.0
C      1  0.5209960000000  0.5055490000000  0.4501030000000 1.0
C      1  0.5058240000000  0.4210930000000  0.5204060000000 1.0
C      1  0.4993870000000  0.4635320000000  0.4328840000000 1.0
C      1  0.5261580000000  0.4728270000000  0.5736400000000 1.0
C      1  0.5342850000000  0.4747650000000  0.5072800000000 1.0
C      1  0.4836490000000  0.5273960000000  0.5492480000000 1.0
C      1  0.4806990000000  0.4171450000000  0.5073920000000 1.0
C      1  0.4559010000000  0.4315730000000  0.5033400000000 1.0
C      1  0.5061790000000  0.5263050000000  0.5042430000000 1.0
C      1  0.5310470000000  0.5166700000000  0.4943280000000 1.0
C      1  0.4601960000000  0.4445360000000  0.4519190000000 1.0
C      1  0.5429880000000  0.4780130000000  0.5517730000000 1.0
C      1  0.4890910000000  0.4408570000000  0.4471180000000 1.0
C      1  0.4822440000000  0.5036950000000  0.5699130000000 1.0
C      1  0.4800650000000  0.4776150000000  0.5534740000000 1.0
C      1  0.5110550000000  0.5731700000000  0.5413820000000 1.0
C      1  0.4438250000000  0.4476480000000  0.5253970000000 1.0
C      1  0.4474160000000  0.4433490000000  0.4780890000000 1.0
C      1  0.4691790000000  0.4977090000000  0.5069330000000 1.0
C      1  0.5739810000000  0.5018730000000  0.5078080000000 1.0
C      1  0.5531640000000  0.5508580000000  0.5360990000000 1.0
C      1  0.5345570000000  0.5061060000000  0.5406190000000 1.0
C      1  0.4762810000000  0.5586420000000  0.4512530000000 1.0
C      1  0.4895600000000  0.5583000000000  0.5454510000000 1.0
C      1  0.5771210000000  0.5297550000000  0.4973300000000 1.0
C      1  0.4338630000000  0.4871460000000  0.5319140000000 1.0
C      1  0.4826900000000  0.5189370000000  0.4887930000000 1.0
C      1  0.5457050000000  0.5289540000000  0.5560290000000 1.0
C      1  0.5189640000000  0.5325790000000  0.4345980000000 1.0
C      1  0.5331660000000  0.5694260000000  0.5248350000000 1.0
C      1  0.5230540000000  0.4748460000000  0.4447270000000 1.0
C      1  0.4593390000000  0.5328850000000  0.5313930000000 1.0
C      1  0.4323160000000  0.4940170000000  0.4725380000000 1.0
C      1  0.4613200000000  0.4777190000000  0.4893220000000 1.0
C      1  0.4759180000000  0.5715830000000  0.4978100000000 1.0
C      1  0.5309470000000  0.4553470000000  0.4646260000000 1.0
C      1  0.4443170000000  0.4934970000000  0.4465560000000 1.0
C      1  0.5479520000000  0.4585660000000  0.4870810000000 1.0
C      1  0.5247470000000  0.5568050000000  0.4510320000000 1.0
C      1  0.4523630000000  0.4675080000000  0.5451900000000 1.0
C      1  0.5049320000000  0.5131720000000  0.5317950000000 1.0
C      1  0.5841890000000  0.4768770000000  0.5092250000000 1.0
C      1  0.5003450000000  0.5383870000000  0.4148700000000 1.0
C      1  0.5290930000000  0.5728380000000  0.4956740000000 1.0
C      1  0.4782690000000  0.5362420000000  0.4313640000000 1.0
C      1  0.5730490000000  0.5466330000000  0.5182220000000 1.0
C      1  0.4604600000000  0.5603520000000  0.4756940000000 1.0
C      1  0.5158220000000  0.4457720000000  0.5342520000000 1.0
C      1  0.4507640000000  0.5357250000000  0.4816340000000 1.0
C      1  0.5008820000000  0.5705300000000  0.4585890000000 1.0
C      1  0.5443710000000  0.4572060000000  0.5314050000000 1.0
C      1  0.4835750000000  0.4781680000000  0.4731200000000 1.0
C      1  0.4995400000000  0.4603610000000  0.4861710000000 1.0
END
