TITL C-215723-9258-4 28.808978105525 125000 -628.211883620783 0 0 92 (C1) n - 1
REM
REM in /rds/project/t2_vol4/rds-t2-cs072/BORA/CARBON/from-Arr/AIRSS/Generating-Clusters/GAP-ML-2020/Only-C1/SD-CG/HFTN-CG
REM
REM
REM
REM
REM
REM ./C.cell (11c1c37f851c82e70ff6c80c92926a4b)
REM AIRSS Version 0.9.1 bugfix July 2018 build 013d7b7c2542+ Fri, 06 Jul 2018 19:26:36 +0100
REM compiler GCC version 9.3.0
REM options -cpp -mtune=generic -march=x86-64 -g -O0
REM seed -1403797192 1520408278 -1328219529 -849802754 -1998086832 1496168319 -1088248475 1680184940 -849209685 -1379355514 976628783 -775087070 507698604 577541906 1931085596 -1522555258 -1756824850 -683212734 1274986748 -1081961793 973527141 -41586087 -1269594877 -750916404 -1950712082 -1534221789 -557821821 1769345528 1670966060 1943833687 -614265235 -610988374 -1853780686
REM
CELL 1.54180   50.00000   50.00000   50.00000   90.00000   90.00000   90.00000
LATT -1
SFAC C  
C      1  0.4946140000000  0.4118960000000  0.4969460000000 1.0
C      1  0.5427320000000  0.4849270000000  0.4393250000000 1.0
C      1  0.5198320000000  0.5189500000000  0.4726860000000 1.0
C      1  0.5845030000000  0.4605890000000  0.4902120000000 1.0
C      1  0.5231910000000  0.4839560000000  0.4182070000000 1.0
C      1  0.5706500000000  0.5289990000000  0.5182880000000 1.0
C      1  0.4507260000000  0.4570240000000  0.4602240000000 1.0
C      1  0.5906440000000  0.4888180000000  0.4961710000000 1.0
C      1  0.4853900000000  0.4218690000000  0.4721340000000 1.0
C      1  0.5321880000000  0.5281940000000  0.4279850000000 1.0
C      1  0.4273420000000  0.4994950000000  0.5389540000000 1.0
C      1  0.5589810000000  0.5336330000000  0.5456420000000 1.0
C      1  0.4533160000000  0.4598750000000  0.5632790000000 1.0
C      1  0.5113330000000  0.4787190000000  0.5394660000000 1.0
C      1  0.5312480000000  0.4379600000000  0.4642390000000 1.0
C      1  0.4669580000000  0.5248360000000  0.5571920000000 1.0
C      1  0.5628360000000  0.4974210000000  0.4889330000000 1.0
C      1  0.5623340000000  0.5204820000000  0.4715170000000 1.0
C      1  0.4770090000000  0.5070760000000  0.5776240000000 1.0
C      1  0.5608120000000  0.4873120000000  0.5412160000000 1.0
C      1  0.5140160000000  0.5357720000000  0.5564660000000 1.0
C      1  0.4636350000000  0.4712690000000  0.5881820000000 1.0
C      1  0.5007640000000  0.5958980000000  0.5030100000000 1.0
C      1  0.4623430000000  0.4874160000000  0.4951120000000 1.0
C      1  0.4561620000000  0.4371210000000  0.5054920000000 1.0
C      1  0.5068950000000  0.5245250000000  0.5266680000000 1.0
C      1  0.4176260000000  0.4969460000000  0.4893460000000 1.0
C      1  0.4799470000000  0.5369960000000  0.4903090000000 1.0
C      1  0.5292670000000  0.4532510000000  0.5409020000000 1.0
C      1  0.4353640000000  0.5258650000000  0.4586820000000 1.0
C      1  0.4836380000000  0.5381540000000  0.4381590000000 1.0
C      1  0.5437100000000  0.4763300000000  0.4845550000000 1.0
C      1  0.4896570000000  0.4269460000000  0.5402430000000 1.0
C      1  0.5062520000000  0.5464560000000  0.5055580000000 1.0
C      1  0.5296920000000  0.5455440000000  0.4856320000000 1.0
C      1  0.4870230000000  0.4641730000000  0.5281360000000 1.0
C      1  0.5045230000000  0.4330240000000  0.4542490000000 1.0
C      1  0.4621660000000  0.4958550000000  0.5989840000000 1.0
C      1  0.5538170000000  0.4611220000000  0.5318800000000 1.0
C      1  0.4875470000000  0.4962620000000  0.4589670000000 1.0
C      1  0.4558880000000  0.5599870000000  0.4939320000000 1.0
C      1  0.4752910000000  0.4189280000000  0.5165930000000 1.0
C      1  0.5178130000000  0.4279420000000  0.5336200000000 1.0
C      1  0.4206670000000  0.5252480000000  0.4825870000000 1.0
C      1  0.5585070000000  0.5401620000000  0.4916290000000 1.0
C      1  0.5510420000000  0.5081280000000  0.5591320000000 1.0
C      1  0.5210140000000  0.4176480000000  0.5072040000000 1.0
C      1  0.5302680000000  0.5763220000000  0.5392450000000 1.0
C      1  0.4800530000000  0.4483400000000  0.5554350000000 1.0
C      1  0.5247980000000  0.5110340000000  0.5699970000000 1.0
C      1  0.5225700000000  0.5004410000000  0.5194040000000 1.0
C      1  0.4675780000000  0.4638450000000  0.4380990000000 1.0
C      1  0.4793820000000  0.5141760000000  0.5309530000000 1.0
C      1  0.4684380000000  0.4935360000000  0.4355890000000 1.0
C      1  0.4849330000000  0.5154400000000  0.4205600000000 1.0
C      1  0.4618800000000  0.5809190000000  0.4772470000000 1.0
C      1  0.4290090000000  0.5453750000000  0.5001360000000 1.0
C      1  0.5091640000000  0.4611680000000  0.4137290000000 1.0
C      1  0.4806440000000  0.5678380000000  0.5394980000000 1.0
C      1  0.4591480000000  0.4357630000000  0.4770400000000 1.0
C      1  0.5961330000000  0.5100070000000  0.5122690000000 1.0
C      1  0.4856150000000  0.5480790000000  0.5584840000000 1.0
C      1  0.4660730000000  0.5145220000000  0.5061210000000 1.0
C      1  0.4986340000000  0.5621740000000  0.4348210000000 1.0
C      1  0.4930560000000  0.4500940000000  0.4332090000000 1.0
C      1  0.4574810000000  0.4662930000000  0.5178180000000 1.0
C      1  0.4905950000000  0.4816560000000  0.4848320000000 1.0
C      1  0.5266880000000  0.5539920000000  0.4356160000000 1.0
C      1  0.4378790000000  0.5256570000000  0.5472700000000 1.0
C      1  0.5557380000000  0.4548750000000  0.5030580000000 1.0
C      1  0.5489170000000  0.4619080000000  0.4572560000000 1.0
C      1  0.4982970000000  0.4589510000000  0.5003730000000 1.0
C      1  0.4137600000000  0.4967820000000  0.5155610000000 1.0
C      1  0.5531590000000  0.5037900000000  0.5178990000000 1.0
C      1  0.5285340000000  0.5650640000000  0.4627980000000 1.0
C      1  0.5380060000000  0.5528250000000  0.5502110000000 1.0
C      1  0.5389410000000  0.4320790000000  0.4909610000000 1.0
C      1  0.4574430000000  0.5648820000000  0.5244900000000 1.0
C      1  0.4907560000000  0.5248360000000  0.4645290000000 1.0
C      1  0.5035160000000  0.5787580000000  0.4589120000000 1.0
C      1  0.4450260000000  0.5021510000000  0.4502800000000 1.0
C      1  0.5779810000000  0.4552260000000  0.4641140000000 1.0
C      1  0.4352060000000  0.5468040000000  0.5285150000000 1.0
C      1  0.4408770000000  0.4828750000000  0.4726440000000 1.0
C      1  0.5426720000000  0.5127060000000  0.4501780000000 1.0
C      1  0.4418930000000  0.4744880000000  0.5416940000000 1.0
C      1  0.4913040000000  0.4642160000000  0.5772340000000 1.0
C      1  0.4881950000000  0.5903810000000  0.4788160000000 1.0
C      1  0.5031860000000  0.4906640000000  0.5685150000000 1.0
C      1  0.5056140000000  0.5758450000000  0.5226430000000 1.0
C      1  0.5124970000000  0.5109800000000  0.4154260000000 1.0
C      1  0.5175560000000  0.4932460000000  0.4910510000000 1.0
END
