TITL C-214936-3776-3 0.0325220706292823 125000 -68.37960428327 0 0 11 (C1) n - 1
REM
REM in /rds/project/t2_vol4/rds-t2-cs072/BORA/CARBON/from-Arr/AIRSS/Generating-Clusters/GAP-ML-2020/Only-C1/SD-CG/HFTN-CG
REM
REM
REM
REM
REM
REM ./C.cell (11c1c37f851c82e70ff6c80c92926a4b)
REM AIRSS Version 0.9.1 bugfix July 2018 build 013d7b7c2542+ Fri, 06 Jul 2018 19:26:36 +0100
REM compiler GCC version 9.3.0
REM options -cpp -mtune=generic -march=x86-64 -g -O0
REM seed 913813317 -934773720 -873922258 647465546 -518255790 1608140106 -1740153015 -1181176285 -1471209706 -775481550 2007207351 741312515 1266340961 1317457147 1621144067 1910493872 -1168957031 -1344082773 1094971357 1596640118 -1614548290 1196805318 -1742590065 1922092416 -35338512 364457203 1576521998 809975850 624529374 1879704580 -275875515 -504451014 639696551
REM
CELL 1.54180   50.00000   50.00000   50.00000   90.00000   90.00000   90.00000
LATT -1
SFAC C  
C      1  0.5070560000000  0.4713570000000  0.5072080000000 1.0
C      1  0.5139270000000  0.5296280000000  0.5246560000000 1.0
C      1  0.4576680000000  0.5039040000000  0.5037120000000 1.0
C      1  0.5206560000000  0.4895990000000  0.4906330000000 1.0
C      1  0.4689800000000  0.5276220000000  0.5039840000000 1.0
C      1  0.5204200000000  0.5096840000000  0.5094340000000 1.0
C      1  0.5359220000000  0.4909360000000  0.4388620000000 1.0
C      1  0.4874990000000  0.4681480000000  0.5239970000000 1.0
C      1  0.4696550000000  0.4852430000000  0.5163320000000 1.0
C      1  0.4886680000000  0.5344880000000  0.5182130000000 1.0
C      1  0.5295500000000  0.4893920000000  0.4629700000000 1.0
END
