TITL C-2109089-3815-2 -0.079761689183657 125000 -687.339386955343 0 0 98 (C1) n - 1
REM
REM in /nfs/bkarasulu/CARBON/AIRSS/Generating-Clusters/GAP-ML-2020/Only-C1/SD-CG/HFTN-CG
REM
REM
REM
REM
REM
REM ./C.cell (11c1c37f851c82e70ff6c80c92926a4b)
REM
REM compiler GCC version 9.2.1 20190827 (Red Hat 9.2.1-1)
REM options -cpp -mtune=generic -march=x86-64 -g -O0 -fpre-include=/usr/include/finclude/math-vector-fortran.h
REM seed -968798279 -902251959 1437165245 664115755 -948948969 -344489333 2094248428 -265924940 106633572 -2145376828 -1272878252 -910852197 1157622922 -163634530 -1761994076 -1426198008 1709716476 1278178085 732131656 975559136 1258547840 405155267 2126840874 -41838706 -1508578882 -1704157121 1094282838 1337166232 1410259322 1858141749 -501739395 -312664106 1067171572
REM
CELL 1.54180   50.00000   50.00000   50.00000   90.00000   90.00000   90.00000
LATT -1
SFAC C  
C      1  0.5015380000000  0.4586170000000  0.5394290000000 1.0
C      1  0.5394840000000  0.4608240000000  0.4151710000000 1.0
C      1  0.5308650000000  0.5781160000000  0.5168290000000 1.0
C      1  0.5132010000000  0.5077060000000  0.5320010000000 1.0
C      1  0.4904000000000  0.4567760000000  0.5668740000000 1.0
C      1  0.5295500000000  0.5786730000000  0.4882420000000 1.0
C      1  0.4891230000000  0.5267590000000  0.5902570000000 1.0
C      1  0.5123450000000  0.4573730000000  0.4236830000000 1.0
C      1  0.5539180000000  0.4755260000000  0.5260230000000 1.0
C      1  0.4778440000000  0.4958810000000  0.5077030000000 1.0
C      1  0.4992740000000  0.4136690000000  0.4524720000000 1.0
C      1  0.5856510000000  0.5178870000000  0.4701550000000 1.0
C      1  0.5290420000000  0.5530530000000  0.4372670000000 1.0
C      1  0.5208140000000  0.4289160000000  0.5005250000000 1.0
C      1  0.4961560000000  0.4321160000000  0.4299600000000 1.0
C      1  0.5654820000000  0.5228720000000  0.4496330000000 1.0
C      1  0.4120710000000  0.4571780000000  0.4975380000000 1.0
C      1  0.5141010000000  0.4699470000000  0.4514610000000 1.0
C      1  0.5047090000000  0.5031040000000  0.5896360000000 1.0
C      1  0.4590980000000  0.5300050000000  0.4470980000000 1.0
C      1  0.5506840000000  0.5463470000000  0.4535560000000 1.0
C      1  0.4289130000000  0.5291880000000  0.5018170000000 1.0
C      1  0.5853850000000  0.5324690000000  0.4956110000000 1.0
C      1  0.4719840000000  0.4069550000000  0.4624990000000 1.0
C      1  0.4896860000000  0.4788990000000  0.4161550000000 1.0
C      1  0.4613550000000  0.4569870000000  0.5647260000000 1.0
C      1  0.5311630000000  0.5401720000000  0.5728810000000 1.0
C      1  0.4806010000000  0.5631390000000  0.4850610000000 1.0
C      1  0.4593470000000  0.5492230000000  0.4676520000000 1.0
C      1  0.4508570000000  0.4819420000000  0.4453950000000 1.0
C      1  0.4611860000000  0.4805060000000  0.5800750000000 1.0
C      1  0.4285450000000  0.4798670000000  0.5361830000000 1.0
C      1  0.4426670000000  0.5524980000000  0.5436390000000 1.0
C      1  0.5395100000000  0.4916880000000  0.4832980000000 1.0
C      1  0.4836880000000  0.5770530000000  0.5411720000000 1.0
C      1  0.4645730000000  0.4683040000000  0.4238000000000 1.0
C      1  0.5084200000000  0.4129740000000  0.4804700000000 1.0
C      1  0.5813330000000  0.5120550000000  0.5143630000000 1.0
C      1  0.4523210000000  0.4870750000000  0.4928580000000 1.0
C      1  0.4333240000000  0.5051280000000  0.5474310000000 1.0
C      1  0.5009670000000  0.4351780000000  0.5210240000000 1.0
C      1  0.4429410000000  0.5076430000000  0.4535990000000 1.0
C      1  0.4560470000000  0.5716610000000  0.5017680000000 1.0
C      1  0.4906210000000  0.4703660000000  0.4700370000000 1.0
C      1  0.5303380000000  0.5108510000000  0.5789910000000 1.0
C      1  0.4686450000000  0.4401490000000  0.4293030000000 1.0
C      1  0.4515830000000  0.4598440000000  0.5369590000000 1.0
C      1  0.5013240000000  0.5498170000000  0.4311700000000 1.0
C      1  0.5797980000000  0.4688950000000  0.4789910000000 1.0
C      1  0.4616350000000  0.5273090000000  0.5819370000000 1.0
C      1  0.5375050000000  0.4638140000000  0.4699940000000 1.0
C      1  0.4830470000000  0.5648800000000  0.5666570000000 1.0
C      1  0.5656970000000  0.4887690000000  0.5499540000000 1.0
C      1  0.4957350000000  0.4925720000000  0.4851280000000 1.0
C      1  0.4970190000000  0.5451840000000  0.5059480000000 1.0
C      1  0.5646860000000  0.4575060000000  0.5040570000000 1.0
C      1  0.4576830000000  0.5509880000000  0.5680350000000 1.0
C      1  0.5038260000000  0.5489020000000  0.5793800000000 1.0
C      1  0.4310150000000  0.5054880000000  0.4827530000000 1.0
C      1  0.5582600000000  0.4750930000000  0.4300000000000 1.0
C      1  0.5044260000000  0.5782810000000  0.4737130000000 1.0
C      1  0.4830900000000  0.5281500000000  0.4308710000000 1.0
C      1  0.4311670000000  0.5289670000000  0.5309530000000 1.0
C      1  0.5223320000000  0.5333780000000  0.4932310000000 1.0
C      1  0.4885340000000  0.5192680000000  0.5220990000000 1.0
C      1  0.5803770000000  0.5129770000000  0.5430930000000 1.0
C      1  0.5668510000000  0.5532110000000  0.5022840000000 1.0
C      1  0.4808710000000  0.4078340000000  0.4898070000000 1.0
C      1  0.5629240000000  0.4642920000000  0.4562700000000 1.0
C      1  0.4329320000000  0.4386240000000  0.4954690000000 1.0
C      1  0.4570630000000  0.5725340000000  0.5291080000000 1.0
C      1  0.4511930000000  0.4372710000000  0.5176430000000 1.0
C      1  0.4771660000000  0.4736430000000  0.5274110000000 1.0
C      1  0.5175550000000  0.5087800000000  0.4760990000000 1.0
C      1  0.4402330000000  0.5514140000000  0.4889590000000 1.0
C      1  0.5050740000000  0.5700580000000  0.5243050000000 1.0
C      1  0.4446470000000  0.4427690000000  0.4700020000000 1.0
C      1  0.5530440000000  0.5503640000000  0.5547240000000 1.0
C      1  0.4902090000000  0.4794750000000  0.5846640000000 1.0
C      1  0.4601580000000  0.4682670000000  0.4703940000000 1.0
C      1  0.4976060000000  0.5046680000000  0.4251880000000 1.0
C      1  0.4111760000000  0.4837540000000  0.4882860000000 1.0
C      1  0.4546120000000  0.4259430000000  0.4504550000000 1.0
C      1  0.5531700000000  0.5627490000000  0.5265830000000 1.0
C      1  0.5933820000000  0.4909230000000  0.4729080000000 1.0
C      1  0.5534060000000  0.4990790000000  0.5080150000000 1.0
C      1  0.5498840000000  0.5017140000000  0.4370540000000 1.0
C      1  0.5202180000000  0.4998210000000  0.4446530000000 1.0
C      1  0.4758950000000  0.4244730000000  0.5125890000000 1.0
C      1  0.5092870000000  0.5707620000000  0.4472580000000 1.0
C      1  0.4486590000000  0.5043960000000  0.5719210000000 1.0
C      1  0.5415420000000  0.4896900000000  0.5639780000000 1.0
C      1  0.5338630000000  0.5192820000000  0.5170780000000 1.0
C      1  0.4091190000000  0.4766490000000  0.5164720000000 1.0
C      1  0.5427250000000  0.4444030000000  0.4918860000000 1.0
C      1  0.5762240000000  0.5355660000000  0.5567300000000 1.0
C      1  0.5461760000000  0.5556760000000  0.4815190000000 1.0
C      1  0.5246310000000  0.4785230000000  0.5400450000000 1.0
END
