TITL C-21069-1519-7 89.0738513318928 125000 -618.609591043603 0 0 90 (C1) n - 1
REM
REM in /rds/project/t2_vol4/rds-t2-cs072/BORA/CARBON/from-Arr/AIRSS/Generating-Clusters/GAP-ML-2020/Only-C1/SD-CG/HFTN-CG
REM
REM
REM
REM
REM
REM ./C.cell (11c1c37f851c82e70ff6c80c92926a4b)
REM AIRSS Version 0.9.1 bugfix July 2018 build 013d7b7c2542+ Fri, 06 Jul 2018 19:26:36 +0100
REM compiler GCC version 9.3.0
REM options -cpp -mtune=generic -march=x86-64 -g -O0
REM seed -1405871264 -1855627348 -1026954656 -539470375 1038011043 937385371 -1761168963 -1640536068 401151727 -146476626 1573134958 -580929068 1139734180 54037918 -1601431363 -1835049491 -344143044 -2059337706 -931392683 -1480696435 1009707907 768212432 -1610406766 1636114679 9349233 -984646836 -608720893 499403262 -1115074791 -2096006057 1595718935 75245793 1780117910
REM
CELL 1.54180   50.00000   50.00000   50.00000   90.00000   90.00000   90.00000
LATT -1
SFAC C  
C      1  0.4777070000000  0.4522900000000  0.5546850000000 1.0
C      1  0.5394480000000  0.4978470000000  0.5322390000000 1.0
C      1  0.4880580000000  0.4707510000000  0.4979590000000 1.0
C      1  0.5672800000000  0.5474300000000  0.4997900000000 1.0
C      1  0.5364080000000  0.4815330000000  0.4448240000000 1.0
C      1  0.5064850000000  0.5889710000000  0.5205730000000 1.0
C      1  0.5628590000000  0.4757780000000  0.4944940000000 1.0
C      1  0.5250660000000  0.4639670000000  0.5617110000000 1.0
C      1  0.5185880000000  0.5047120000000  0.4827720000000 1.0
C      1  0.4967460000000  0.4595070000000  0.5736720000000 1.0
C      1  0.4765930000000  0.5200860000000  0.4943110000000 1.0
C      1  0.4254480000000  0.5213410000000  0.4713960000000 1.0
C      1  0.5036620000000  0.4157580000000  0.4964820000000 1.0
C      1  0.4329930000000  0.4826540000000  0.4469720000000 1.0
C      1  0.5595190000000  0.5429410000000  0.5282340000000 1.0
C      1  0.4481700000000  0.5444240000000  0.5346190000000 1.0
C      1  0.5543780000000  0.5081890000000  0.5560630000000 1.0
C      1  0.5285640000000  0.4201540000000  0.4828080000000 1.0
C      1  0.4879290000000  0.4732560000000  0.4690560000000 1.0
C      1  0.4741440000000  0.4535020000000  0.4491540000000 1.0
C      1  0.4650180000000  0.5136910000000  0.4140380000000 1.0
C      1  0.5238090000000  0.5566890000000  0.5641500000000 1.0
C      1  0.4388590000000  0.4485780000000  0.4819080000000 1.0
C      1  0.5269460000000  0.5778730000000  0.4765340000000 1.0
C      1  0.5448150000000  0.5607100000000  0.5474590000000 1.0
C      1  0.5038330000000  0.5847840000000  0.4940660000000 1.0
C      1  0.4606460000000  0.5569750000000  0.4646240000000 1.0
C      1  0.5445350000000  0.5549430000000  0.4819650000000 1.0
C      1  0.5082310000000  0.4276300000000  0.5236900000000 1.0
C      1  0.4267190000000  0.5270860000000  0.5419120000000 1.0
C      1  0.4836730000000  0.5346150000000  0.4205260000000 1.0
C      1  0.5143830000000  0.4980680000000  0.4325430000000 1.0
C      1  0.5243000000000  0.5453710000000  0.4418500000000 1.0
C      1  0.4446880000000  0.5266000000000  0.4290140000000 1.0
C      1  0.4277050000000  0.4740600000000  0.4737530000000 1.0
C      1  0.5081760000000  0.5421110000000  0.5242800000000 1.0
C      1  0.5917270000000  0.5075670000000  0.5263490000000 1.0
C      1  0.5756820000000  0.5225210000000  0.5423790000000 1.0
C      1  0.4504790000000  0.5320790000000  0.5069830000000 1.0
C      1  0.4976660000000  0.4785270000000  0.4182160000000 1.0
C      1  0.4918050000000  0.4977900000000  0.5353450000000 1.0
C      1  0.5262990000000  0.4853280000000  0.5824010000000 1.0
C      1  0.5835620000000  0.4991160000000  0.5015620000000 1.0
C      1  0.4946140000000  0.5263810000000  0.5447820000000 1.0
C      1  0.4615380000000  0.4349220000000  0.4693090000000 1.0
C      1  0.5167050000000  0.5677820000000  0.5362270000000 1.0
C      1  0.4632780000000  0.4666030000000  0.5138150000000 1.0
C      1  0.5460160000000  0.4521790000000  0.5425670000000 1.0
C      1  0.5490490000000  0.4273460000000  0.5025390000000 1.0
C      1  0.4371740000000  0.5106300000000  0.5630350000000 1.0
C      1  0.5347840000000  0.5111100000000  0.5754280000000 1.0
C      1  0.5478280000000  0.5403530000000  0.4566180000000 1.0
C      1  0.5105920000000  0.5273710000000  0.4250340000000 1.0
C      1  0.5115150000000  0.5292340000000  0.5703400000000 1.0
C      1  0.4231380000000  0.4989790000000  0.4895610000000 1.0
C      1  0.4824530000000  0.4300560000000  0.5374730000000 1.0
C      1  0.4960320000000  0.5423750000000  0.4957810000000 1.0
C      1  0.4307110000000  0.5076630000000  0.5175980000000 1.0
C      1  0.5549850000000  0.4738310000000  0.5239490000000 1.0
C      1  0.5602870000000  0.4476490000000  0.4851980000000 1.0
C      1  0.4624300000000  0.5480310000000  0.4377060000000 1.0
C      1  0.5465140000000  0.4927300000000  0.4715860000000 1.0
C      1  0.5277540000000  0.4548760000000  0.4436910000000 1.0
C      1  0.4948230000000  0.4988170000000  0.5053690000000 1.0
C      1  0.5342480000000  0.5259510000000  0.5195430000000 1.0
C      1  0.5621510000000  0.5169490000000  0.4645940000000 1.0
C      1  0.5105940000000  0.5654850000000  0.4565410000000 1.0
C      1  0.4756870000000  0.4197130000000  0.4901310000000 1.0
C      1  0.5000970000000  0.4545340000000  0.4331170000000 1.0
C      1  0.5094450000000  0.4598560000000  0.5148890000000 1.0
C      1  0.5378240000000  0.4296600000000  0.5282910000000 1.0
C      1  0.4702530000000  0.4866690000000  0.4164240000000 1.0
C      1  0.5404720000000  0.4391820000000  0.4637710000000 1.0
C      1  0.4544830000000  0.4702610000000  0.4334270000000 1.0
C      1  0.4444130000000  0.4454650000000  0.5100700000000 1.0
C      1  0.4290700000000  0.5113170000000  0.4454570000000 1.0
C      1  0.4402380000000  0.5436430000000  0.4811250000000 1.0
C      1  0.4980320000000  0.4856860000000  0.5872530000000 1.0
C      1  0.4872120000000  0.5123460000000  0.5846890000000 1.0
C      1  0.4673040000000  0.4778780000000  0.5398660000000 1.0
C      1  0.4740670000000  0.5099650000000  0.4667520000000 1.0
C      1  0.4612440000000  0.5221860000000  0.5754620000000 1.0
C      1  0.5238730000000  0.5322080000000  0.4911650000000 1.0
C      1  0.5774510000000  0.5233400000000  0.4872370000000 1.0
C      1  0.5155350000000  0.4806690000000  0.5368950000000 1.0
C      1  0.4637680000000  0.4263900000000  0.5157530000000 1.0
C      1  0.4691400000000  0.5399510000000  0.5537670000000 1.0
C      1  0.4874920000000  0.5643180000000  0.4763860000000 1.0
C      1  0.4406790000000  0.4910840000000  0.5414870000000 1.0
C      1  0.4994030000000  0.4985740000000  0.4609450000000 1.0
END
