TITL C-2109086-2930-11 -35.971529245206 125000 -583.917713386014 0 0 82 (C1) n - 1
REM
REM in /nfs/bkarasulu/CARBON/AIRSS/Generating-Clusters/GAP-ML-2020/Only-C1/SD-CG/HFTN-CG
REM
REM
REM
REM
REM
REM ./C.cell (11c1c37f851c82e70ff6c80c92926a4b)
REM
REM compiler GCC version 9.2.1 20190827 (Red Hat 9.2.1-1)
REM options -cpp -mtune=generic -march=x86-64 -g -O0 -fpre-include=/usr/include/finclude/math-vector-fortran.h
REM seed 2107636934 605339602 678189013 -1636815472 -1374275317 1412840450 -1402124438 46985280 -1499428093 749834737 1619860278 -378075848 1628255041 -1000016361 2053737816 -825732199 906234755 445132048 -596426152 1543280670 348467145 1317376430 -2128322349 -1595021713 1769348728 -7844965 -672307851 -608675081 1819112926 1664407009 2001014362 359994011 -417430692
REM
CELL 1.54180   50.00000   50.00000   50.00000   90.00000   90.00000   90.00000
LATT -1
SFAC C  
C      1  0.4366340000000  0.5420210000000  0.5394350000000 1.0
C      1  0.5810950000000  0.4993950000000  0.5134690000000 1.0
C      1  0.4479100000000  0.4400060000000  0.5056830000000 1.0
C      1  0.4530980000000  0.5750030000000  0.5079390000000 1.0
C      1  0.5161120000000  0.4877270000000  0.5750360000000 1.0
C      1  0.5259030000000  0.5154640000000  0.5724400000000 1.0
C      1  0.5021140000000  0.4977240000000  0.4233090000000 1.0
C      1  0.5264120000000  0.5128770000000  0.4267570000000 1.0
C      1  0.5246220000000  0.5644100000000  0.4802240000000 1.0
C      1  0.5094630000000  0.4679860000000  0.5204000000000 1.0
C      1  0.4796890000000  0.5323200000000  0.5150810000000 1.0
C      1  0.5206990000000  0.5086470000000  0.5077180000000 1.0
C      1  0.5103560000000  0.4380210000000  0.5291060000000 1.0
C      1  0.5369020000000  0.5506140000000  0.4578420000000 1.0
C      1  0.4485290000000  0.5266720000000  0.5158110000000 1.0
C      1  0.4419850000000  0.5628500000000  0.4844550000000 1.0
C      1  0.4813440000000  0.5756070000000  0.5058850000000 1.0
C      1  0.4709800000000  0.4225560000000  0.5053250000000 1.0
C      1  0.5114870000000  0.4235570000000  0.4795600000000 1.0
C      1  0.4954490000000  0.5646250000000  0.4805170000000 1.0
C      1  0.5530190000000  0.4434390000000  0.4747130000000 1.0
C      1  0.4806700000000  0.5601860000000  0.4544180000000 1.0
C      1  0.5665950000000  0.5117200000000  0.4550740000000 1.0
C      1  0.5417930000000  0.5595370000000  0.5033490000000 1.0
C      1  0.4380960000000  0.5680740000000  0.5321710000000 1.0
C      1  0.4421310000000  0.4968310000000  0.5141010000000 1.0
C      1  0.4733610000000  0.4611940000000  0.4416200000000 1.0
C      1  0.5567460000000  0.5346260000000  0.5395590000000 1.0
C      1  0.4373160000000  0.4740610000000  0.4684140000000 1.0
C      1  0.4298170000000  0.4941800000000  0.4861900000000 1.0
C      1  0.5118350000000  0.5558520000000  0.5458030000000 1.0
C      1  0.4308120000000  0.4927870000000  0.5414290000000 1.0
C      1  0.5285610000000  0.4371120000000  0.4606470000000 1.0
C      1  0.4815000000000  0.5170800000000  0.4276000000000 1.0
C      1  0.4909890000000  0.5591990000000  0.5271150000000 1.0
C      1  0.4810770000000  0.4326520000000  0.5299490000000 1.0
C      1  0.4595780000000  0.4824700000000  0.5733510000000 1.0
C      1  0.5497350000000  0.4361230000000  0.5027100000000 1.0
C      1  0.4991870000000  0.4695730000000  0.4308860000000 1.0
C      1  0.5056790000000  0.5354800000000  0.5675550000000 1.0
C      1  0.4883040000000  0.5329630000000  0.4871150000000 1.0
C      1  0.5238950000000  0.4567050000000  0.4390260000000 1.0
C      1  0.5325060000000  0.4840040000000  0.5126770000000 1.0
C      1  0.4532820000000  0.5549130000000  0.4592490000000 1.0
C      1  0.5721980000000  0.5267590000000  0.5168720000000 1.0
C      1  0.5494740000000  0.5003290000000  0.4351670000000 1.0
C      1  0.4906260000000  0.4872630000000  0.5359200000000 1.0
C      1  0.4340180000000  0.5188820000000  0.5564840000000 1.0
C      1  0.5477630000000  0.4723500000000  0.4392110000000 1.0
C      1  0.5651600000000  0.4654910000000  0.4607160000000 1.0
C      1  0.5071280000000  0.5121510000000  0.4828150000000 1.0
C      1  0.5211680000000  0.5393360000000  0.4368750000000 1.0
C      1  0.4987700000000  0.5122850000000  0.5258580000000 1.0
C      1  0.4274130000000  0.5195150000000  0.4740680000000 1.0
C      1  0.4457650000000  0.4492270000000  0.4786220000000 1.0
C      1  0.4677170000000  0.4407860000000  0.4621300000000 1.0
C      1  0.4422390000000  0.5287970000000  0.4520070000000 1.0
C      1  0.4975580000000  0.4874630000000  0.4793050000000 1.0
C      1  0.4821520000000  0.5193200000000  0.5722080000000 1.0
C      1  0.4888150000000  0.4701250000000  0.4980140000000 1.0
C      1  0.4530530000000  0.4810150000000  0.4448870000000 1.0
C      1  0.5798270000000  0.4896410000000  0.4686030000000 1.0
C      1  0.4932000000000  0.5425520000000  0.4363220000000 1.0
C      1  0.5339440000000  0.4476220000000  0.5457590000000 1.0
C      1  0.5617350000000  0.4800520000000  0.5268910000000 1.0
C      1  0.4677460000000  0.4786140000000  0.5182960000000 1.0
C      1  0.5956860000000  0.4934070000000  0.4908260000000 1.0
C      1  0.5563710000000  0.4876620000000  0.5542990000000 1.0
C      1  0.4576890000000  0.4533270000000  0.5312050000000 1.0
C      1  0.5605930000000  0.5368240000000  0.4668190000000 1.0
C      1  0.4541850000000  0.5125650000000  0.5761600000000 1.0
C      1  0.5508980000000  0.5154610000000  0.5594790000000 1.0
C      1  0.5638080000000  0.5431520000000  0.4947520000000 1.0
C      1  0.4320330000000  0.5386120000000  0.4936980000000 1.0
C      1  0.5239760000000  0.4247690000000  0.5052630000000 1.0
C      1  0.5372090000000  0.5544610000000  0.5319650000000 1.0
C      1  0.5353260000000  0.4701890000000  0.5636650000000 1.0
C      1  0.4565780000000  0.5087200000000  0.4379820000000 1.0
C      1  0.4439230000000  0.4698380000000  0.5532670000000 1.0
C      1  0.5558040000000  0.4502650000000  0.5269020000000 1.0
C      1  0.4833270000000  0.4232830000000  0.4792040000000 1.0
C      1  0.4878560000000  0.4890480000000  0.5667730000000 1.0
END
