TITL C-211900-466-2 -0.00891160169185944 125000 -196.914919259932 0 0 30 (C1) n - 1
REM
REM in /rds/project/t2_vol4/rds-t2-cs072/BORA/CARBON/from-Arr/AIRSS/Generating-Clusters/GAP-ML-2020/Only-C1/SD-CG/HFTN-CG
REM
REM
REM
REM
REM
REM ./C.cell (11c1c37f851c82e70ff6c80c92926a4b)
REM AIRSS Version 0.9.1 bugfix July 2018 build 013d7b7c2542+ Fri, 06 Jul 2018 19:26:36 +0100
REM compiler GCC version 9.3.0
REM options -cpp -mtune=generic -march=x86-64 -g -O0
REM seed -1289766787 1328115635 1991797487 -2101419465 1777965968 1234050348 -1614164322 535190351 -62761811 -1771578600 -844844914 791483419 -1129279389 -1156194057 -2021419806 303385782 111494391 1721678331 -912118731 1350321598 -1807936816 1728250010 1376946230 1372085516 1316212197 1622867596 1955964694 -755346712 194989775 979404684 -1141863807 -1431464295 -1154572494
REM
CELL 1.54180   50.00000   50.00000   50.00000   90.00000   90.00000   90.00000
LATT -1
SFAC C  
C      1  0.4791100000000  0.5206950000000  0.4335680000000 1.0
C      1  0.5225350000000  0.5171540000000  0.4401680000000 1.0
C      1  0.4483270000000  0.5070990000000  0.4737340000000 1.0
C      1  0.5005250000000  0.4898060000000  0.5594960000000 1.0
C      1  0.5236070000000  0.4532680000000  0.4712050000000 1.0
C      1  0.4732460000000  0.5304530000000  0.5167880000000 1.0
C      1  0.5288700000000  0.5025780000000  0.4613990000000 1.0
C      1  0.5408260000000  0.5157210000000  0.4844420000000 1.0
C      1  0.4646960000000  0.5125620000000  0.5405010000000 1.0
C      1  0.5269940000000  0.5372580000000  0.5006550000000 1.0
C      1  0.4386140000000  0.4802620000000  0.4747060000000 1.0
C      1  0.4965320000000  0.4631760000000  0.5507380000000 1.0
C      1  0.5227500000000  0.5055970000000  0.5511810000000 1.0
C      1  0.5181510000000  0.5313480000000  0.5390720000000 1.0
C      1  0.5487820000000  0.4975700000000  0.5443220000000 1.0
C      1  0.5122550000000  0.4775880000000  0.4643640000000 1.0
C      1  0.4823280000000  0.4590420000000  0.5302670000000 1.0
C      1  0.5368030000000  0.4324960000000  0.4768220000000 1.0
C      1  0.4842800000000  0.4812510000000  0.4638080000000 1.0
C      1  0.5589020000000  0.5160830000000  0.5261910000000 1.0
C      1  0.5038370000000  0.5257860000000  0.4245720000000 1.0
C      1  0.4633230000000  0.4697870000000  0.4825000000000 1.0
C      1  0.5620740000000  0.5068900000000  0.5004730000000 1.0
C      1  0.4648570000000  0.4698550000000  0.5117470000000 1.0
C      1  0.4528720000000  0.4952940000000  0.5206740000000 1.0
C      1  0.4545360000000  0.5161850000000  0.4997830000000 1.0
C      1  0.5417480000000  0.5399990000000  0.5248740000000 1.0
C      1  0.4767770000000  0.5050710000000  0.5626720000000 1.0
C      1  0.5011670000000  0.5351810000000  0.5158620000000 1.0
C      1  0.4706760000000  0.5049440000000  0.4534150000000 1.0
END
