TITL C-2109096-2936-9 -98.0993364596249 125000 -613.829640908074 0 0 89 (C1) n - 1
REM
REM in /nfs/bkarasulu/CARBON/AIRSS/Generating-Clusters/GAP-ML-2020/Only-C1/SD-CG/HFTN-CG
REM
REM
REM
REM
REM
REM ./C.cell (11c1c37f851c82e70ff6c80c92926a4b)
REM
REM compiler GCC version 9.2.1 20190827 (Red Hat 9.2.1-1)
REM options -cpp -mtune=generic -march=x86-64 -g -O0 -fpre-include=/usr/include/finclude/math-vector-fortran.h
REM seed 2086313234 514292981 -772729691 -788989649 -1159146216 -1369315613 676884972 -1242716190 -251147440 -1916765501 448685699 -770481839 1682169980 1113747466 2037867088 951285500 542736293 -1896974829 -1645951422 1858487227 -1155788405 948181067 1579191700 1813895859 -870067683 -955665864 258364208 -330858238 1561690862 480835899 -1840107139 -1488409921 -177796473
REM
CELL 1.54180   50.00000   50.00000   50.00000   90.00000   90.00000   90.00000
LATT -1
SFAC C  
C      1  0.4745750000000  0.4827770000000  0.4222090000000 1.0
C      1  0.5098740000000  0.4391620000000  0.5599920000000 1.0
C      1  0.5149040000000  0.5642420000000  0.5244050000000 1.0
C      1  0.5485780000000  0.5031900000000  0.4789880000000 1.0
C      1  0.5392920000000  0.4742620000000  0.5515720000000 1.0
C      1  0.5341690000000  0.5053190000000  0.5503640000000 1.0
C      1  0.4288790000000  0.5253920000000  0.4629440000000 1.0
C      1  0.5869200000000  0.5040450000000  0.5299350000000 1.0
C      1  0.5587710000000  0.5180770000000  0.4395220000000 1.0
C      1  0.4416600000000  0.5376750000000  0.4856930000000 1.0
C      1  0.5228760000000  0.5151970000000  0.4740790000000 1.0
C      1  0.4672140000000  0.5232480000000  0.4898090000000 1.0
C      1  0.4994540000000  0.4178060000000  0.4893300000000 1.0
C      1  0.4389320000000  0.5613280000000  0.5336660000000 1.0
C      1  0.5809010000000  0.4797070000000  0.5141700000000 1.0
C      1  0.4786600000000  0.4609080000000  0.4904200000000 1.0
C      1  0.5239980000000  0.4776060000000  0.4263090000000 1.0
C      1  0.5139400000000  0.5551200000000  0.5701420000000 1.0
C      1  0.4883950000000  0.5422550000000  0.4961710000000 1.0
C      1  0.4691580000000  0.5524340000000  0.4458530000000 1.0
C      1  0.4468820000000  0.4385010000000  0.4747320000000 1.0
C      1  0.4685530000000  0.4577810000000  0.4332820000000 1.0
C      1  0.4897550000000  0.4439290000000  0.4460940000000 1.0
C      1  0.4491700000000  0.4581010000000  0.4538810000000 1.0
C      1  0.5165640000000  0.5304810000000  0.4979640000000 1.0
C      1  0.4871130000000  0.4747860000000  0.5354660000000 1.0
C      1  0.4403970000000  0.5354640000000  0.5391100000000 1.0
C      1  0.5049870000000  0.4824130000000  0.5814140000000 1.0
C      1  0.4694460000000  0.5080570000000  0.5155310000000 1.0
C      1  0.5212310000000  0.4626320000000  0.5700220000000 1.0
C      1  0.5733980000000  0.5100160000000  0.4643670000000 1.0
C      1  0.4913550000000  0.5204090000000  0.4221170000000 1.0
C      1  0.4429660000000  0.4617820000000  0.5238740000000 1.0
C      1  0.5463810000000  0.4931890000000  0.5050860000000 1.0
C      1  0.4789890000000  0.4345720000000  0.4741650000000 1.0
C      1  0.5338830000000  0.4422380000000  0.4625980000000 1.0
C      1  0.4652840000000  0.4547890000000  0.5694540000000 1.0
C      1  0.4821170000000  0.4347430000000  0.5591980000000 1.0
C      1  0.4751060000000  0.5240760000000  0.5667910000000 1.0
C      1  0.5771000000000  0.5405040000000  0.5032330000000 1.0
C      1  0.5230390000000  0.5073760000000  0.5199700000000 1.0
C      1  0.4572260000000  0.5702190000000  0.5154600000000 1.0
C      1  0.5216180000000  0.4208500000000  0.4743220000000 1.0
C      1  0.5019140000000  0.4968990000000  0.4725710000000 1.0
C      1  0.5582930000000  0.5577700000000  0.4898910000000 1.0
C      1  0.5157030000000  0.5693660000000  0.4712120000000 1.0
C      1  0.5427140000000  0.4542160000000  0.5306480000000 1.0
C      1  0.5017450000000  0.4779070000000  0.4926480000000 1.0
C      1  0.5164640000000  0.4531210000000  0.4419360000000 1.0
C      1  0.5562800000000  0.4647570000000  0.5063490000000 1.0
C      1  0.4304600000000  0.5081470000000  0.5395190000000 1.0
C      1  0.4328330000000  0.4537200000000  0.4961820000000 1.0
C      1  0.5548920000000  0.4573670000000  0.4756410000000 1.0
C      1  0.5724610000000  0.5296680000000  0.5301080000000 1.0
C      1  0.4771450000000  0.4774370000000  0.5826570000000 1.0
C      1  0.5491920000000  0.5313030000000  0.5456190000000 1.0
C      1  0.4706360000000  0.4545180000000  0.5192160000000 1.0
C      1  0.5011340000000  0.5317430000000  0.5756180000000 1.0
C      1  0.4493830000000  0.5313780000000  0.4418000000000 1.0
C      1  0.5224460000000  0.4334790000000  0.5349500000000 1.0
C      1  0.4588950000000  0.4788070000000  0.4743480000000 1.0
C      1  0.4320720000000  0.4837890000000  0.4885130000000 1.0
C      1  0.4954760000000  0.5461460000000  0.4335520000000 1.0
C      1  0.5010080000000  0.4928730000000  0.4163770000000 1.0
C      1  0.4780390000000  0.4288540000000  0.5313850000000 1.0
C      1  0.4837030000000  0.5550270000000  0.5223210000000 1.0
C      1  0.5152290000000  0.5070670000000  0.5729480000000 1.0
C      1  0.4697990000000  0.5309140000000  0.5379580000000 1.0
C      1  0.4474620000000  0.5656190000000  0.4884970000000 1.0
C      1  0.5901350000000  0.5202670000000  0.4860490000000 1.0
C      1  0.4428900000000  0.4642220000000  0.5540460000000 1.0
C      1  0.4967140000000  0.4930990000000  0.5173140000000 1.0
C      1  0.5295720000000  0.5599590000000  0.4975240000000 1.0
C      1  0.4407470000000  0.4924790000000  0.5168250000000 1.0
C      1  0.5475050000000  0.5454950000000  0.4428850000000 1.0
C      1  0.5019960000000  0.4206090000000  0.5180010000000 1.0
C      1  0.4183470000000  0.5018270000000  0.4707160000000 1.0
C      1  0.5203210000000  0.5565090000000  0.4456740000000 1.0
C      1  0.4650060000000  0.5708190000000  0.4667570000000 1.0
C      1  0.5290500000000  0.5542850000000  0.5473900000000 1.0
C      1  0.5971940000000  0.4991520000000  0.5039210000000 1.0
C      1  0.4618730000000  0.5007100000000  0.5762220000000 1.0
C      1  0.5602040000000  0.4808650000000  0.4604720000000 1.0
C      1  0.4737870000000  0.5039190000000  0.4677710000000 1.0
C      1  0.5620120000000  0.5584480000000  0.4627040000000 1.0
C      1  0.4893780000000  0.5669280000000  0.4785490000000 1.0
C      1  0.5479310000000  0.4905680000000  0.4352850000000 1.0
C      1  0.4667400000000  0.5093870000000  0.4349330000000 1.0
C      1  0.4395050000000  0.4919040000000  0.5607940000000 1.0
END
