TITL C-21824-6260-7 -0.336481730982482 125000 -766.518617755057 0 0 108 (C1) n - 1
REM
REM in /rds/project/t2_vol4/rds-t2-cs072/BORA/CARBON/from-Arr/AIRSS/Generating-Clusters/GAP-ML-2020/Only-C1/SD-CG/HFTN-CG
REM
REM
REM
REM
REM
REM ./C.cell (11c1c37f851c82e70ff6c80c92926a4b)
REM AIRSS Version 0.9.1 bugfix July 2018 build 013d7b7c2542+ Fri, 06 Jul 2018 19:26:36 +0100
REM compiler GCC version 9.3.0
REM options -cpp -mtune=generic -march=x86-64 -g -O0
REM seed 443828611 1329339121 -1223131901 -518576848 -1579343552 -2051547236 973678140 -870932012 -1732807363 2004454879 -1468442259 -2134795059 330070966 -135557130 -1009730010 -1210890548 -1716374986 926745416 -1390669512 -1481014331 1342651976 -1524518204 1611022818 551292159 1177926246 -1464919312 -265164333 671018070 1139259994 397621143 -432178218 -1418795932 194903234
REM
CELL 1.54180   50.00000   50.00000   50.00000   90.00000   90.00000   90.00000
LATT -1
SFAC C  
C      1  0.4938900000000  0.5711400000000  0.4490130000000 1.0
C      1  0.5178340000000  0.4681380000000  0.4715880000000 1.0
C      1  0.5293240000000  0.4830130000000  0.4912330000000 1.0
C      1  0.5216790000000  0.4860050000000  0.4125860000000 1.0
C      1  0.4289990000000  0.5376260000000  0.5305330000000 1.0
C      1  0.5458170000000  0.4848250000000  0.4263730000000 1.0
C      1  0.5729810000000  0.4551190000000  0.5058730000000 1.0
C      1  0.5889520000000  0.4666740000000  0.4841010000000 1.0
C      1  0.5200540000000  0.5138350000000  0.4601770000000 1.0
C      1  0.4927670000000  0.4721980000000  0.4829650000000 1.0
C      1  0.4472100000000  0.5217090000000  0.5499200000000 1.0
C      1  0.5316520000000  0.5297710000000  0.5858640000000 1.0
C      1  0.4585240000000  0.4556030000000  0.4389980000000 1.0
C      1  0.5018420000000  0.4585760000000  0.5779450000000 1.0
C      1  0.4831420000000  0.5819470000000  0.5344010000000 1.0
C      1  0.4739060000000  0.4611820000000  0.5756440000000 1.0
C      1  0.4123650000000  0.4926470000000  0.5140210000000 1.0
C      1  0.4844870000000  0.4701480000000  0.5097040000000 1.0
C      1  0.4304950000000  0.4711800000000  0.5225610000000 1.0
C      1  0.4450800000000  0.4948070000000  0.5638120000000 1.0
C      1  0.4969600000000  0.5052840000000  0.5350620000000 1.0
C      1  0.4498020000000  0.5662680000000  0.4717110000000 1.0
C      1  0.4494500000000  0.4405730000000  0.4620530000000 1.0
C      1  0.6166970000000  0.4775780000000  0.4912430000000 1.0
C      1  0.4859710000000  0.4497810000000  0.4309520000000 1.0
C      1  0.5405680000000  0.5575150000000  0.4603630000000 1.0
C      1  0.4656500000000  0.4247280000000  0.4804000000000 1.0
C      1  0.5634230000000  0.5509660000000  0.4773360000000 1.0
C      1  0.5618580000000  0.5099040000000  0.4923320000000 1.0
C      1  0.5123520000000  0.5362150000000  0.4207240000000 1.0
C      1  0.4452230000000  0.5222050000000  0.4885080000000 1.0
C      1  0.4585380000000  0.4850000000000  0.5123630000000 1.0
C      1  0.5326780000000  0.5104260000000  0.4869500000000 1.0
C      1  0.4688010000000  0.5294110000000  0.5047270000000 1.0
C      1  0.4250750000000  0.4932670000000  0.4481600000000 1.0
C      1  0.4514000000000  0.4934940000000  0.4846530000000 1.0
C      1  0.4834810000000  0.4970130000000  0.4098910000000 1.0
C      1  0.5142150000000  0.4138870000000  0.4898750000000 1.0
C      1  0.5388180000000  0.4255430000000  0.4804380000000 1.0
C      1  0.5238310000000  0.5669900000000  0.5612590000000 1.0
C      1  0.4913580000000  0.5314670000000  0.4894070000000 1.0
C      1  0.5613170000000  0.5353450000000  0.5513400000000 1.0
C      1  0.4286020000000  0.4511260000000  0.4778300000000 1.0
C      1  0.4196460000000  0.5210200000000  0.4572440000000 1.0
C      1  0.5172070000000  0.5749140000000  0.4667980000000 1.0
C      1  0.4771260000000  0.4914560000000  0.4706490000000 1.0
C      1  0.5258480000000  0.5851340000000  0.5170240000000 1.0
C      1  0.4326750000000  0.4461570000000  0.5054520000000 1.0
C      1  0.4805750000000  0.5845910000000  0.5059770000000 1.0
C      1  0.4206080000000  0.5218880000000  0.5073280000000 1.0
C      1  0.5719930000000  0.5303930000000  0.5249510000000 1.0
C      1  0.5145200000000  0.4163070000000  0.5198420000000 1.0
C      1  0.5758450000000  0.5016360000000  0.5165860000000 1.0
C      1  0.4668120000000  0.4884280000000  0.5802660000000 1.0
C      1  0.5310860000000  0.4723860000000  0.5172080000000 1.0
C      1  0.5139870000000  0.4847070000000  0.5831450000000 1.0
C      1  0.5083560000000  0.5852130000000  0.4935790000000 1.0
C      1  0.4638540000000  0.5423310000000  0.5638570000000 1.0
C      1  0.4460550000000  0.4832070000000  0.4325920000000 1.0
C      1  0.5121610000000  0.5474980000000  0.5798600000000 1.0
C      1  0.5124260000000  0.4379560000000  0.5610660000000 1.0
C      1  0.4575150000000  0.4492040000000  0.5554110000000 1.0
C      1  0.4384800000000  0.4698250000000  0.5502800000000 1.0
C      1  0.4891510000000  0.5490690000000  0.4315410000000 1.0
C      1  0.5046050000000  0.4801100000000  0.5264630000000 1.0
C      1  0.4905790000000  0.5160360000000  0.4647170000000 1.0
C      1  0.5511060000000  0.5720160000000  0.5231060000000 1.0
C      1  0.5554200000000  0.5109290000000  0.4344390000000 1.0
C      1  0.5494260000000  0.5611730000000  0.5500560000000 1.0
C      1  0.4965010000000  0.4712560000000  0.4153930000000 1.0
C      1  0.5299190000000  0.4427110000000  0.5148650000000 1.0
C      1  0.4446680000000  0.5379310000000  0.4607260000000 1.0
C      1  0.5758150000000  0.4762860000000  0.4594800000000 1.0
C      1  0.4549170000000  0.4290790000000  0.5087520000000 1.0
C      1  0.5659330000000  0.5538030000000  0.5070440000000 1.0
C      1  0.5498420000000  0.5163300000000  0.5711740000000 1.0
C      1  0.5082300000000  0.5114470000000  0.4087790000000 1.0
C      1  0.4216290000000  0.4780560000000  0.4726020000000 1.0
C      1  0.5528060000000  0.4671770000000  0.5548060000000 1.0
C      1  0.4927980000000  0.4192480000000  0.4713440000000 1.0
C      1  0.4618770000000  0.5056970000000  0.4241810000000 1.0
C      1  0.4429130000000  0.5623110000000  0.5253160000000 1.0
C      1  0.5413350000000  0.4881980000000  0.5719000000000 1.0
C      1  0.5104560000000  0.5828750000000  0.5413120000000 1.0
C      1  0.4675950000000  0.5298340000000  0.4416830000000 1.0
C      1  0.5318250000000  0.4445670000000  0.4583130000000 1.0
C      1  0.5562660000000  0.4317370000000  0.5036180000000 1.0
C      1  0.5155450000000  0.5282780000000  0.5036130000000 1.0
C      1  0.4676470000000  0.4295260000000  0.5360470000000 1.0
C      1  0.4013190000000  0.4912500000000  0.4882050000000 1.0
C      1  0.5134880000000  0.5255390000000  0.5300160000000 1.0
C      1  0.5033740000000  0.4335860000000  0.4483910000000 1.0
C      1  0.4899030000000  0.5044160000000  0.5855980000000 1.0
C      1  0.4957410000000  0.4232610000000  0.5410700000000 1.0
C      1  0.4685330000000  0.5101950000000  0.5266090000000 1.0
C      1  0.5749130000000  0.5055010000000  0.4535830000000 1.0
C      1  0.5399180000000  0.4408530000000  0.5526650000000 1.0
C      1  0.4046450000000  0.5190070000000  0.4819120000000 1.0
C      1  0.5537620000000  0.4638560000000  0.4451550000000 1.0
C      1  0.4625270000000  0.5654140000000  0.5458940000000 1.0
C      1  0.4863510000000  0.5335700000000  0.5801490000000 1.0
C      1  0.5441910000000  0.4230130000000  0.5301520000000 1.0
C      1  0.5764960000000  0.5256100000000  0.4732810000000 1.0
C      1  0.4536880000000  0.5741740000000  0.4999750000000 1.0
C      1  0.5614090000000  0.4751650000000  0.5266050000000 1.0
C      1  0.6025850000000  0.4931190000000  0.5057710000000 1.0
C      1  0.5346800000000  0.5339070000000  0.4409060000000 1.0
C      1  0.4698260000000  0.5785030000000  0.4587830000000 1.0
END
