TITL C-2114525-70-13 0.270898196370671 125000 -771.227162827025 0 0 110 (C1) n - 1
REM
REM in /nfs/bkarasulu/CARBON/AIRSS/Generating-Clusters/GAP-ML-2020/Only-C1/SD-CG/HFTN-CG
REM
REM
REM
REM
REM
REM ./C.cell (11c1c37f851c82e70ff6c80c92926a4b)
REM
REM compiler GCC version 9.2.1 20190827 (Red Hat 9.2.1-1)
REM options -cpp -mtune=generic -march=x86-64 -g -O0 -fpre-include=/usr/include/finclude/math-vector-fortran.h
REM seed 1769060963 308182651 -1289683876 1183828312 -7462005 -269182019 -105464718 2140303178 266575985 -1221669010 -1551395735 -82184997 1860092081 544011352 921458567 668264785 -646431736 343951964 269003568 2097355829 -961408199 1270384695 1061685777 1255746942 -2061674092 -1632672219 1847620950 -651401216 1678910480 -361324205 -82431352 -425445055 -2034488085
REM
CELL 1.54180   50.00000   50.00000   50.00000   90.00000   90.00000   90.00000
LATT -1
SFAC C  
C      1  0.5415220000000  0.5477980000000  0.4353670000000 1.0
C      1  0.5113310000000  0.5524670000000  0.5320990000000 1.0
C      1  0.4963670000000  0.4194690000000  0.5484900000000 1.0
C      1  0.4658510000000  0.4929260000000  0.5690840000000 1.0
C      1  0.5325220000000  0.4666440000000  0.5097130000000 1.0
C      1  0.4338300000000  0.5235040000000  0.5503640000000 1.0
C      1  0.5875400000000  0.5275330000000  0.4875080000000 1.0
C      1  0.5191560000000  0.5125330000000  0.5954320000000 1.0
C      1  0.4837580000000  0.5493970000000  0.5277610000000 1.0
C      1  0.4489710000000  0.4682740000000  0.5677210000000 1.0
C      1  0.4606850000000  0.5114510000000  0.4721120000000 1.0
C      1  0.5190340000000  0.4635720000000  0.5376730000000 1.0
C      1  0.5565380000000  0.5244470000000  0.5458280000000 1.0
C      1  0.4845010000000  0.5797240000000  0.4697790000000 1.0
C      1  0.5781250000000  0.4586490000000  0.4985730000000 1.0
C      1  0.4535850000000  0.5185800000000  0.5722510000000 1.0
C      1  0.4350750000000  0.4379070000000  0.4926490000000 1.0
C      1  0.5813980000000  0.5483130000000  0.5068330000000 1.0
C      1  0.5130850000000  0.4354820000000  0.4415320000000 1.0
C      1  0.4690880000000  0.5284490000000  0.4210140000000 1.0
C      1  0.4879950000000  0.5079900000000  0.4191080000000 1.0
C      1  0.5698140000000  0.4581500000000  0.4707970000000 1.0
C      1  0.4903480000000  0.4722900000000  0.5317510000000 1.0
C      1  0.5255000000000  0.5154710000000  0.5029790000000 1.0
C      1  0.5513020000000  0.4367620000000  0.4760980000000 1.0
C      1  0.4166050000000  0.5088620000000  0.4770520000000 1.0
C      1  0.5894400000000  0.5081460000000  0.5105600000000 1.0
C      1  0.4845060000000  0.5289300000000  0.4737440000000 1.0
C      1  0.4413690000000  0.5631400000000  0.5176840000000 1.0
C      1  0.5148240000000  0.4843500000000  0.5851970000000 1.0
C      1  0.5169700000000  0.4657570000000  0.4825080000000 1.0
C      1  0.5266170000000  0.4563570000000  0.4274470000000 1.0
C      1  0.5478860000000  0.5699630000000  0.5523090000000 1.0
C      1  0.4431140000000  0.4529350000000  0.4450770000000 1.0
C      1  0.4415180000000  0.5504140000000  0.5430040000000 1.0
C      1  0.4240770000000  0.4758140000000  0.5251440000000 1.0
C      1  0.5088100000000  0.5278920000000  0.4557080000000 1.0
C      1  0.4711660000000  0.4067630000000  0.5075270000000 1.0
C      1  0.4840490000000  0.4993100000000  0.5408070000000 1.0
C      1  0.4686320000000  0.5561810000000  0.4780230000000 1.0
C      1  0.4690130000000  0.4558180000000  0.4317070000000 1.0
C      1  0.4830260000000  0.4086910000000  0.4816170000000 1.0
C      1  0.4326490000000  0.4951450000000  0.4289080000000 1.0
C      1  0.5528580000000  0.4627440000000  0.4275490000000 1.0
C      1  0.5595360000000  0.4789390000000  0.4508890000000 1.0
C      1  0.5423380000000  0.4931870000000  0.5090860000000 1.0
C      1  0.4726040000000  0.4859780000000  0.4641030000000 1.0
C      1  0.5111310000000  0.4120480000000  0.4836660000000 1.0
C      1  0.5099770000000  0.5104480000000  0.5501700000000 1.0
C      1  0.5799110000000  0.5285380000000  0.5283010000000 1.0
C      1  0.5288740000000  0.5944810000000  0.5229970000000 1.0
C      1  0.4874740000000  0.5892110000000  0.4963110000000 1.0
C      1  0.5646200000000  0.5083790000000  0.4444510000000 1.0
C      1  0.4229960000000  0.4642670000000  0.4977480000000 1.0
C      1  0.4848900000000  0.4339500000000  0.4400020000000 1.0
C      1  0.4699560000000  0.5673890000000  0.5080510000000 1.0
C      1  0.5189050000000  0.4068440000000  0.5100800000000 1.0
C      1  0.5560120000000  0.4956390000000  0.5536040000000 1.0
C      1  0.4832760000000  0.4821650000000  0.4354610000000 1.0
C      1  0.4262970000000  0.4751310000000  0.4471920000000 1.0
C      1  0.5758280000000  0.5291680000000  0.4614970000000 1.0
C      1  0.5537250000000  0.5727870000000  0.4766280000000 1.0
C      1  0.4719020000000  0.4302840000000  0.5586620000000 1.0
C      1  0.4352160000000  0.5253660000000  0.4595790000000 1.0
C      1  0.4449880000000  0.4340330000000  0.4658490000000 1.0
C      1  0.4788430000000  0.4665910000000  0.5081570000000 1.0
C      1  0.5219090000000  0.4338600000000  0.5437950000000 1.0
C      1  0.4872220000000  0.5481460000000  0.4243100000000 1.0
C      1  0.5282190000000  0.4858530000000  0.5581730000000 1.0
C      1  0.5152810000000  0.5963140000000  0.4988860000000 1.0
C      1  0.5551310000000  0.5824390000000  0.5271360000000 1.0
C      1  0.4397760000000  0.5501030000000  0.4739160000000 1.0
C      1  0.4937420000000  0.4047010000000  0.5250960000000 1.0
C      1  0.5288030000000  0.5860670000000  0.4746120000000 1.0
C      1  0.4698070000000  0.4206800000000  0.4604990000000 1.0
C      1  0.5384030000000  0.4225210000000  0.5229960000000 1.0
C      1  0.5654720000000  0.5708630000000  0.5029240000000 1.0
C      1  0.4245240000000  0.5051160000000  0.5289620000000 1.0
C      1  0.4714190000000  0.4525530000000  0.5770230000000 1.0
C      1  0.5529410000000  0.4424470000000  0.5060500000000 1.0
C      1  0.5603020000000  0.5538040000000  0.4559140000000 1.0
C      1  0.4178140000000  0.4811200000000  0.4743690000000 1.0
C      1  0.4900970000000  0.4794360000000  0.4862900000000 1.0
C      1  0.5296120000000  0.4849510000000  0.4630960000000 1.0
C      1  0.5437620000000  0.5205500000000  0.4289760000000 1.0
C      1  0.5202460000000  0.5772280000000  0.5438320000000 1.0
C      1  0.4531900000000  0.5136840000000  0.5011270000000 1.0
C      1  0.5508590000000  0.5454580000000  0.5665950000000 1.0
C      1  0.4767010000000  0.5182270000000  0.5186540000000 1.0
C      1  0.4748680000000  0.5378520000000  0.5752340000000 1.0
C      1  0.5264080000000  0.5279440000000  0.5308610000000 1.0
C      1  0.5731890000000  0.4808830000000  0.5396500000000 1.0
C      1  0.4959920000000  0.5121830000000  0.4968950000000 1.0
C      1  0.4347830000000  0.4577870000000  0.5455620000000 1.0
C      1  0.4877200000000  0.4759810000000  0.5830750000000 1.0
C      1  0.4415500000000  0.5206880000000  0.4309610000000 1.0
C      1  0.4682800000000  0.5537710000000  0.5533780000000 1.0
C      1  0.4482710000000  0.4329050000000  0.5402710000000 1.0
C      1  0.4264900000000  0.5486100000000  0.4987040000000 1.0
C      1  0.5089490000000  0.5779370000000  0.4559980000000 1.0
C      1  0.4228300000000  0.5197050000000  0.5035370000000 1.0
C      1  0.5234510000000  0.4335590000000  0.4686090000000 1.0
C      1  0.5282720000000  0.5143900000000  0.4735620000000 1.0
C      1  0.5027530000000  0.5276000000000  0.5754590000000 1.0
C      1  0.4478150000000  0.4221890000000  0.5138150000000 1.0
C      1  0.5871600000000  0.4796040000000  0.5160500000000 1.0
C      1  0.5139710000000  0.4812580000000  0.4368480000000 1.0
C      1  0.5305180000000  0.5351790000000  0.5845100000000 1.0
C      1  0.5119890000000  0.5549000000000  0.4390350000000 1.0
C      1  0.5161640000000  0.5091350000000  0.4281810000000 1.0
END
