TITL C-214943-2735-9 29.8057400535222 125000 -272.121784295661 0 0 41 (C1) n - 1
REM
REM in /rds/project/t2_vol4/rds-t2-cs072/BORA/CARBON/from-Arr/AIRSS/Generating-Clusters/GAP-ML-2020/Only-C1/SD-CG/HFTN-CG
REM
REM
REM
REM
REM
REM ./C.cell (11c1c37f851c82e70ff6c80c92926a4b)
REM AIRSS Version 0.9.1 bugfix July 2018 build 013d7b7c2542+ Fri, 06 Jul 2018 19:26:36 +0100
REM compiler GCC version 9.3.0
REM options -cpp -mtune=generic -march=x86-64 -g -O0
REM seed 1685209170 1292021759 1136571042 1016193089 -2024940776 -2102008336 1711269283 -1046822054 1986712026 1159005681 -1988975168 -1306020850 2127216619 985085539 1507674723 -392199214 -31866241 894744165 558870988 -1588732148 863948531 -1040420522 1351664381 -1426828101 -358870945 -1280353592 1648224021 1424343887 736021132 -1144127014 -1690566765 -157357189 252734521
REM
CELL 1.54180   50.00000   50.00000   50.00000   90.00000   90.00000   90.00000
LATT -1
SFAC C  
C      1  0.5158600000000  0.5512010000000  0.5166270000000 1.0
C      1  0.4253190000000  0.5064490000000  0.5252490000000 1.0
C      1  0.5432120000000  0.4543240000000  0.5262280000000 1.0
C      1  0.4517610000000  0.4752550000000  0.4996950000000 1.0
C      1  0.5359300000000  0.4545710000000  0.4850970000000 1.0
C      1  0.4874630000000  0.5341220000000  0.5198780000000 1.0
C      1  0.5147950000000  0.4824170000000  0.4485820000000 1.0
C      1  0.4350140000000  0.4981430000000  0.5006890000000 1.0
C      1  0.4947030000000  0.5339880000000  0.4905700000000 1.0
C      1  0.4484710000000  0.5132020000000  0.5368050000000 1.0
C      1  0.4629420000000  0.4675380000000  0.5261400000000 1.0
C      1  0.5290400000000  0.5491360000000  0.4662240000000 1.0
C      1  0.5539130000000  0.4945320000000  0.5385410000000 1.0
C      1  0.5134890000000  0.5125650000000  0.5536390000000 1.0
C      1  0.4893310000000  0.4858260000000  0.4382330000000 1.0
C      1  0.4780130000000  0.4453740000000  0.5263610000000 1.0
C      1  0.5225800000000  0.5083780000000  0.4604170000000 1.0
C      1  0.4617560000000  0.5169860000000  0.4636400000000 1.0
C      1  0.5444740000000  0.5259450000000  0.4722080000000 1.0
C      1  0.5386230000000  0.5174430000000  0.5445770000000 1.0
C      1  0.5388990000000  0.5346240000000  0.5215330000000 1.0
C      1  0.4673200000000  0.4696970000000  0.4769540000000 1.0
C      1  0.5087040000000  0.5332960000000  0.4499400000000 1.0
C      1  0.4423240000000  0.5210390000000  0.4841450000000 1.0
C      1  0.4592700000000  0.5385400000000  0.5251130000000 1.0
C      1  0.4905060000000  0.4537940000000  0.4806330000000 1.0
C      1  0.4685560000000  0.4934740000000  0.5398480000000 1.0
C      1  0.5521260000000  0.5204830000000  0.4996450000000 1.0
C      1  0.5482880000000  0.4690230000000  0.5480710000000 1.0
C      1  0.5557130000000  0.4684150000000  0.5005420000000 1.0
C      1  0.5150670000000  0.4609160000000  0.4679110000000 1.0
C      1  0.5152480000000  0.5562890000000  0.4888950000000 1.0
C      1  0.5128280000000  0.4917630000000  0.5096190000000 1.0
C      1  0.4417990000000  0.5428680000000  0.5026350000000 1.0
C      1  0.5078110000000  0.5071580000000  0.4873420000000 1.0
C      1  0.4944000000000  0.5066210000000  0.5324060000000 1.0
C      1  0.5249390000000  0.4415060000000  0.5092540000000 1.0
C      1  0.4699970000000  0.4904060000000  0.4571100000000 1.0
C      1  0.5591220000000  0.4947050000000  0.5099230000000 1.0
C      1  0.4836840000000  0.5354000000000  0.4623960000000 1.0
C      1  0.4967090000000  0.4425860000000  0.5066880000000 1.0
END
