TITL C-21796-4611-1 0.0291331974160664 125000 -774.412345040225 0 0 111 (C1) n - 1
REM
REM in /rds/project/t2_vol4/rds-t2-cs072/BORA/CARBON/from-Arr/AIRSS/Generating-Clusters/GAP-ML-2020/Only-C1/SD-CG/HFTN-CG
REM
REM
REM
REM
REM
REM ./C.cell (11c1c37f851c82e70ff6c80c92926a4b)
REM AIRSS Version 0.9.1 bugfix July 2018 build 013d7b7c2542+ Fri, 06 Jul 2018 19:26:36 +0100
REM compiler GCC version 9.3.0
REM options -cpp -mtune=generic -march=x86-64 -g -O0
REM seed 1501785510 -1784466329 -1696450388 318937988 926697081 1109945975 -1251677423 -502098415 1652900533 1753303225 1993416824 1814791637 851568039 -590284573 1996936601 1461239722 -1060282363 330707467 -794852086 -263842018 26877856 680861173 854628404 1379732178 871398197 557483301 -276573877 -827145274 -1473988912 554161440 553976119 1050939886 -1203791166
REM
CELL 1.54180   50.00000   50.00000   50.00000   90.00000   90.00000   90.00000
LATT -1
SFAC C  
C      1  0.4448120000000  0.4323210000000  0.4685900000000 1.0
C      1  0.4349660000000  0.4790370000000  0.5721490000000 1.0
C      1  0.4518150000000  0.4526920000000  0.5339820000000 1.0
C      1  0.5174710000000  0.5478900000000  0.4347510000000 1.0
C      1  0.4570600000000  0.4833740000000  0.5235140000000 1.0
C      1  0.4701960000000  0.5201770000000  0.4601230000000 1.0
C      1  0.5390120000000  0.4805160000000  0.4565160000000 1.0
C      1  0.4467420000000  0.5797650000000  0.5104690000000 1.0
C      1  0.4329190000000  0.5434520000000  0.5401620000000 1.0
C      1  0.5742980000000  0.4719660000000  0.5311780000000 1.0
C      1  0.4631990000000  0.4366560000000  0.4476860000000 1.0
C      1  0.4914800000000  0.4203710000000  0.5238750000000 1.0
C      1  0.5706800000000  0.5425560000000  0.4877940000000 1.0
C      1  0.5618370000000  0.4399230000000  0.4576500000000 1.0
C      1  0.5083380000000  0.4538280000000  0.4164690000000 1.0
C      1  0.4971440000000  0.5971160000000  0.5144550000000 1.0
C      1  0.5369760000000  0.5338340000000  0.4519830000000 1.0
C      1  0.5358540000000  0.4661260000000  0.5033500000000 1.0
C      1  0.4895110000000  0.4721370000000  0.4905070000000 1.0
C      1  0.4741100000000  0.4335510000000  0.5407670000000 1.0
C      1  0.5135560000000  0.4377170000000  0.4406390000000 1.0
C      1  0.5878440000000  0.5197860000000  0.4795040000000 1.0
C      1  0.4594190000000  0.4604510000000  0.4310340000000 1.0
C      1  0.5593390000000  0.4311710000000  0.5066990000000 1.0
C      1  0.4301870000000  0.5014360000000  0.5569950000000 1.0
C      1  0.5450830000000  0.4550940000000  0.5706240000000 1.0
C      1  0.5939700000000  0.5053850000000  0.5048740000000 1.0
C      1  0.4437690000000  0.5694750000000  0.5365820000000 1.0
C      1  0.5650000000000  0.4968300000000  0.5407030000000 1.0
C      1  0.5443530000000  0.4865420000000  0.4856590000000 1.0
C      1  0.5063580000000  0.4889930000000  0.5375050000000 1.0
C      1  0.4277330000000  0.4989280000000  0.5253280000000 1.0
C      1  0.4643400000000  0.4838820000000  0.4947580000000 1.0
C      1  0.4960280000000  0.4135510000000  0.4759000000000 1.0
C      1  0.5525960000000  0.4535790000000  0.5255660000000 1.0
C      1  0.5747870000000  0.4385670000000  0.4837070000000 1.0
C      1  0.5323820000000  0.5045130000000  0.5891850000000 1.0
C      1  0.4364020000000  0.4387100000000  0.5138140000000 1.0
C      1  0.5505620000000  0.5544130000000  0.4717680000000 1.0
C      1  0.4779110000000  0.5919930000000  0.4780480000000 1.0
C      1  0.4675290000000  0.5117900000000  0.4881940000000 1.0
C      1  0.5712320000000  0.4929600000000  0.4377560000000 1.0
C      1  0.4998410000000  0.5591250000000  0.4528310000000 1.0
C      1  0.5242580000000  0.4140670000000  0.4791900000000 1.0
C      1  0.5062810000000  0.5932610000000  0.4869090000000 1.0
C      1  0.4968340000000  0.5070200000000  0.4558290000000 1.0
C      1  0.4225250000000  0.4495910000000  0.4719190000000 1.0
C      1  0.4799990000000  0.5022300000000  0.5331870000000 1.0
C      1  0.5163430000000  0.4632150000000  0.4545800000000 1.0
C      1  0.4223150000000  0.5185840000000  0.4693630000000 1.0
C      1  0.5143490000000  0.5849660000000  0.5326810000000 1.0
C      1  0.5881950000000  0.5073600000000  0.4543930000000 1.0
C      1  0.5026930000000  0.5013470000000  0.5939170000000 1.0
C      1  0.4821120000000  0.5584540000000  0.5650120000000 1.0
C      1  0.4258640000000  0.5383400000000  0.4902960000000 1.0
C      1  0.5122050000000  0.5057280000000  0.4243510000000 1.0
C      1  0.4250520000000  0.5276200000000  0.5178930000000 1.0
C      1  0.4199040000000  0.4734450000000  0.4579610000000 1.0
C      1  0.4955250000000  0.4786390000000  0.4639100000000 1.0
C      1  0.5382380000000  0.5784850000000  0.5166100000000 1.0
C      1  0.5192820000000  0.4237530000000  0.5280470000000 1.0
C      1  0.4496570000000  0.5293830000000  0.4215930000000 1.0
C      1  0.5264190000000  0.5072990000000  0.4963510000000 1.0
C      1  0.4794970000000  0.4495480000000  0.5632780000000 1.0
C      1  0.5161950000000  0.5230910000000  0.4734570000000 1.0
C      1  0.5924720000000  0.4588390000000  0.4892720000000 1.0
C      1  0.4888040000000  0.4247610000000  0.4511310000000 1.0
C      1  0.5364430000000  0.4754790000000  0.5859900000000 1.0
C      1  0.4119250000000  0.4941500000000  0.4773910000000 1.0
C      1  0.5026200000000  0.5326600000000  0.4166550000000 1.0
C      1  0.5329100000000  0.5243680000000  0.5202290000000 1.0
C      1  0.4599270000000  0.5716530000000  0.4673010000000 1.0
C      1  0.4415250000000  0.5274620000000  0.5617690000000 1.0
C      1  0.5385060000000  0.5221420000000  0.5681310000000 1.0
C      1  0.4791070000000  0.4149630000000  0.4986570000000 1.0
C      1  0.5927790000000  0.4765650000000  0.5093590000000 1.0
C      1  0.4733790000000  0.5416210000000  0.4197780000000 1.0
C      1  0.5632830000000  0.5395340000000  0.5169540000000 1.0
C      1  0.5357930000000  0.5059440000000  0.5434090000000 1.0
C      1  0.4913100000000  0.5467140000000  0.5079260000000 1.0
C      1  0.5071190000000  0.5502680000000  0.4823220000000 1.0
C      1  0.4653320000000  0.5747070000000  0.5521080000000 1.0
C      1  0.4399130000000  0.5638460000000  0.4875110000000 1.0
C      1  0.4124060000000  0.4828070000000  0.5038990000000 1.0
C      1  0.4180330000000  0.4550740000000  0.4993320000000 1.0
C      1  0.5102510000000  0.5418610000000  0.5278790000000 1.0
C      1  0.4671670000000  0.5351580000000  0.5759520000000 1.0
C      1  0.5582330000000  0.5676750000000  0.5598180000000 1.0
C      1  0.5073520000000  0.4734860000000  0.5860300000000 1.0
C      1  0.4517960000000  0.4598420000000  0.5640120000000 1.0
C      1  0.4820730000000  0.4635260000000  0.4129840000000 1.0
C      1  0.5099320000000  0.5603430000000  0.5522310000000 1.0
C      1  0.5303270000000  0.5706770000000  0.4880440000000 1.0
C      1  0.5044830000000  0.4808760000000  0.4099810000000 1.0
C      1  0.5791520000000  0.5166620000000  0.5258930000000 1.0
C      1  0.4436280000000  0.5113120000000  0.4447610000000 1.0
C      1  0.5309590000000  0.4461060000000  0.5467650000000 1.0
C      1  0.5364760000000  0.5512100000000  0.5648080000000 1.0
C      1  0.4819370000000  0.5188050000000  0.5922750000000 1.0
C      1  0.5110460000000  0.4802130000000  0.5090190000000 1.0
C      1  0.5411000000000  0.5064060000000  0.4388560000000 1.0
C      1  0.4724880000000  0.5512510000000  0.4494350000000 1.0
C      1  0.5366170000000  0.4268430000000  0.4564550000000 1.0
C      1  0.5353890000000  0.4167740000000  0.5052080000000 1.0
C      1  0.5045140000000  0.4647370000000  0.5569820000000 1.0
C      1  0.4399140000000  0.4809300000000  0.4400750000000 1.0
C      1  0.5579000000000  0.5648210000000  0.5319450000000 1.0
C      1  0.4777720000000  0.5232280000000  0.5124160000000 1.0
C      1  0.4692010000000  0.5966800000000  0.5052390000000 1.0
C      1  0.5619040000000  0.4659840000000  0.4447770000000 1.0
C      1  0.4524170000000  0.4234310000000  0.4946660000000 1.0
END
