TITL C-2114532-4476-14 16.228328091111 125000 -1160.99856868315 0 0 166 (C1) n - 1
REM
REM in /nfs/bkarasulu/CARBON/AIRSS/Generating-Clusters/GAP-ML-2020/Only-C1/SD-CG/HFTN-CG
REM
REM
REM
REM
REM
REM ./C.cell (11c1c37f851c82e70ff6c80c92926a4b)
REM
REM compiler GCC version 9.2.1 20190827 (Red Hat 9.2.1-1)
REM options -cpp -mtune=generic -march=x86-64 -g -O0 -fpre-include=/usr/include/finclude/math-vector-fortran.h
REM seed 13999354 454550985 1369668831 1822611914 1612900965 32517996 1163773716 1766368583 742229590 -578446248 -1562669261 1507255688 -1915940135 -1320895871 1953707360 -1090537923 -471837371 2070232737 -3312978 544862606 -303516910 -1466493138 -577337537 69597250 -1340533803 1869271376 -338167337 -378385519 162319724 -1632179353 -1812784109 -1624390629 -473999984
REM
CELL 1.54180   50.00000   50.00000   50.00000   90.00000   90.00000   90.00000
LATT -1
SFAC C  
C      1  0.4994140000000  0.5038300000000  0.4112210000000 1.0
C      1  0.4382110000000  0.4506530000000  0.4570880000000 1.0
C      1  0.4829710000000  0.4661500000000  0.4814330000000 1.0
C      1  0.5433050000000  0.4512530000000  0.4791640000000 1.0
C      1  0.5141490000000  0.4934440000000  0.4347880000000 1.0
C      1  0.5307570000000  0.5388750000000  0.4076770000000 1.0
C      1  0.4843130000000  0.4781320000000  0.4065310000000 1.0
C      1  0.4327050000000  0.4122840000000  0.4811520000000 1.0
C      1  0.4322980000000  0.4846970000000  0.4175910000000 1.0
C      1  0.5758700000000  0.5724620000000  0.4788000000000 1.0
C      1  0.5351920000000  0.5904860000000  0.4892950000000 1.0
C      1  0.4840420000000  0.4971270000000  0.4798970000000 1.0
C      1  0.4651670000000  0.5273690000000  0.5148890000000 1.0
C      1  0.5867620000000  0.5122740000000  0.4334120000000 1.0
C      1  0.4106190000000  0.5578340000000  0.4898820000000 1.0
C      1  0.4468240000000  0.4493880000000  0.5125210000000 1.0
C      1  0.5261520000000  0.4167230000000  0.4491310000000 1.0
C      1  0.5163120000000  0.4917400000000  0.5991510000000 1.0
C      1  0.4840370000000  0.4354910000000  0.4373780000000 1.0
C      1  0.4633930000000  0.6042890000000  0.4768560000000 1.0
C      1  0.4565550000000  0.5337240000000  0.4164540000000 1.0
C      1  0.4347350000000  0.4962020000000  0.5417930000000 1.0
C      1  0.5949350000000  0.4816710000000  0.5041740000000 1.0
C      1  0.4688660000000  0.4814270000000  0.5965170000000 1.0
C      1  0.4726020000000  0.5887070000000  0.5498520000000 1.0
C      1  0.4655660000000  0.4519580000000  0.5351640000000 1.0
C      1  0.3941290000000  0.5114080000000  0.4784110000000 1.0
C      1  0.5205790000000  0.4457130000000  0.5500890000000 1.0
C      1  0.4851190000000  0.5299600000000  0.5946960000000 1.0
C      1  0.4557450000000  0.4301440000000  0.4444100000000 1.0
C      1  0.5396710000000  0.4816720000000  0.5831190000000 1.0
C      1  0.4528260000000  0.5764680000000  0.5092290000000 1.0
C      1  0.4649380000000  0.4995530000000  0.5037510000000 1.0
C      1  0.5113870000000  0.6050630000000  0.4834170000000 1.0
C      1  0.4401350000000  0.4911080000000  0.4884600000000 1.0
C      1  0.5092330000000  0.5778560000000  0.4263660000000 1.0
C      1  0.4241720000000  0.5777950000000  0.4733930000000 1.0
C      1  0.4409690000000  0.5036580000000  0.4604400000000 1.0
C      1  0.5385370000000  0.5283450000000  0.5799160000000 1.0
C      1  0.5306120000000  0.4372320000000  0.5932460000000 1.0
C      1  0.5786200000000  0.4470870000000  0.5080150000000 1.0
C      1  0.5529040000000  0.4507990000000  0.5214020000000 1.0
C      1  0.5231230000000  0.4842670000000  0.5028580000000 1.0
C      1  0.5599570000000  0.4080510000000  0.4817740000000 1.0
C      1  0.4748660000000  0.5415460000000  0.4715720000000 1.0
C      1  0.4905340000000  0.5737950000000  0.5663670000000 1.0
C      1  0.5498110000000  0.4346550000000  0.5461790000000 1.0
C      1  0.5460770000000  0.5777600000000  0.5137590000000 1.0
C      1  0.5480290000000  0.4806760000000  0.4855760000000 1.0
C      1  0.6105670000000  0.5091700000000  0.4694960000000 1.0
C      1  0.5506940000000  0.5773900000000  0.5662470000000 1.0
C      1  0.4938230000000  0.5368780000000  0.5199900000000 1.0
C      1  0.4268500000000  0.4767290000000  0.4453960000000 1.0
C      1  0.4230780000000  0.4420320000000  0.5504090000000 1.0
C      1  0.5446510000000  0.4070660000000  0.5350120000000 1.0
C      1  0.4063290000000  0.5361650000000  0.4723640000000 1.0
C      1  0.4252210000000  0.5289470000000  0.4522400000000 1.0
C      1  0.5249580000000  0.5096440000000  0.4568190000000 1.0
C      1  0.4887470000000  0.5952840000000  0.4386710000000 1.0
C      1  0.3959130000000  0.4719620000000  0.5053120000000 1.0
C      1  0.4490900000000  0.4477730000000  0.5608650000000 1.0
C      1  0.5383700000000  0.4799100000000  0.5290270000000 1.0
C      1  0.5930960000000  0.4712590000000  0.4567790000000 1.0
C      1  0.4397690000000  0.5740760000000  0.4484590000000 1.0
C      1  0.5507170000000  0.4975040000000  0.4625060000000 1.0
C      1  0.5688590000000  0.4486650000000  0.4303560000000 1.0
C      1  0.5252950000000  0.4475010000000  0.4553750000000 1.0
C      1  0.4545600000000  0.4080120000000  0.4623210000000 1.0
C      1  0.4128030000000  0.5340960000000  0.5391590000000 1.0
C      1  0.4521560000000  0.4621790000000  0.4853880000000 1.0
C      1  0.4693060000000  0.4063310000000  0.5139320000000 1.0
C      1  0.4129080000000  0.5561380000000  0.5207660000000 1.0
C      1  0.5029570000000  0.5475560000000  0.4740550000000 1.0
C      1  0.5590230000000  0.5533050000000  0.5753430000000 1.0
C      1  0.5761840000000  0.5438350000000  0.4692920000000 1.0
C      1  0.5681920000000  0.4494750000000  0.5646070000000 1.0
C      1  0.5241320000000  0.4653160000000  0.4305500000000 1.0
C      1  0.5702370000000  0.5219150000000  0.4135970000000 1.0
C      1  0.4175960000000  0.4355000000000  0.4720140000000 1.0
C      1  0.4626160000000  0.5933970000000  0.4500850000000 1.0
C      1  0.4410580000000  0.5934170000000  0.4893270000000 1.0
C      1  0.5141030000000  0.5351240000000  0.4977960000000 1.0
C      1  0.4880960000000  0.3937580000000  0.4965850000000 1.0
C      1  0.5556090000000  0.5043230000000  0.5770420000000 1.0
C      1  0.4349780000000  0.5334240000000  0.5626520000000 1.0
C      1  0.5532780000000  0.4991580000000  0.4045180000000 1.0
C      1  0.5376070000000  0.5825200000000  0.5430330000000 1.0
C      1  0.5051860000000  0.4452770000000  0.5972980000000 1.0
C      1  0.4698200000000  0.5133840000000  0.4607090000000 1.0
C      1  0.4097480000000  0.5058610000000  0.5293440000000 1.0
C      1  0.5427490000000  0.5436070000000  0.5085080000000 1.0
C      1  0.3991830000000  0.4557480000000  0.4806080000000 1.0
C      1  0.4813020000000  0.3984590000000  0.4679950000000 1.0
C      1  0.4965690000000  0.4492040000000  0.4621540000000 1.0
C      1  0.4631530000000  0.5096010000000  0.5953660000000 1.0
C      1  0.6072770000000  0.4837860000000  0.4781120000000 1.0
C      1  0.4788540000000  0.5876680000000  0.5202320000000 1.0
C      1  0.5862800000000  0.5603310000000  0.5265120000000 1.0
C      1  0.5498660000000  0.5805250000000  0.4649050000000 1.0
C      1  0.4956140000000  0.4720830000000  0.6010410000000 1.0
C      1  0.4829060000000  0.4258700000000  0.5318560000000 1.0
C      1  0.5177340000000  0.3963500000000  0.5384880000000 1.0
C      1  0.3996590000000  0.4750320000000  0.4584230000000 1.0
C      1  0.4488640000000  0.5567470000000  0.5721400000000 1.0
C      1  0.4107770000000  0.4975180000000  0.4996540000000 1.0
C      1  0.5076870000000  0.5486210000000  0.4223930000000 1.0
C      1  0.4367480000000  0.5120440000000  0.5827410000000 1.0
C      1  0.4276130000000  0.4311780000000  0.5238090000000 1.0
C      1  0.5467740000000  0.5313920000000  0.5350760000000 1.0
C      1  0.5927420000000  0.5343990000000  0.5179540000000 1.0
C      1  0.3955530000000  0.4785070000000  0.5330120000000 1.0
C      1  0.4409930000000  0.4112570000000  0.5084910000000 1.0
C      1  0.5306270000000  0.5900010000000  0.4428700000000 1.0
C      1  0.4971010000000  0.4555480000000  0.4185840000000 1.0
C      1  0.5550210000000  0.5449610000000  0.4207050000000 1.0
C      1  0.5243940000000  0.5351560000000  0.5535300000000 1.0
C      1  0.5481110000000  0.4033780000000  0.4574490000000 1.0
C      1  0.5522030000000  0.4551630000000  0.5875030000000 1.0
C      1  0.5331000000000  0.4370580000000  0.5042890000000 1.0
C      1  0.4085110000000  0.4654430000000  0.5548090000000 1.0
C      1  0.4560300000000  0.5172120000000  0.5423200000000 1.0
C      1  0.5096600000000  0.4296300000000  0.5727640000000 1.0
C      1  0.3816960000000  0.4955780000000  0.4602970000000 1.0
C      1  0.4823760000000  0.5008520000000  0.5469450000000 1.0
C      1  0.5750900000000  0.5769810000000  0.5070520000000 1.0
C      1  0.4325660000000  0.5743800000000  0.5295030000000 1.0
C      1  0.5554990000000  0.4723040000000  0.4213630000000 1.0
C      1  0.5242180000000  0.4737140000000  0.5539090000000 1.0
C      1  0.5031560000000  0.5193660000000  0.5412840000000 1.0
C      1  0.5273980000000  0.5114190000000  0.4012920000000 1.0
C      1  0.5405610000000  0.4079260000000  0.5052580000000 1.0
C      1  0.4987880000000  0.4102900000000  0.5544060000000 1.0
C      1  0.5691430000000  0.4988200000000  0.5025080000000 1.0
C      1  0.4761000000000  0.5542480000000  0.5820520000000 1.0
C      1  0.5952510000000  0.4623560000000  0.5248860000000 1.0
C      1  0.5727120000000  0.4883890000000  0.4432850000000 1.0
C      1  0.5139110000000  0.3929860000000  0.5100120000000 1.0
C      1  0.5709270000000  0.5290170000000  0.4963700000000 1.0
C      1  0.4290150000000  0.4861200000000  0.5701480000000 1.0
C      1  0.5902190000000  0.5222280000000  0.5449460000000 1.0
C      1  0.5713060000000  0.4356510000000  0.4804500000000 1.0
C      1  0.4448220000000  0.5088320000000  0.4100160000000 1.0
C      1  0.4393140000000  0.5479720000000  0.4359420000000 1.0
C      1  0.5717990000000  0.5449790000000  0.5498430000000 1.0
C      1  0.5146510000000  0.5659920000000  0.5505270000000 1.0
C      1  0.5118100000000  0.5066740000000  0.4856720000000 1.0
C      1  0.5509210000000  0.5518320000000  0.4506860000000 1.0
C      1  0.4991940000000  0.4663400000000  0.5082280000000 1.0
C      1  0.5215370000000  0.5393580000000  0.4521090000000 1.0
C      1  0.5758920000000  0.4981440000000  0.5546510000000 1.0
C      1  0.5101580000000  0.6064590000000  0.4550500000000 1.0
C      1  0.4982290000000  0.4109370000000  0.4476100000000 1.0
C      1  0.5834700000000  0.4449940000000  0.4541010000000 1.0
C      1  0.4781920000000  0.4798350000000  0.5260220000000 1.0
C      1  0.4858310000000  0.6043350000000  0.4956750000000 1.0
C      1  0.4465900000000  0.5781220000000  0.5538380000000 1.0
C      1  0.5973220000000  0.5274410000000  0.4550230000000 1.0
C      1  0.4487180000000  0.4681980000000  0.5807590000000 1.0
C      1  0.4982020000000  0.5652150000000  0.5263510000000 1.0
C      1  0.5085560000000  0.4420050000000  0.5216900000000 1.0
C      1  0.4569560000000  0.4841630000000  0.4049070000000 1.0
C      1  0.5850670000000  0.4686280000000  0.5514180000000 1.0
C      1  0.5568270000000  0.5023240000000  0.5306260000000 1.0
C      1  0.4579220000000  0.5466870000000  0.4950930000000 1.0
C      1  0.4854480000000  0.5308220000000  0.4141250000000 1.0
C      1  0.5130780000000  0.5195470000000  0.5967940000000 1.0
END
