TITL C-2114528-2131-10 15.5106719126922 125000 -368.75230385352 0 0 55 (C1) n - 1
REM
REM in /nfs/bkarasulu/CARBON/AIRSS/Generating-Clusters/GAP-ML-2020/Only-C1/SD-CG/HFTN-CG
REM
REM
REM
REM
REM
REM ./C.cell (11c1c37f851c82e70ff6c80c92926a4b)
REM
REM compiler GCC version 9.2.1 20190827 (Red Hat 9.2.1-1)
REM options -cpp -mtune=generic -march=x86-64 -g -O0 -fpre-include=/usr/include/finclude/math-vector-fortran.h
REM seed -316776907 2051023052 -1959115339 1566004867 -245696147 -1949639298 -1997324384 -2037034177 -1915900791 686421159 1470406078 -129132058 916888775 683699891 1466437238 899040937 1468161170 2126672114 -688309139 1838827221 -1052143134 1661206543 -808354730 510904244 1865375164 -1050736938 1265927906 -888148342 1947570625 1025593973 -70837664 -1673980547 1695548639
REM
CELL 1.54180   50.00000   50.00000   50.00000   90.00000   90.00000   90.00000
LATT -1
SFAC C  
C      1  0.5154350000000  0.5194090000000  0.4901390000000 1.0
C      1  0.5203980000000  0.5573110000000  0.4491480000000 1.0
C      1  0.4375200000000  0.5376110000000  0.4812770000000 1.0
C      1  0.4714120000000  0.4405370000000  0.5040260000000 1.0
C      1  0.4416820000000  0.4803510000000  0.5058000000000 1.0
C      1  0.5126610000000  0.4412210000000  0.5347550000000 1.0
C      1  0.5026850000000  0.4780690000000  0.5145520000000 1.0
C      1  0.5486860000000  0.5272230000000  0.5298390000000 1.0
C      1  0.4919350000000  0.5498310000000  0.5140390000000 1.0
C      1  0.5110600000000  0.5623030000000  0.4737210000000 1.0
C      1  0.5294650000000  0.4409200000000  0.5104820000000 1.0
C      1  0.4778950000000  0.5269010000000  0.4392510000000 1.0
C      1  0.5863550000000  0.5435660000000  0.4888280000000 1.0
C      1  0.5205700000000  0.5193280000000  0.5532950000000 1.0
C      1  0.5662170000000  0.4797210000000  0.4600160000000 1.0
C      1  0.4968530000000  0.5256180000000  0.5336910000000 1.0
C      1  0.5278960000000  0.4904200000000  0.5484960000000 1.0
C      1  0.4936750000000  0.5401010000000  0.4831460000000 1.0
C      1  0.4347250000000  0.4995460000000  0.5268150000000 1.0
C      1  0.5429940000000  0.5359100000000  0.5553940000000 1.0
C      1  0.5259440000000  0.4687350000000  0.4988710000000 1.0
C      1  0.5238720000000  0.4517780000000  0.4547410000000 1.0
C      1  0.4790690000000  0.4459830000000  0.4769050000000 1.0
C      1  0.5640240000000  0.5295670000000  0.4890160000000 1.0
C      1  0.4529080000000  0.4564540000000  0.5179400000000 1.0
C      1  0.4745880000000  0.5233630000000  0.5526390000000 1.0
C      1  0.5048570000000  0.4344910000000  0.4706760000000 1.0
C      1  0.4335200000000  0.5284250000000  0.5284750000000 1.0
C      1  0.5291170000000  0.5043000000000  0.4674840000000 1.0
C      1  0.5131670000000  0.4233720000000  0.4954510000000 1.0
C      1  0.5499900000000  0.4608450000000  0.4531800000000 1.0
C      1  0.4573200000000  0.4621710000000  0.5453560000000 1.0
C      1  0.4641160000000  0.5575440000000  0.5214290000000 1.0
C      1  0.5484950000000  0.4966540000000  0.5295810000000 1.0
C      1  0.4917950000000  0.4821020000000  0.4527670000000 1.0
C      1  0.4706590000000  0.5336010000000  0.4651720000000 1.0
C      1  0.4504990000000  0.5147490000000  0.4741730000000 1.0
C      1  0.4673490000000  0.4978380000000  0.5632320000000 1.0
C      1  0.5298550000000  0.5410370000000  0.4307040000000 1.0
C      1  0.5485820000000  0.4853550000000  0.5043760000000 1.0
C      1  0.5167290000000  0.4770890000000  0.4678940000000 1.0
C      1  0.5569770000000  0.5002240000000  0.4801170000000 1.0
C      1  0.4698580000000  0.4705990000000  0.4656530000000 1.0
C      1  0.4814000000000  0.4716110000000  0.5582340000000 1.0
C      1  0.5068190000000  0.4690860000000  0.5439820000000 1.0
C      1  0.4939220000000  0.4290180000000  0.5168640000000 1.0
C      1  0.4407070000000  0.5471310000000  0.5063610000000 1.0
C      1  0.5370300000000  0.5374040000000  0.5033800000000 1.0
C      1  0.4510920000000  0.4870860000000  0.4798490000000 1.0
C      1  0.4540630000000  0.5407940000000  0.5444900000000 1.0
C      1  0.4956670000000  0.5060580000000  0.4381470000000 1.0
C      1  0.5009900000000  0.5054620000000  0.5112670000000 1.0
C      1  0.5228860000000  0.5151610000000  0.4409640000000 1.0
C      1  0.5183400000000  0.5616330000000  0.5027210000000 1.0
C      1  0.4436760000000  0.4873840000000  0.5512020000000 1.0
END
