TITL C-216147-3359-1 -0.135560426977605 125000 -350.418248193263 0 0 53 (C1) n - 1
REM
REM in /rds/project/t2_vol4/rds-t2-cs072/BORA/CARBON/from-Arr/AIRSS/Generating-Clusters/GAP-ML-2020/Only-C1/SD-CG/HFTN-CG
REM
REM
REM
REM
REM
REM ./C.cell (11c1c37f851c82e70ff6c80c92926a4b)
REM AIRSS Version 0.9.1 bugfix July 2018 build 013d7b7c2542+ Fri, 06 Jul 2018 19:26:36 +0100
REM compiler GCC version 9.3.0
REM options -cpp -mtune=generic -march=x86-64 -g -O0
REM seed -343839009 2118733599 -1042125630 -1932250289 -1364034971 -1984064097 -919234239 -210816994 -436269016 1787571467 -1196297570 -1630171134 -20663259 -2075303077 -1903080376 -826335575 1787517384 1384064956 -2130874415 -1675932433 587911241 175571574 -410814601 -736626135 332498457 1747336004 -338195017 -677489849 -1491390362 446742186 1122060791 -2107891211 2014183400
REM
CELL 1.54180   50.00000   50.00000   50.00000   90.00000   90.00000   90.00000
LATT -1
SFAC C  
C      1  0.5136720000000  0.4502060000000  0.5369950000000 1.0
C      1  0.5124060000000  0.5503720000000  0.4728620000000 1.0
C      1  0.4757720000000  0.5359360000000  0.5090840000000 1.0
C      1  0.4558880000000  0.4684090000000  0.4927490000000 1.0
C      1  0.4799620000000  0.4854400000000  0.5371330000000 1.0
C      1  0.4884010000000  0.4963380000000  0.4439020000000 1.0
C      1  0.5085170000000  0.4956380000000  0.5294030000000 1.0
C      1  0.5688960000000  0.5148720000000  0.5623090000000 1.0
C      1  0.4601360000000  0.4601130000000  0.4486550000000 1.0
C      1  0.5094450000000  0.5009380000000  0.4998500000000 1.0
C      1  0.5112520000000  0.5240680000000  0.5412540000000 1.0
C      1  0.4872740000000  0.5532620000000  0.4869560000000 1.0
C      1  0.4332540000000  0.4982810000000  0.5187650000000 1.0
C      1  0.5539150000000  0.4828430000000  0.5268530000000 1.0
C      1  0.5065810000000  0.4817010000000  0.5736300000000 1.0
C      1  0.5193650000000  0.4724750000000  0.4908140000000 1.0
C      1  0.5055640000000  0.5409870000000  0.4463720000000 1.0
C      1  0.4843630000000  0.5324020000000  0.5374630000000 1.0
C      1  0.4441800000000  0.5359870000000  0.4762080000000 1.0
C      1  0.4320520000000  0.5251840000000  0.5230250000000 1.0
C      1  0.4622520000000  0.4872960000000  0.5137010000000 1.0
C      1  0.5386190000000  0.4759030000000  0.4676770000000 1.0
C      1  0.4338170000000  0.4840260000000  0.4767280000000 1.0
C      1  0.5128550000000  0.5125030000000  0.4408340000000 1.0
C      1  0.5058820000000  0.4269660000000  0.4992650000000 1.0
C      1  0.4337390000000  0.4661000000000  0.4540510000000 1.0
C      1  0.5598890000000  0.5030200000000  0.5066620000000 1.0
C      1  0.4466690000000  0.5381900000000  0.5043320000000 1.0
C      1  0.4751000000000  0.5100690000000  0.5544850000000 1.0
C      1  0.4937640000000  0.4642060000000  0.5527460000000 1.0
C      1  0.4791520000000  0.5522420000000  0.4428930000000 1.0
C      1  0.5113100000000  0.4259200000000  0.5241990000000 1.0
C      1  0.5353660000000  0.5343020000000  0.5320480000000 1.0
C      1  0.5542550000000  0.4899860000000  0.5557380000000 1.0
C      1  0.4170670000000  0.4871620000000  0.4996240000000 1.0
C      1  0.5659420000000  0.4720220000000  0.4718720000000 1.0
C      1  0.5362180000000  0.5215900000000  0.5042330000000 1.0
C      1  0.5707230000000  0.4976340000000  0.4812730000000 1.0
C      1  0.4728380000000  0.5053030000000  0.4665560000000 1.0
C      1  0.4725840000000  0.4541020000000  0.4760450000000 1.0
C      1  0.4762940000000  0.4742470000000  0.4318550000000 1.0
C      1  0.5564660000000  0.5335990000000  0.5496480000000 1.0
C      1  0.5285960000000  0.4708900000000  0.5210570000000 1.0
C      1  0.4997490000000  0.4497610000000  0.4839210000000 1.0
C      1  0.4808980000000  0.5077990000000  0.4947510000000 1.0
C      1  0.5370730000000  0.5012380000000  0.4498960000000 1.0
C      1  0.4888190000000  0.5030320000000  0.5775580000000 1.0
C      1  0.4664570000000  0.5523440000000  0.4667620000000 1.0
C      1  0.5594540000000  0.5161860000000  0.4601400000000 1.0
C      1  0.5383180000000  0.5423400000000  0.4819760000000 1.0
C      1  0.5601450000000  0.5427750000000  0.4645000000000 1.0
C      1  0.4450230000000  0.5092290000000  0.4668270000000 1.0
C      1  0.5337760000000  0.4825660000000  0.5718660000000 1.0
END
