TITL C-21916-2349-6 -0.0763058651009748 125000 -790.757570958929 0 0 112 (C1) n - 1
REM
REM in /rds/project/t2_vol4/rds-t2-cs072/BORA/CARBON/from-Arr/AIRSS/Generating-Clusters/GAP-ML-2020/Only-C1/SD-CG/HFTN-CG
REM
REM
REM
REM
REM
REM ./C.cell (11c1c37f851c82e70ff6c80c92926a4b)
REM AIRSS Version 0.9.1 bugfix July 2018 build 013d7b7c2542+ Fri, 06 Jul 2018 19:26:36 +0100
REM compiler GCC version 9.3.0
REM options -cpp -mtune=generic -march=x86-64 -g -O0
REM seed 323043127 -1832747863 795020077 -1873535277 -1427218049 -37072275 -1179794922 732600084 2037543478 691089634 -2115782025 155897931 -1955938896 -359185072 1801450568 1753380509 450512896 1451903786 -964669582 -770216026 -401564257 510148542 1797950769 -605011061 -1397809431 1785157625 -1527206795 -852679922 -1592596490 -858836166 -1669515368 416487001 399800806
REM
CELL 1.54180   50.00000   50.00000   50.00000   90.00000   90.00000   90.00000
LATT -1
SFAC C  
C      1  0.5242530000000  0.4254320000000  0.4754870000000 1.0
C      1  0.5054400000000  0.4274900000000  0.5207900000000 1.0
C      1  0.4758500000000  0.4951710000000  0.5348270000000 1.0
C      1  0.5377290000000  0.5686960000000  0.5502350000000 1.0
C      1  0.5309190000000  0.5809100000000  0.5255270000000 1.0
C      1  0.5368650000000  0.4984780000000  0.5776570000000 1.0
C      1  0.4644710000000  0.5736460000000  0.4517670000000 1.0
C      1  0.4562660000000  0.4965570000000  0.5819380000000 1.0
C      1  0.5443430000000  0.4760310000000  0.4264070000000 1.0
C      1  0.5697270000000  0.4741770000000  0.5459150000000 1.0
C      1  0.4605650000000  0.4175210000000  0.5125380000000 1.0
C      1  0.4603130000000  0.5003810000000  0.4838700000000 1.0
C      1  0.5181470000000  0.5287920000000  0.4086840000000 1.0
C      1  0.4668020000000  0.5522330000000  0.5352940000000 1.0
C      1  0.5528910000000  0.4686240000000  0.4980380000000 1.0
C      1  0.4337330000000  0.5095500000000  0.4529120000000 1.0
C      1  0.5620680000000  0.4494040000000  0.4639580000000 1.0
C      1  0.4955590000000  0.4393200000000  0.4343820000000 1.0
C      1  0.5356900000000  0.5663410000000  0.4536370000000 1.0
C      1  0.4550940000000  0.4513280000000  0.5714140000000 1.0
C      1  0.4414910000000  0.5482210000000  0.4869690000000 1.0
C      1  0.4258920000000  0.4651980000000  0.4715400000000 1.0
C      1  0.5048030000000  0.4802630000000  0.5021420000000 1.0
C      1  0.5611360000000  0.4988170000000  0.4352120000000 1.0
C      1  0.5887150000000  0.5034740000000  0.5013810000000 1.0
C      1  0.4085520000000  0.4787590000000  0.4904480000000 1.0
C      1  0.5542570000000  0.4358720000000  0.5162090000000 1.0
C      1  0.5103340000000  0.5643940000000  0.4396640000000 1.0
C      1  0.4685690000000  0.5536260000000  0.5040150000000 1.0
C      1  0.4809570000000  0.5020620000000  0.5071490000000 1.0
C      1  0.4919700000000  0.5128580000000  0.5521070000000 1.0
C      1  0.5201900000000  0.4783170000000  0.4113260000000 1.0
C      1  0.5021140000000  0.5821510000000  0.5248970000000 1.0
C      1  0.5484090000000  0.4371220000000  0.4869630000000 1.0
C      1  0.4816540000000  0.5147400000000  0.4650060000000 1.0
C      1  0.4806210000000  0.5027150000000  0.4126000000000 1.0
C      1  0.5720930000000  0.5425470000000  0.4764810000000 1.0
C      1  0.5506780000000  0.4711180000000  0.5661030000000 1.0
C      1  0.5833710000000  0.4749740000000  0.4985660000000 1.0
C      1  0.4759500000000  0.5253710000000  0.4317910000000 1.0
C      1  0.5459160000000  0.5770870000000  0.5015210000000 1.0
C      1  0.4732820000000  0.4753910000000  0.4155280000000 1.0
C      1  0.5324090000000  0.4901730000000  0.5034820000000 1.0
C      1  0.4728250000000  0.4392090000000  0.5537530000000 1.0
C      1  0.4137530000000  0.5215000000000  0.5265750000000 1.0
C      1  0.5314170000000  0.4517860000000  0.5566220000000 1.0
C      1  0.5666610000000  0.5012310000000  0.5395950000000 1.0
C      1  0.4873500000000  0.5305330000000  0.4923110000000 1.0
C      1  0.4336610000000  0.4634160000000  0.5559750000000 1.0
C      1  0.4543660000000  0.4642450000000  0.4338250000000 1.0
C      1  0.5054590000000  0.4976700000000  0.4636970000000 1.0
C      1  0.5316970000000  0.4335560000000  0.5339030000000 1.0
C      1  0.4295060000000  0.4756770000000  0.5099280000000 1.0
C      1  0.5179590000000  0.4962300000000  0.5535830000000 1.0
C      1  0.5665400000000  0.5569370000000  0.5017720000000 1.0
C      1  0.5438600000000  0.5287670000000  0.5739830000000 1.0
C      1  0.4564100000000  0.4255820000000  0.4656520000000 1.0
C      1  0.5825820000000  0.5178090000000  0.5246800000000 1.0
C      1  0.4476280000000  0.5541380000000  0.4579490000000 1.0
C      1  0.4367110000000  0.4325130000000  0.5091280000000 1.0
C      1  0.4534500000000  0.5348780000000  0.5548470000000 1.0
C      1  0.5208140000000  0.4351380000000  0.4483130000000 1.0
C      1  0.4906930000000  0.5789400000000  0.4544380000000 1.0
C      1  0.4982590000000  0.4722860000000  0.4747120000000 1.0
C      1  0.5838510000000  0.5161610000000  0.4767310000000 1.0
C      1  0.4349550000000  0.4924140000000  0.5634170000000 1.0
C      1  0.5156300000000  0.5313330000000  0.4950450000000 1.0
C      1  0.5347490000000  0.5047830000000  0.5300490000000 1.0
C      1  0.4168710000000  0.5041980000000  0.5020470000000 1.0
C      1  0.5806780000000  0.4701660000000  0.4699920000000 1.0
C      1  0.4290170000000  0.4539850000000  0.5283690000000 1.0
C      1  0.4847660000000  0.4650860000000  0.5413130000000 1.0
C      1  0.4480810000000  0.5311180000000  0.4407330000000 1.0
C      1  0.4727380000000  0.5201250000000  0.5752570000000 1.0
C      1  0.4308540000000  0.5178590000000  0.5499310000000 1.0
C      1  0.5227180000000  0.5311240000000  0.5222780000000 1.0
C      1  0.4760900000000  0.4555100000000  0.4902600000000 1.0
C      1  0.4978820000000  0.4602780000000  0.4155870000000 1.0
C      1  0.4872670000000  0.5796430000000  0.5017630000000 1.0
C      1  0.5570650000000  0.5474480000000  0.4523890000000 1.0
C      1  0.5565240000000  0.5479700000000  0.5526420000000 1.0
C      1  0.4344810000000  0.4802170000000  0.4478280000000 1.0
C      1  0.5269440000000  0.5089150000000  0.4806920000000 1.0
C      1  0.5724430000000  0.4583280000000  0.5221200000000 1.0
C      1  0.4987800000000  0.5225540000000  0.5922260000000 1.0
C      1  0.5037470000000  0.4170410000000  0.4926350000000 1.0
C      1  0.5025500000000  0.5865720000000  0.4790570000000 1.0
C      1  0.4062270000000  0.5481240000000  0.5196490000000 1.0
C      1  0.4670330000000  0.4395060000000  0.4432360000000 1.0
C      1  0.4749380000000  0.4191490000000  0.4874410000000 1.0
C      1  0.4523790000000  0.4732130000000  0.4890060000000 1.0
C      1  0.4164920000000  0.5610610000000  0.5004000000000 1.0
C      1  0.4932220000000  0.4563000000000  0.5153540000000 1.0
C      1  0.5721450000000  0.5441600000000  0.5274710000000 1.0
C      1  0.5556780000000  0.5273710000000  0.4307730000000 1.0
C      1  0.5785100000000  0.4953960000000  0.4570460000000 1.0
C      1  0.4968400000000  0.4743750000000  0.5875040000000 1.0
C      1  0.4786370000000  0.4203280000000  0.5340910000000 1.0
C      1  0.5118280000000  0.4972340000000  0.5956100000000 1.0
C      1  0.4350050000000  0.5170870000000  0.4823240000000 1.0
C      1  0.5448950000000  0.5352940000000  0.4059490000000 1.0
C      1  0.4333840000000  0.4365750000000  0.4794930000000 1.0
C      1  0.5309150000000  0.5813090000000  0.4776850000000 1.0
C      1  0.5072090000000  0.4676100000000  0.5602020000000 1.0
C      1  0.4686260000000  0.4719040000000  0.5878540000000 1.0
C      1  0.5007090000000  0.5374320000000  0.5399890000000 1.0
C      1  0.5076550000000  0.5028960000000  0.4046170000000 1.0
C      1  0.5137320000000  0.5614360000000  0.5644040000000 1.0
C      1  0.5438400000000  0.4518790000000  0.4424220000000 1.0
C      1  0.4994450000000  0.5433480000000  0.4243950000000 1.0
C      1  0.4911480000000  0.5658510000000  0.5457220000000 1.0
C      1  0.5191350000000  0.5409620000000  0.5833830000000 1.0
END
