TITL C-21938-1686-3 -23.1071927274036 125000 -828.437473683253 0 0 118 (C1) n - 1
REM
REM in /rds/project/t2_vol4/rds-t2-cs072/BORA/CARBON/from-Arr/AIRSS/Generating-Clusters/GAP-ML-2020/Only-C1/SD-CG/HFTN-CG
REM
REM
REM
REM
REM
REM ./C.cell (11c1c37f851c82e70ff6c80c92926a4b)
REM AIRSS Version 0.9.1 bugfix July 2018 build 013d7b7c2542+ Fri, 06 Jul 2018 19:26:36 +0100
REM compiler GCC version 9.3.0
REM options -cpp -mtune=generic -march=x86-64 -g -O0
REM seed -1169264170 -649528457 932026550 757152424 1001162054 -762812286 145057859 -1626964531 1725682088 -1356887612 924662631 1509916964 -1056550916 -786628576 1584002198 -1778398199 819544693 -1020619952 948403224 1953278387 1462744774 1243642110 -1730985394 -706885401 -44750983 -702582856 30407153 1202170219 788854211 1645272093 -908886760 -1712738845 570217407
REM
CELL 1.54180   50.00000   50.00000   50.00000   90.00000   90.00000   90.00000
LATT -1
SFAC C  
C      1  0.5077880000000  0.5477890000000  0.4911070000000 1.0
C      1  0.5090310000000  0.5923720000000  0.4714820000000 1.0
C      1  0.4158080000000  0.5174650000000  0.4758120000000 1.0
C      1  0.4149970000000  0.5256720000000  0.5034620000000 1.0
C      1  0.4585520000000  0.5797560000000  0.4691250000000 1.0
C      1  0.4865380000000  0.5073040000000  0.4914590000000 1.0
C      1  0.4661420000000  0.4295050000000  0.4440080000000 1.0
C      1  0.4465370000000  0.4418340000000  0.4607030000000 1.0
C      1  0.4108950000000  0.4655950000000  0.4854870000000 1.0
C      1  0.4162540000000  0.4435170000000  0.4684420000000 1.0
C      1  0.4534360000000  0.4991690000000  0.5840930000000 1.0
C      1  0.5471160000000  0.5282830000000  0.5238980000000 1.0
C      1  0.5229800000000  0.5091020000000  0.5227570000000 1.0
C      1  0.5913890000000  0.4921360000000  0.5161670000000 1.0
C      1  0.5133850000000  0.4629150000000  0.5335840000000 1.0
C      1  0.5196910000000  0.5578600000000  0.4294520000000 1.0
C      1  0.5810170000000  0.4687330000000  0.5055890000000 1.0
C      1  0.5166090000000  0.5953600000000  0.5004380000000 1.0
C      1  0.4737960000000  0.4472290000000  0.4213220000000 1.0
C      1  0.5980630000000  0.5393820000000  0.4976120000000 1.0
C      1  0.5473380000000  0.5475190000000  0.5468980000000 1.0
C      1  0.5161100000000  0.4649180000000  0.4124470000000 1.0
C      1  0.5572130000000  0.5052260000000  0.4146500000000 1.0
C      1  0.4925230000000  0.5111370000000  0.5988090000000 1.0
C      1  0.4750950000000  0.4474690000000  0.5667120000000 1.0
C      1  0.5658360000000  0.5295800000000  0.4283650000000 1.0
C      1  0.5383080000000  0.5838720000000  0.5143170000000 1.0
C      1  0.5605680000000  0.4837910000000  0.5701630000000 1.0
C      1  0.5205210000000  0.4646140000000  0.5842230000000 1.0
C      1  0.4967910000000  0.5520880000000  0.5716160000000 1.0
C      1  0.5327410000000  0.5712530000000  0.5403010000000 1.0
C      1  0.4330010000000  0.5273130000000  0.5465500000000 1.0
C      1  0.4139790000000  0.4897290000000  0.4678540000000 1.0
C      1  0.5004230000000  0.4091870000000  0.5103670000000 1.0
C      1  0.4963040000000  0.4874740000000  0.4102640000000 1.0
C      1  0.4549880000000  0.5510960000000  0.4672080000000 1.0
C      1  0.4516960000000  0.4584380000000  0.5488870000000 1.0
C      1  0.5096700000000  0.4920110000000  0.5443660000000 1.0
C      1  0.4893890000000  0.4268080000000  0.5532940000000 1.0
C      1  0.4909710000000  0.4641260000000  0.5843040000000 1.0
C      1  0.5079180000000  0.5311440000000  0.5893840000000 1.0
C      1  0.5638850000000  0.4891170000000  0.4599650000000 1.0
C      1  0.5705220000000  0.5221630000000  0.4571140000000 1.0
C      1  0.4786320000000  0.4887450000000  0.5942980000000 1.0
C      1  0.5978550000000  0.5183680000000  0.5167590000000 1.0
C      1  0.4694040000000  0.5470120000000  0.5662130000000 1.0
C      1  0.4599450000000  0.5649550000000  0.5465030000000 1.0
C      1  0.4896340000000  0.4634240000000  0.5155520000000 1.0
C      1  0.4841690000000  0.5723120000000  0.5300700000000 1.0
C      1  0.4507880000000  0.4810040000000  0.5011160000000 1.0
C      1  0.4280210000000  0.4744420000000  0.5582850000000 1.0
C      1  0.5584040000000  0.4597280000000  0.5550760000000 1.0
C      1  0.5061140000000  0.5151240000000  0.4108470000000 1.0
C      1  0.4366020000000  0.5530180000000  0.5360220000000 1.0
C      1  0.4478890000000  0.4927050000000  0.4293190000000 1.0
C      1  0.4337030000000  0.5319220000000  0.4581440000000 1.0
C      1  0.4932950000000  0.5202070000000  0.5185700000000 1.0
C      1  0.5279270000000  0.4886070000000  0.5001260000000 1.0
C      1  0.4893240000000  0.5927950000000  0.5087280000000 1.0
C      1  0.5178430000000  0.4334140000000  0.5468120000000 1.0
C      1  0.5732130000000  0.5134490000000  0.5317460000000 1.0
C      1  0.5334570000000  0.4919600000000  0.4698630000000 1.0
C      1  0.4242070000000  0.4521760000000  0.4439420000000 1.0
C      1  0.4803370000000  0.5024230000000  0.5402660000000 1.0
C      1  0.5425110000000  0.4380630000000  0.5040220000000 1.0
C      1  0.5348400000000  0.4468930000000  0.5659810000000 1.0
C      1  0.4992900000000  0.4815230000000  0.4949350000000 1.0
C      1  0.4569460000000  0.4258800000000  0.5175080000000 1.0
C      1  0.5536830000000  0.5691240000000  0.4940340000000 1.0
C      1  0.4627910000000  0.4607720000000  0.4793960000000 1.0
C      1  0.4698470000000  0.4766970000000  0.4175960000000 1.0
C      1  0.4584260000000  0.5091790000000  0.4919420000000 1.0
C      1  0.4739400000000  0.4400710000000  0.4978120000000 1.0
C      1  0.4669320000000  0.4781780000000  0.5276400000000 1.0
C      1  0.5408030000000  0.4616640000000  0.4278320000000 1.0
C      1  0.4586860000000  0.5185590000000  0.5612130000000 1.0
C      1  0.4576670000000  0.5414220000000  0.4952220000000 1.0
C      1  0.5063690000000  0.5691790000000  0.5501850000000 1.0
C      1  0.4323230000000  0.5474900000000  0.5087440000000 1.0
C      1  0.5590960000000  0.4823340000000  0.4311920000000 1.0
C      1  0.4788760000000  0.4135420000000  0.5309550000000 1.0
C      1  0.5015480000000  0.4417850000000  0.4189880000000 1.0
C      1  0.4881890000000  0.4745470000000  0.4698760000000 1.0
C      1  0.4968670000000  0.5393790000000  0.4257240000000 1.0
C      1  0.5464280000000  0.5661940000000  0.4645530000000 1.0
C      1  0.5817160000000  0.5606030000000  0.4906860000000 1.0
C      1  0.4243110000000  0.4663850000000  0.5123380000000 1.0
C      1  0.5524210000000  0.4437410000000  0.4765220000000 1.0
C      1  0.4806770000000  0.5899700000000  0.4801420000000 1.0
C      1  0.5247200000000  0.4202170000000  0.5198060000000 1.0
C      1  0.5688320000000  0.5088320000000  0.5598490000000 1.0
C      1  0.4896670000000  0.4172960000000  0.4567020000000 1.0
C      1  0.5881800000000  0.5401620000000  0.4720400000000 1.0
C      1  0.4161320000000  0.4841080000000  0.5342580000000 1.0
C      1  0.4984410000000  0.5266090000000  0.4713230000000 1.0
C      1  0.4287730000000  0.4859910000000  0.5834570000000 1.0
C      1  0.5241940000000  0.5173040000000  0.4611180000000 1.0
C      1  0.4766350000000  0.5344100000000  0.4480700000000 1.0
C      1  0.5145940000000  0.4706070000000  0.4600030000000 1.0
C      1  0.5716350000000  0.4653240000000  0.4783420000000 1.0
C      1  0.4253000000000  0.4807640000000  0.4428630000000 1.0
C      1  0.5239080000000  0.5765800000000  0.4522210000000 1.0
C      1  0.4379540000000  0.4431000000000  0.5278430000000 1.0
C      1  0.5120360000000  0.4274510000000  0.4415190000000 1.0
C      1  0.5335340000000  0.5179200000000  0.5874550000000 1.0
C      1  0.5523490000000  0.5299660000000  0.5693640000000 1.0
C      1  0.5332800000000  0.4452600000000  0.4526840000000 1.0
C      1  0.4158610000000  0.5120470000000  0.5288750000000 1.0
C      1  0.5626810000000  0.4581800000000  0.5258880000000 1.0
C      1  0.4518790000000  0.5185590000000  0.4407030000000 1.0
C      1  0.4882770000000  0.4166420000000  0.4853190000000 1.0
C      1  0.5371940000000  0.4885100000000  0.5866550000000 1.0
C      1  0.4851230000000  0.5476450000000  0.5103720000000 1.0
C      1  0.5422430000000  0.5442040000000  0.4188350000000 1.0
C      1  0.5335650000000  0.5191450000000  0.4053610000000 1.0
C      1  0.5364740000000  0.4642600000000  0.5152240000000 1.0
C      1  0.5388340000000  0.5420500000000  0.4975320000000 1.0
C      1  0.5459450000000  0.5348510000000  0.4689680000000 1.0
END
