TITL C-21921-2290-9 0.0222228718990492 125000 -477.254390956834 0 0 69 (C1) n - 1
REM
REM in /rds/project/t2_vol4/rds-t2-cs072/BORA/CARBON/from-Arr/AIRSS/Generating-Clusters/GAP-ML-2020/Only-C1/SD-CG/HFTN-CG
REM
REM
REM
REM
REM
REM ./C.cell (11c1c37f851c82e70ff6c80c92926a4b)
REM AIRSS Version 0.9.1 bugfix July 2018 build 013d7b7c2542+ Fri, 06 Jul 2018 19:26:36 +0100
REM compiler GCC version 9.3.0
REM options -cpp -mtune=generic -march=x86-64 -g -O0
REM seed -1782809205 318502208 606534943 -1345863043 -121997025 -1027468969 -1644683614 -1232611504 240458662 1737409152 312483182 -1716444478 -1161772211 963300350 127097284 1565771666 1980905592 505013496 1578286965 1385731096 1600892929 1694670399 253555825 -149971635 102178433 -2083497412 1305717383 -1849142433 -1521546136 620900514 -836598441 1880696438 -286992501
REM
CELL 1.54180   50.00000   50.00000   50.00000   90.00000   90.00000   90.00000
LATT -1
SFAC C  
C      1  0.5765790000000  0.4550320000000  0.5014140000000 1.0
C      1  0.4593160000000  0.5439350000000  0.5286670000000 1.0
C      1  0.4838470000000  0.4356930000000  0.5372810000000 1.0
C      1  0.4906780000000  0.5782740000000  0.5025240000000 1.0
C      1  0.5691220000000  0.4729010000000  0.5211830000000 1.0
C      1  0.4800220000000  0.5249900000000  0.5188270000000 1.0
C      1  0.5298420000000  0.5075470000000  0.5412200000000 1.0
C      1  0.5293580000000  0.5031120000000  0.4371550000000 1.0
C      1  0.4759280000000  0.5024050000000  0.5609990000000 1.0
C      1  0.4795870000000  0.4704240000000  0.4343640000000 1.0
C      1  0.4439440000000  0.5115720000000  0.4572800000000 1.0
C      1  0.5097910000000  0.4653220000000  0.5632130000000 1.0
C      1  0.4821180000000  0.4303820000000  0.5093300000000 1.0
C      1  0.5531390000000  0.5615430000000  0.4791160000000 1.0
C      1  0.5351500000000  0.5419070000000  0.4651510000000 1.0
C      1  0.5192250000000  0.5758800000000  0.5090050000000 1.0
C      1  0.4326540000000  0.4812560000000  0.4915350000000 1.0
C      1  0.4658500000000  0.5425970000000  0.5581560000000 1.0
C      1  0.5290010000000  0.4750540000000  0.4458070000000 1.0
C      1  0.4518100000000  0.4706410000000  0.5327620000000 1.0
C      1  0.5508130000000  0.4729640000000  0.4652760000000 1.0
C      1  0.5551470000000  0.5437060000000  0.5239290000000 1.0
C      1  0.5168540000000  0.5066250000000  0.4916050000000 1.0
C      1  0.4838260000000  0.4777810000000  0.4938620000000 1.0
C      1  0.5675030000000  0.5429370000000  0.4974650000000 1.0
C      1  0.5718090000000  0.5010800000000  0.5178060000000 1.0
C      1  0.5327020000000  0.4419580000000  0.5301110000000 1.0
C      1  0.5311950000000  0.4377950000000  0.5017530000000 1.0
C      1  0.4735010000000  0.4975610000000  0.5310380000000 1.0
C      1  0.5101320000000  0.4411520000000  0.5470350000000 1.0
C      1  0.5084750000000  0.5421720000000  0.4515080000000 1.0
C      1  0.5043680000000  0.4587380000000  0.4451810000000 1.0
C      1  0.4572730000000  0.4636790000000  0.4520910000000 1.0
C      1  0.4947320000000  0.4397220000000  0.4653910000000 1.0
C      1  0.4767590000000  0.4894400000000  0.4149120000000 1.0
C      1  0.5260570000000  0.5490030000000  0.5204250000000 1.0
C      1  0.4908930000000  0.5008340000000  0.4805270000000 1.0
C      1  0.4909060000000  0.5305310000000  0.5613100000000 1.0
C      1  0.5528370000000  0.4530660000000  0.4872430000000 1.0
C      1  0.5723820000000  0.5142000000000  0.4923070000000 1.0
C      1  0.4808670000000  0.5145740000000  0.4260840000000 1.0
C      1  0.4672540000000  0.4554880000000  0.5501330000000 1.0
C      1  0.4662530000000  0.4427430000000  0.4683300000000 1.0
C      1  0.5083590000000  0.5309170000000  0.5371040000000 1.0
C      1  0.4944060000000  0.4806370000000  0.5196590000000 1.0
C      1  0.4749780000000  0.5237840000000  0.4886790000000 1.0
C      1  0.4740240000000  0.5674130000000  0.4829730000000 1.0
C      1  0.4515550000000  0.5187420000000  0.5659000000000 1.0
C      1  0.4662090000000  0.5679490000000  0.5107840000000 1.0
C      1  0.4429240000000  0.4601980000000  0.5078360000000 1.0
C      1  0.5632300000000  0.4998140000000  0.4686020000000 1.0
C      1  0.5495150000000  0.4634450000000  0.5399330000000 1.0
C      1  0.4445460000000  0.5220100000000  0.4834860000000 1.0
C      1  0.5197100000000  0.4933090000000  0.5158180000000 1.0
C      1  0.4810800000000  0.5440560000000  0.4647180000000 1.0
C      1  0.5480880000000  0.5176470000000  0.4524950000000 1.0
C      1  0.4297280000000  0.5084720000000  0.5027300000000 1.0
C      1  0.4640660000000  0.5273880000000  0.4448200000000 1.0
C      1  0.4406020000000  0.4836660000000  0.4633810000000 1.0
C      1  0.4271350000000  0.5181280000000  0.5526980000000 1.0
C      1  0.4325950000000  0.5239750000000  0.5264330000000 1.0
C      1  0.5050140000000  0.4317640000000  0.4914200000000 1.0
C      1  0.5397850000000  0.5818300000000  0.4918790000000 1.0
C      1  0.5240750000000  0.5331540000000  0.4928500000000 1.0
C      1  0.5566720000000  0.5178780000000  0.5351710000000 1.0
C      1  0.5327350000000  0.4807460000000  0.5553550000000 1.0
C      1  0.4829700000000  0.4735740000000  0.5669210000000 1.0
C      1  0.4585340000000  0.4394400000000  0.4956010000000 1.0
C      1  0.5079650000000  0.5218470000000  0.4324450000000 1.0
END
