TITL C-21698-8301-2 -366.749027472369 125000 -736.780397222709 0 0 107 (C1) n - 1
REM
REM in /rds/project/t2_vol4/rds-t2-cs072/BORA/CARBON/from-Arr/AIRSS/Generating-Clusters/GAP-ML-2020/Only-C1/SD-CG/HFTN-CG
REM
REM
REM
REM
REM
REM ./C.cell (11c1c37f851c82e70ff6c80c92926a4b)
REM AIRSS Version 0.9.1 bugfix July 2018 build 013d7b7c2542+ Fri, 06 Jul 2018 19:26:36 +0100
REM compiler GCC version 9.3.0
REM options -cpp -mtune=generic -march=x86-64 -g -O0
REM seed 235062096 1437509880 731943446 749197494 905723821 1329001522 -1888831814 -2108455241 -1178638772 837239503 -158977072 -889137074 700354816 -2088766795 319399718 2118302622 -1502846270 -1094352877 238634562 -324143290 -1163919908 -48573804 -1445195570 1181098891 2126924584 1979775678 -863932887 216867006 -134311431 844622516 -710942922 900024502 -586460149
REM
CELL 1.54180   50.00000   50.00000   50.00000   90.00000   90.00000   90.00000
LATT -1
SFAC C  
C      1  0.5308740000000  0.4331400000000  0.4421600000000 1.0
C      1  0.5175590000000  0.5717500000000  0.5429750000000 1.0
C      1  0.5336060000000  0.5370300000000  0.5887780000000 1.0
C      1  0.5434760000000  0.5115170000000  0.5851070000000 1.0
C      1  0.4509100000000  0.4841390000000  0.5724160000000 1.0
C      1  0.5293260000000  0.5424350000000  0.4561850000000 1.0
C      1  0.4848040000000  0.5031580000000  0.4216330000000 1.0
C      1  0.5612360000000  0.5365410000000  0.5473940000000 1.0
C      1  0.4458210000000  0.5516990000000  0.5527730000000 1.0
C      1  0.5037240000000  0.5026910000000  0.5257350000000 1.0
C      1  0.5566560000000  0.4407940000000  0.5384020000000 1.0
C      1  0.4167380000000  0.5226060000000  0.5223780000000 1.0
C      1  0.5152430000000  0.4661880000000  0.4898120000000 1.0
C      1  0.4226090000000  0.4523590000000  0.5159790000000 1.0
C      1  0.5221740000000  0.5219550000000  0.4794610000000 1.0
C      1  0.4716070000000  0.4088100000000  0.4769240000000 1.0
C      1  0.5574020000000  0.4650110000000  0.5562270000000 1.0
C      1  0.4676400000000  0.5070370000000  0.5795260000000 1.0
C      1  0.4398230000000  0.5376330000000  0.5276390000000 1.0
C      1  0.5389450000000  0.5577740000000  0.5101850000000 1.0
C      1  0.5165360000000  0.4156010000000  0.5226470000000 1.0
C      1  0.4915270000000  0.5551080000000  0.4307580000000 1.0
C      1  0.4957680000000  0.4429230000000  0.4898400000000 1.0
C      1  0.4964880000000  0.4891270000000  0.4480670000000 1.0
C      1  0.4442660000000  0.5692210000000  0.4782870000000 1.0
C      1  0.5235760000000  0.4095510000000  0.4959320000000 1.0
C      1  0.5309440000000  0.4637580000000  0.5142420000000 1.0
C      1  0.5449750000000  0.4911600000000  0.5139960000000 1.0
C      1  0.5002720000000  0.5861970000000  0.5230930000000 1.0
C      1  0.5126230000000  0.5889600000000  0.4716970000000 1.0
C      1  0.5057800000000  0.5621130000000  0.4578270000000 1.0
C      1  0.4707450000000  0.4555610000000  0.4795010000000 1.0
C      1  0.4573320000000  0.5258890000000  0.5608800000000 1.0
C      1  0.5378640000000  0.5991710000000  0.4742790000000 1.0
C      1  0.4538150000000  0.4292530000000  0.4808650000000 1.0
C      1  0.5271760000000  0.5270610000000  0.4313210000000 1.0
C      1  0.4553170000000  0.5031720000000  0.4285530000000 1.0
C      1  0.5505510000000  0.4321030000000  0.4627620000000 1.0
C      1  0.5322320000000  0.4670210000000  0.5713990000000 1.0
C      1  0.5763180000000  0.4978700000000  0.5224940000000 1.0
C      1  0.5854170000000  0.4861740000000  0.4966060000000 1.0
C      1  0.4898610000000  0.4801280000000  0.4046780000000 1.0
C      1  0.4324050000000  0.5166620000000  0.4407500000000 1.0
C      1  0.5047010000000  0.5482650000000  0.5515910000000 1.0
C      1  0.5655900000000  0.5440480000000  0.5041170000000 1.0
C      1  0.4470070000000  0.5640470000000  0.4489920000000 1.0
C      1  0.4633660000000  0.4306900000000  0.5266520000000 1.0
C      1  0.4531350000000  0.4435140000000  0.5500940000000 1.0
C      1  0.4695630000000  0.4804740000000  0.4974580000000 1.0
C      1  0.5046020000000  0.4246430000000  0.4482490000000 1.0
C      1  0.5048790000000  0.4567740000000  0.5348020000000 1.0
C      1  0.5763260000000  0.4597300000000  0.4920900000000 1.0
C      1  0.5185000000000  0.4458100000000  0.5582980000000 1.0
C      1  0.5274040000000  0.4817380000000  0.4428450000000 1.0
C      1  0.5421510000000  0.5578390000000  0.5394810000000 1.0
C      1  0.4160400000000  0.4962580000000  0.4837240000000 1.0
C      1  0.5728680000000  0.5034770000000  0.4763280000000 1.0
C      1  0.5003130000000  0.4567310000000  0.4136870000000 1.0
C      1  0.5448050000000  0.5056230000000  0.4355900000000 1.0
C      1  0.4869650000000  0.4793990000000  0.5399650000000 1.0
C      1  0.5440290000000  0.5007360000000  0.4850830000000 1.0
C      1  0.4501150000000  0.4797520000000  0.4441480000000 1.0
C      1  0.4747670000000  0.5268680000000  0.4750610000000 1.0
C      1  0.4966670000000  0.5086300000000  0.5830600000000 1.0
C      1  0.5666330000000  0.5165450000000  0.4523550000000 1.0
C      1  0.4697450000000  0.5744020000000  0.4945390000000 1.0
C      1  0.5366200000000  0.4756130000000  0.4701610000000 1.0
C      1  0.4278350000000  0.4929990000000  0.4578940000000 1.0
C      1  0.5478680000000  0.4218720000000  0.4893550000000 1.0
C      1  0.5335390000000  0.4251930000000  0.5438830000000 1.0
C      1  0.4155330000000  0.5237450000000  0.4940370000000 1.0
C      1  0.4880820000000  0.5517860000000  0.4826780000000 1.0
C      1  0.4963150000000  0.5074250000000  0.4722140000000 1.0
C      1  0.4755300000000  0.4654950000000  0.4524390000000 1.0
C      1  0.4971210000000  0.4895060000000  0.4953030000000 1.0
C      1  0.4653540000000  0.5625360000000  0.4298210000000 1.0
C      1  0.4425470000000  0.4332280000000  0.5064530000000 1.0
C      1  0.4627040000000  0.4887560000000  0.5233410000000 1.0
C      1  0.5595200000000  0.5437580000000  0.4583730000000 1.0
C      1  0.5720150000000  0.4894760000000  0.5512080000000 1.0
C      1  0.5111790000000  0.5416810000000  0.5009310000000 1.0
C      1  0.4942770000000  0.5307870000000  0.5264810000000 1.0
C      1  0.4270330000000  0.4813790000000  0.5543320000000 1.0
C      1  0.4711900000000  0.5803120000000  0.5249040000000 1.0
C      1  0.5683470000000  0.5588960000000  0.4803520000000 1.0
C      1  0.5088710000000  0.5355140000000  0.5769230000000 1.0
C      1  0.5299290000000  0.5047820000000  0.5328570000000 1.0
C      1  0.4869290000000  0.4440790000000  0.4360580000000 1.0
C      1  0.5630480000000  0.5129010000000  0.5650180000000 1.0
C      1  0.4961460000000  0.5914570000000  0.4948810000000 1.0
C      1  0.4275300000000  0.5422640000000  0.4504540000000 1.0
C      1  0.5262750000000  0.4567280000000  0.4264160000000 1.0
C      1  0.5596340000000  0.4422390000000  0.5088270000000 1.0
C      1  0.4994860000000  0.4160600000000  0.4754710000000 1.0
C      1  0.5013700000000  0.5297480000000  0.4208680000000 1.0
C      1  0.4146810000000  0.4955660000000  0.5314940000000 1.0
C      1  0.4279370000000  0.4546050000000  0.5442090000000 1.0
C      1  0.5484270000000  0.5793590000000  0.4890710000000 1.0
C      1  0.4240870000000  0.5467510000000  0.4791260000000 1.0
C      1  0.4639730000000  0.5203940000000  0.5299110000000 1.0
C      1  0.4675720000000  0.4631800000000  0.5637840000000 1.0
C      1  0.4136140000000  0.4787430000000  0.5077130000000 1.0
C      1  0.5609220000000  0.4576840000000  0.4683110000000 1.0
C      1  0.5220230000000  0.4915110000000  0.5837810000000 1.0
C      1  0.4553120000000  0.5764240000000  0.5467220000000 1.0
C      1  0.4925970000000  0.4339930000000  0.5196300000000 1.0
C      1  0.5748920000000  0.5275300000000  0.5239440000000 1.0
END
