TITL C-214938-2332-4 0.0432208969573107 125000 -677.991532192899 0 0 97 (C1) n - 1
REM
REM in /rds/project/t2_vol4/rds-t2-cs072/BORA/CARBON/from-Arr/AIRSS/Generating-Clusters/GAP-ML-2020/Only-C1/SD-CG/HFTN-CG
REM
REM
REM
REM
REM
REM ./C.cell (11c1c37f851c82e70ff6c80c92926a4b)
REM AIRSS Version 0.9.1 bugfix July 2018 build 013d7b7c2542+ Fri, 06 Jul 2018 19:26:36 +0100
REM compiler GCC version 9.3.0
REM options -cpp -mtune=generic -march=x86-64 -g -O0
REM seed 1498130452 -86943920 1811483191 -1666338035 -653701704 996150866 393775374 2119811711 -666673857 -273892189 -1798015018 -528615697 -1776705923 -526061564 2070940844 -2146291927 1868981127 -1799767947 -1152725345 -88951372 37944391 1856170912 2057446961 -874644978 -316336928 2048927699 -311732591 -877143849 837220862 -1272368229 77043226 763499319 1729285931
REM
CELL 1.54180   50.00000   50.00000   50.00000   90.00000   90.00000   90.00000
LATT -1
SFAC C  
C      1  0.5874280000000  0.5044300000000  0.4948790000000 1.0
C      1  0.4640190000000  0.4604630000000  0.5479900000000 1.0
C      1  0.5317730000000  0.4378120000000  0.5606630000000 1.0
C      1  0.5104980000000  0.5353600000000  0.5328140000000 1.0
C      1  0.5033880000000  0.4722470000000  0.4126120000000 1.0
C      1  0.5358720000000  0.5859620000000  0.4822410000000 1.0
C      1  0.5071970000000  0.4447150000000  0.4215190000000 1.0
C      1  0.5156800000000  0.4616840000000  0.5062210000000 1.0
C      1  0.4579280000000  0.4452250000000  0.5225940000000 1.0
C      1  0.4193100000000  0.4428580000000  0.4897500000000 1.0
C      1  0.5705300000000  0.5529450000000  0.5102500000000 1.0
C      1  0.4537040000000  0.5694890000000  0.5294030000000 1.0
C      1  0.4616550000000  0.4500320000000  0.4289330000000 1.0
C      1  0.4636790000000  0.4379460000000  0.4723520000000 1.0
C      1  0.5718480000000  0.5277940000000  0.4648760000000 1.0
C      1  0.5553860000000  0.4323280000000  0.5267210000000 1.0
C      1  0.5126110000000  0.4300920000000  0.4672780000000 1.0
C      1  0.5299490000000  0.4208120000000  0.5378760000000 1.0
C      1  0.5807670000000  0.5325700000000  0.4923470000000 1.0
C      1  0.4648560000000  0.4581950000000  0.4958880000000 1.0
C      1  0.5240570000000  0.5160940000000  0.4208850000000 1.0
C      1  0.5336770000000  0.5394840000000  0.4328980000000 1.0
C      1  0.4358390000000  0.5385860000000  0.4735340000000 1.0
C      1  0.4858590000000  0.4252420000000  0.4583740000000 1.0
C      1  0.4844070000000  0.5767390000000  0.4829780000000 1.0
C      1  0.5050720000000  0.5393700000000  0.4845210000000 1.0
C      1  0.5589050000000  0.5724180000000  0.4929100000000 1.0
C      1  0.5063300000000  0.5377640000000  0.4279460000000 1.0
C      1  0.4462310000000  0.5084280000000  0.5526620000000 1.0
C      1  0.4587480000000  0.5319440000000  0.5645960000000 1.0
C      1  0.4586130000000  0.4994820000000  0.4395210000000 1.0
C      1  0.4209900000000  0.4551940000000  0.4649180000000 1.0
C      1  0.4157580000000  0.4835170000000  0.4654260000000 1.0
C      1  0.5289910000000  0.5410450000000  0.5722110000000 1.0
C      1  0.5083500000000  0.4215060000000  0.5197230000000 1.0
C      1  0.4287630000000  0.5006300000000  0.4464780000000 1.0
C      1  0.5522370000000  0.4352320000000  0.4988980000000 1.0
C      1  0.5116370000000  0.5775360000000  0.5453870000000 1.0
C      1  0.4907600000000  0.5658200000000  0.5624030000000 1.0
C      1  0.4190900000000  0.4917450000000  0.4935180000000 1.0
C      1  0.4932570000000  0.5438330000000  0.5119430000000 1.0
C      1  0.5122520000000  0.4801560000000  0.5758920000000 1.0
C      1  0.4826460000000  0.5499730000000  0.4680400000000 1.0
C      1  0.5424050000000  0.4708140000000  0.4429080000000 1.0
C      1  0.4315080000000  0.5614140000000  0.5163410000000 1.0
C      1  0.4807790000000  0.5446720000000  0.4390530000000 1.0
C      1  0.5759960000000  0.4962900000000  0.5435510000000 1.0
C      1  0.4287050000000  0.4486530000000  0.5145920000000 1.0
C      1  0.5269940000000  0.4876400000000  0.4225630000000 1.0
C      1  0.4696570000000  0.4895210000000  0.5493980000000 1.0
C      1  0.4247020000000  0.5020010000000  0.5339730000000 1.0
C      1  0.4626260000000  0.5288860000000  0.4806140000000 1.0
C      1  0.4955290000000  0.4728780000000  0.4536940000000 1.0
C      1  0.5450590000000  0.5181400000000  0.5707020000000 1.0
C      1  0.4828110000000  0.5231580000000  0.5785720000000 1.0
C      1  0.5645530000000  0.4734800000000  0.4614480000000 1.0
C      1  0.5015030000000  0.5445820000000  0.5784610000000 1.0
C      1  0.4936990000000  0.4912980000000  0.4752060000000 1.0
C      1  0.5524410000000  0.5696420000000  0.4664170000000 1.0
C      1  0.4852690000000  0.4979340000000  0.5203960000000 1.0
C      1  0.4906060000000  0.4746960000000  0.5002580000000 1.0
C      1  0.5144950000000  0.5128210000000  0.4805090000000 1.0
C      1  0.5605750000000  0.4767880000000  0.5579090000000 1.0
C      1  0.4213480000000  0.4767050000000  0.5192030000000 1.0
C      1  0.4777590000000  0.5718070000000  0.5117100000000 1.0
C      1  0.5299500000000  0.5058390000000  0.5034870000000 1.0
C      1  0.5396480000000  0.4902870000000  0.5732480000000 1.0
C      1  0.4580160000000  0.5286920000000  0.4337120000000 1.0
C      1  0.4212330000000  0.5431060000000  0.4985810000000 1.0
C      1  0.5206600000000  0.4509540000000  0.4477660000000 1.0
C      1  0.5547690000000  0.5461350000000  0.4508340000000 1.0
C      1  0.5878560000000  0.4884370000000  0.5180230000000 1.0
C      1  0.4318200000000  0.5293790000000  0.4476700000000 1.0
C      1  0.5097920000000  0.5885300000000  0.4921780000000 1.0
C      1  0.4847550000000  0.4433050000000  0.5563030000000 1.0
C      1  0.5824400000000  0.4649220000000  0.5058520000000 1.0
C      1  0.4451360000000  0.4461630000000  0.4522460000000 1.0
C      1  0.4763310000000  0.4765800000000  0.4285760000000 1.0
C      1  0.4170760000000  0.5163320000000  0.5090040000000 1.0
C      1  0.4639710000000  0.5593550000000  0.5550630000000 1.0
C      1  0.4835060000000  0.4317820000000  0.4307250000000 1.0
C      1  0.5090850000000  0.4527770000000  0.5682000000000 1.0
C      1  0.5684200000000  0.4548770000000  0.4846850000000 1.0
C      1  0.4737490000000  0.5230530000000  0.5076890000000 1.0
C      1  0.4885130000000  0.4960890000000  0.5729980000000 1.0
C      1  0.5330440000000  0.5554820000000  0.5467210000000 1.0
C      1  0.4658760000000  0.5008940000000  0.4701100000000 1.0
C      1  0.5016760000000  0.5875320000000  0.5205050000000 1.0
C      1  0.5576160000000  0.4492730000000  0.5512680000000 1.0
C      1  0.4826370000000  0.4282640000000  0.5317670000000 1.0
C      1  0.4491080000000  0.4828580000000  0.4874000000000 1.0
C      1  0.5771320000000  0.4988040000000  0.4681870000000 1.0
C      1  0.5604530000000  0.5476070000000  0.5367440000000 1.0
C      1  0.5656290000000  0.5225360000000  0.5507350000000 1.0
C      1  0.5129740000000  0.5085670000000  0.5262450000000 1.0
C      1  0.5219980000000  0.4329710000000  0.4943260000000 1.0
C      1  0.5355620000000  0.4801010000000  0.5088040000000 1.0
END
