TITL C-21789-4554-3 804.746186348711 125000 -862.268487556275 0 0 123 (C1) n - 1
REM
REM in /rds/project/t2_vol4/rds-t2-cs072/BORA/CARBON/from-Arr/AIRSS/Generating-Clusters/GAP-ML-2020/Only-C1/SD-CG/HFTN-CG
REM
REM
REM
REM
REM
REM ./C.cell (11c1c37f851c82e70ff6c80c92926a4b)
REM AIRSS Version 0.9.1 bugfix July 2018 build 013d7b7c2542+ Fri, 06 Jul 2018 19:26:36 +0100
REM compiler GCC version 9.3.0
REM options -cpp -mtune=generic -march=x86-64 -g -O0
REM seed -970801972 -1303946751 -1739163201 -6536656 1359251872 -995438221 -645436086 68508467 -1921612219 -874359218 -540757097 -357266071 -815593078 944451169 -1313248829 -228177613 -642151079 840295757 625844886 1293142236 1517065073 -1270346000 -608713574 341658690 -672425723 -1015240885 -1061037319 -2044517837 829778567 -987135129 656773756 719680850 331873534
REM
CELL 1.54180   50.00000   50.00000   50.00000   90.00000   90.00000   90.00000
LATT -1
SFAC C  
C      1  0.5528710000000  0.4509920000000  0.4466770000000 1.0
C      1  0.4185330000000  0.5131380000000  0.4781170000000 1.0
C      1  0.5189850000000  0.4626060000000  0.5075690000000 1.0
C      1  0.4953200000000  0.5777170000000  0.4504370000000 1.0
C      1  0.5698470000000  0.5601560000000  0.5000140000000 1.0
C      1  0.5581340000000  0.4394130000000  0.5383930000000 1.0
C      1  0.4563620000000  0.5526110000000  0.4282530000000 1.0
C      1  0.4906050000000  0.4714790000000  0.4979240000000 1.0
C      1  0.5569820000000  0.5469230000000  0.5445690000000 1.0
C      1  0.4698640000000  0.5318520000000  0.4691750000000 1.0
C      1  0.4247930000000  0.4673400000000  0.4716960000000 1.0
C      1  0.5773200000000  0.5459290000000  0.5243180000000 1.0
C      1  0.5101930000000  0.4649290000000  0.4180280000000 1.0
C      1  0.4181320000000  0.4573210000000  0.4967350000000 1.0
C      1  0.5294580000000  0.4929650000000  0.5886700000000 1.0
C      1  0.5018620000000  0.5963340000000  0.4999610000000 1.0
C      1  0.4875830000000  0.4366540000000  0.5626140000000 1.0
C      1  0.5589340000000  0.5296700000000  0.5664720000000 1.0
C      1  0.5019280000000  0.4845670000000  0.5885540000000 1.0
C      1  0.4700770000000  0.4281840000000  0.5423720000000 1.0
C      1  0.5723650000000  0.5219860000000  0.4353110000000 1.0
C      1  0.4817860000000  0.4603400000000  0.4726690000000 1.0
C      1  0.5198330000000  0.5617450000000  0.4471760000000 1.0
C      1  0.4546850000000  0.5663320000000  0.5391840000000 1.0
C      1  0.4487980000000  0.4775200000000  0.4357770000000 1.0
C      1  0.4401690000000  0.4649080000000  0.5509270000000 1.0
C      1  0.5404270000000  0.4540890000000  0.5803520000000 1.0
C      1  0.4238520000000  0.5966650000000  0.5169670000000 1.0
C      1  0.4636930000000  0.5466050000000  0.5590430000000 1.0
C      1  0.5770020000000  0.5107850000000  0.5543130000000 1.0
C      1  0.4412970000000  0.4923620000000  0.4787480000000 1.0
C      1  0.5717660000000  0.4724490000000  0.4417630000000 1.0
C      1  0.4983050000000  0.4981220000000  0.4843230000000 1.0
C      1  0.4737100000000  0.5099210000000  0.4117820000000 1.0
C      1  0.4544980000000  0.5005530000000  0.5078610000000 1.0
C      1  0.4967380000000  0.5188590000000  0.5084240000000 1.0
C      1  0.5123210000000  0.4244760000000  0.5557320000000 1.0
C      1  0.5121840000000  0.4579770000000  0.4633360000000 1.0
C      1  0.5199100000000  0.5382090000000  0.4295720000000 1.0
C      1  0.5360110000000  0.4951370000000  0.5394540000000 1.0
C      1  0.4412520000000  0.4411270000000  0.5022880000000 1.0
C      1  0.4773030000000  0.4357430000000  0.4331240000000 1.0
C      1  0.5402350000000  0.5050180000000  0.5129210000000 1.0
C      1  0.4620920000000  0.5562340000000  0.5092180000000 1.0
C      1  0.4751890000000  0.5722290000000  0.4322360000000 1.0
C      1  0.5868070000000  0.4778900000000  0.4660040000000 1.0
C      1  0.4052660000000  0.5062150000000  0.5027020000000 1.0
C      1  0.5101370000000  0.4057960000000  0.5346160000000 1.0
C      1  0.4324430000000  0.5865470000000  0.4922020000000 1.0
C      1  0.5519830000000  0.4778750000000  0.5809700000000 1.0
C      1  0.4473250000000  0.5430850000000  0.4547730000000 1.0
C      1  0.5801500000000  0.4588890000000  0.4858800000000 1.0
C      1  0.5021350000000  0.4253200000000  0.4436290000000 1.0
C      1  0.5255130000000  0.5857750000000  0.5122480000000 1.0
C      1  0.5828590000000  0.5273770000000  0.4614640000000 1.0
C      1  0.5456740000000  0.5752380000000  0.4953620000000 1.0
C      1  0.4872180000000  0.5886550000000  0.4759080000000 1.0
C      1  0.4573890000000  0.4745150000000  0.5713840000000 1.0
C      1  0.5707000000000  0.5505380000000  0.4725900000000 1.0
C      1  0.5367810000000  0.5109930000000  0.4624820000000 1.0
C      1  0.4922760000000  0.5095890000000  0.5384650000000 1.0
C      1  0.4608730000000  0.5182810000000  0.5522870000000 1.0
C      1  0.4827980000000  0.4591420000000  0.4170730000000 1.0
C      1  0.4141010000000  0.5251650000000  0.5224280000000 1.0
C      1  0.4646630000000  0.4852610000000  0.4604330000000 1.0
C      1  0.5229390000000  0.4470050000000  0.4378430000000 1.0
C      1  0.4131520000000  0.5523490000000  0.5165590000000 1.0
C      1  0.4173240000000  0.5608160000000  0.4893050000000 1.0
C      1  0.5184000000000  0.5199470000000  0.5507990000000 1.0
C      1  0.4779130000000  0.5982190000000  0.5153880000000 1.0
C      1  0.5249130000000  0.5290600000000  0.5070840000000 1.0
C      1  0.5881420000000  0.5190940000000  0.5281170000000 1.0
C      1  0.5299380000000  0.4067780000000  0.5133880000000 1.0
C      1  0.4840010000000  0.5085540000000  0.4590820000000 1.0
C      1  0.4376820000000  0.5096730000000  0.5336370000000 1.0
C      1  0.4921670000000  0.4797730000000  0.5414740000000 1.0
C      1  0.5434530000000  0.5020040000000  0.4136140000000 1.0
C      1  0.5536050000000  0.4192180000000  0.5211400000000 1.0
C      1  0.5200570000000  0.4696590000000  0.5366780000000 1.0
C      1  0.5179430000000  0.4921780000000  0.4168540000000 1.0
C      1  0.4886220000000  0.5533930000000  0.5704190000000 1.0
C      1  0.4716920000000  0.4752160000000  0.5193800000000 1.0
C      1  0.4100590000000  0.4793890000000  0.5138250000000 1.0
C      1  0.4232880000000  0.5403430000000  0.4701510000000 1.0
C      1  0.5739140000000  0.4633560000000  0.5363040000000 1.0
C      1  0.5356980000000  0.4838920000000  0.4960930000000 1.0
C      1  0.5915430000000  0.5037870000000  0.4775590000000 1.0
C      1  0.5644910000000  0.4851110000000  0.5546960000000 1.0
C      1  0.5461140000000  0.5293980000000  0.4226780000000 1.0
C      1  0.5198360000000  0.5715380000000  0.5368370000000 1.0
C      1  0.4866730000000  0.5083900000000  0.5893420000000 1.0
C      1  0.4698740000000  0.5295100000000  0.4990160000000 1.0
C      1  0.4753680000000  0.5872880000000  0.5406580000000 1.0
C      1  0.5570400000000  0.4452810000000  0.4742280000000 1.0
C      1  0.5310640000000  0.5205780000000  0.5787450000000 1.0
C      1  0.5216260000000  0.4148810000000  0.4868570000000 1.0
C      1  0.4608420000000  0.4337370000000  0.4788810000000 1.0
C      1  0.5027460000000  0.5314920000000  0.5827790000000 1.0
C      1  0.5009460000000  0.4098130000000  0.4681460000000 1.0
C      1  0.4540540000000  0.4484410000000  0.5285010000000 1.0
C      1  0.5410490000000  0.5600260000000  0.4689040000000 1.0
C      1  0.4237560000000  0.4833560000000  0.5380430000000 1.0
C      1  0.4719990000000  0.3936810000000  0.5059620000000 1.0
C      1  0.5684590000000  0.4948930000000  0.4254860000000 1.0
C      1  0.5303530000000  0.5342160000000  0.4779850000000 1.0
C      1  0.5287840000000  0.4429050000000  0.4850090000000 1.0
C      1  0.4619140000000  0.5831220000000  0.4929330000000 1.0
C      1  0.5861970000000  0.4712240000000  0.5120020000000 1.0
C      1  0.5292400000000  0.5442910000000  0.5351740000000 1.0
C      1  0.4651480000000  0.4814020000000  0.4138260000000 1.0
C      1  0.4270500000000  0.5735530000000  0.5315080000000 1.0
C      1  0.4976860000000  0.5756040000000  0.5538210000000 1.0
C      1  0.4761390000000  0.4086640000000  0.4827870000000 1.0
C      1  0.5334570000000  0.4444290000000  0.5553710000000 1.0
C      1  0.5229030000000  0.4885940000000  0.4714120000000 1.0
C      1  0.4817380000000  0.4053800000000  0.5282570000000 1.0
C      1  0.5002160000000  0.5134290000000  0.4291830000000 1.0
C      1  0.4530640000000  0.4347980000000  0.4493950000000 1.0
C      1  0.5926940000000  0.4993600000000  0.5068410000000 1.0
C      1  0.4347960000000  0.4563360000000  0.4475550000000 1.0
C      1  0.4620170000000  0.5025410000000  0.5767110000000 1.0
C      1  0.4852230000000  0.4649610000000  0.5708250000000 1.0
C      1  0.4587080000000  0.5317550000000  0.4090120000000 1.0
END
