TITL C-214938-2332-2 38.6868543729142 125000 -667.493531165804 0 0 96 (C1) n - 1
REM
REM in /rds/project/t2_vol4/rds-t2-cs072/BORA/CARBON/from-Arr/AIRSS/Generating-Clusters/GAP-ML-2020/Only-C1/SD-CG/HFTN-CG
REM
REM
REM
REM
REM
REM ./C.cell (11c1c37f851c82e70ff6c80c92926a4b)
REM AIRSS Version 0.9.1 bugfix July 2018 build 013d7b7c2542+ Fri, 06 Jul 2018 19:26:36 +0100
REM compiler GCC version 9.3.0
REM options -cpp -mtune=generic -march=x86-64 -g -O0
REM seed -1273578366 -859637012 200031347 -821378605 838432590 570100918 951579539 -1114577671 -1972404970 -916409593 -1132576584 1836642931 -141626989 1872635915 -177915412 -561489360 2065414337 -994049341 -920839311 -1245091315 -1368330597 -1942330742 -202899486 957378959 -337417163 -523305539 95005531 2065142270 670052356 -977688567 1039711734 1738642371 -1056219377
REM
CELL 1.54180   50.00000   50.00000   50.00000   90.00000   90.00000   90.00000
LATT -1
SFAC C  
C      1  0.4902940000000  0.5505680000000  0.4500680000000 1.0
C      1  0.4982070000000  0.4694590000000  0.5667390000000 1.0
C      1  0.5321400000000  0.4666990000000  0.5026510000000 1.0
C      1  0.5051410000000  0.4228070000000  0.4481000000000 1.0
C      1  0.5763440000000  0.4562170000000  0.5040220000000 1.0
C      1  0.5360880000000  0.4603950000000  0.4348120000000 1.0
C      1  0.4899360000000  0.5784460000000  0.5625880000000 1.0
C      1  0.4772770000000  0.5391780000000  0.5098950000000 1.0
C      1  0.4416180000000  0.5287010000000  0.5649520000000 1.0
C      1  0.4737710000000  0.4919680000000  0.4938760000000 1.0
C      1  0.4927300000000  0.4770410000000  0.4786480000000 1.0
C      1  0.5127240000000  0.5631020000000  0.5643850000000 1.0
C      1  0.4299300000000  0.5363460000000  0.4827810000000 1.0
C      1  0.4401330000000  0.4633420000000  0.5120550000000 1.0
C      1  0.4726980000000  0.5634130000000  0.4926820000000 1.0
C      1  0.5612880000000  0.5580910000000  0.5176380000000 1.0
C      1  0.5015960000000  0.4258330000000  0.4977850000000 1.0
C      1  0.4429810000000  0.4410450000000  0.4694860000000 1.0
C      1  0.5334390000000  0.5287900000000  0.5003290000000 1.0
C      1  0.4290180000000  0.5140520000000  0.4653240000000 1.0
C      1  0.5780490000000  0.4927830000000  0.4534680000000 1.0
C      1  0.5082760000000  0.4909790000000  0.5817040000000 1.0
C      1  0.4614310000000  0.5166630000000  0.5845970000000 1.0
C      1  0.5821370000000  0.5042570000000  0.4811040000000 1.0
C      1  0.4462060000000  0.4722960000000  0.4350600000000 1.0
C      1  0.4850290000000  0.4350070000000  0.5362100000000 1.0
C      1  0.5134330000000  0.5385310000000  0.5809180000000 1.0
C      1  0.4859770000000  0.5446710000000  0.5358220000000 1.0
C      1  0.5159620000000  0.5508690000000  0.5355190000000 1.0
C      1  0.5442930000000  0.4316050000000  0.4754070000000 1.0
C      1  0.5118570000000  0.4462870000000  0.4310130000000 1.0
C      1  0.4319080000000  0.4663050000000  0.4591830000000 1.0
C      1  0.4642630000000  0.4777600000000  0.5195490000000 1.0
C      1  0.5433930000000  0.5616840000000  0.4639030000000 1.0
C      1  0.4797600000000  0.4116620000000  0.4471790000000 1.0
C      1  0.5348290000000  0.5468920000000  0.4405090000000 1.0
C      1  0.4599580000000  0.4303410000000  0.4475240000000 1.0
C      1  0.4218830000000  0.5350210000000  0.5099810000000 1.0
C      1  0.4627350000000  0.5430200000000  0.4511200000000 1.0
C      1  0.4603880000000  0.5800700000000  0.5159750000000 1.0
C      1  0.4916720000000  0.5170460000000  0.5778360000000 1.0
C      1  0.5867810000000  0.4733340000000  0.4871930000000 1.0
C      1  0.4425170000000  0.5533530000000  0.5516800000000 1.0
C      1  0.5186760000000  0.4201220000000  0.4734290000000 1.0
C      1  0.4725530000000  0.4269170000000  0.5094810000000 1.0
C      1  0.4892260000000  0.4613670000000  0.4218400000000 1.0
C      1  0.4888020000000  0.5140780000000  0.5034300000000 1.0
C      1  0.5349270000000  0.4675730000000  0.5342210000000 1.0
C      1  0.4282880000000  0.5572220000000  0.5269450000000 1.0
C      1  0.5114410000000  0.5037180000000  0.4352600000000 1.0
C      1  0.5332420000000  0.5594370000000  0.5099460000000 1.0
C      1  0.4583810000000  0.4898510000000  0.5876380000000 1.0
C      1  0.5497310000000  0.4876670000000  0.5497720000000 1.0
C      1  0.4336570000000  0.5831660000000  0.5154650000000 1.0
C      1  0.5271480000000  0.5228690000000  0.5300810000000 1.0
C      1  0.4595860000000  0.4968720000000  0.4298170000000 1.0
C      1  0.5044610000000  0.4580180000000  0.4978550000000 1.0
C      1  0.5372720000000  0.4376740000000  0.5289680000000 1.0
C      1  0.4224620000000  0.4877760000000  0.4754000000000 1.0
C      1  0.5355920000000  0.4965280000000  0.5736600000000 1.0
C      1  0.4227940000000  0.5085350000000  0.5205480000000 1.0
C      1  0.5586870000000  0.5309590000000  0.4406550000000 1.0
C      1  0.5356090000000  0.5228010000000  0.5810700000000 1.0
C      1  0.4511440000000  0.5533830000000  0.4742890000000 1.0
C      1  0.4694030000000  0.5684970000000  0.5451150000000 1.0
C      1  0.5552430000000  0.5105550000000  0.5313710000000 1.0
C      1  0.5040260000000  0.5052200000000  0.5307320000000 1.0
C      1  0.4635140000000  0.4510590000000  0.4283690000000 1.0
C      1  0.5722690000000  0.5345820000000  0.5312310000000 1.0
C      1  0.5548210000000  0.5070750000000  0.4974790000000 1.0
C      1  0.4613340000000  0.4938500000000  0.5439190000000 1.0
C      1  0.5125680000000  0.4253000000000  0.5258510000000 1.0
C      1  0.4888100000000  0.4615480000000  0.5231260000000 1.0
C      1  0.5863780000000  0.5332190000000  0.4823860000000 1.0
C      1  0.5078510000000  0.4765050000000  0.5398100000000 1.0
C      1  0.5520710000000  0.4412440000000  0.5025940000000 1.0
C      1  0.5547220000000  0.4494080000000  0.4544630000000 1.0
C      1  0.4794170000000  0.4481620000000  0.5626620000000 1.0
C      1  0.5145190000000  0.4958560000000  0.4692160000000 1.0
C      1  0.4654570000000  0.4734770000000  0.5659990000000 1.0
C      1  0.5366390000000  0.4885990000000  0.4290100000000 1.0
C      1  0.4487730000000  0.5186460000000  0.4446320000000 1.0
C      1  0.5830940000000  0.5448140000000  0.5084920000000 1.0
C      1  0.5683550000000  0.5454190000000  0.4634360000000 1.0
C      1  0.5104060000000  0.5349810000000  0.4364680000000 1.0
C      1  0.5237520000000  0.5697700000000  0.4830880000000 1.0
C      1  0.4878290000000  0.4899550000000  0.4238510000000 1.0
C      1  0.4964760000000  0.5665130000000  0.4741490000000 1.0
C      1  0.5105180000000  0.5198500000000  0.4852450000000 1.0
C      1  0.4224660000000  0.4849260000000  0.5039870000000 1.0
C      1  0.5598320000000  0.5032790000000  0.4356800000000 1.0
C      1  0.4844480000000  0.5161940000000  0.5487860000000 1.0
C      1  0.4355680000000  0.5075800000000  0.5460840000000 1.0
C      1  0.4489950000000  0.4394560000000  0.4977830000000 1.0
C      1  0.5393080000000  0.4865140000000  0.4832220000000 1.0
C      1  0.5773730000000  0.4654860000000  0.4607240000000 1.0
END
