TITL C-21710-57-4 0.0834919239974038 125000 -584.540158939667 0 0 83 (C1) n - 1
REM
REM in /rds/project/t2_vol4/rds-t2-cs072/BORA/CARBON/from-Arr/AIRSS/Generating-Clusters/GAP-ML-2020/Only-C1/SD-CG/HFTN-CG
REM
REM
REM
REM
REM
REM ./C.cell (11c1c37f851c82e70ff6c80c92926a4b)
REM AIRSS Version 0.9.1 bugfix July 2018 build 013d7b7c2542+ Fri, 06 Jul 2018 19:26:36 +0100
REM compiler GCC version 9.3.0
REM options -cpp -mtune=generic -march=x86-64 -g -O0
REM seed 1343927747 -1423907314 -1581379064 1731278527 -1352426831 1936560340 -826565438 2043066861 1228877053 282811653 1741020721 1778674275 1876819837 2086289534 313388876 -86249021 361319845 -401548534 1116982991 746221537 219345404 -1921919620 876013879 -301619381 1735327594 19051742 -4665104 799298258 1462150692 349367996 1034735811 -1126075493 1743398024
REM
CELL 1.54180   50.00000   50.00000   50.00000   90.00000   90.00000   90.00000
LATT -1
SFAC C  
C      1  0.5520420000000  0.4824720000000  0.5517910000000 1.0
C      1  0.4472800000000  0.4570940000000  0.5421950000000 1.0
C      1  0.5741230000000  0.5390870000000  0.4979380000000 1.0
C      1  0.5737140000000  0.5241660000000  0.5223110000000 1.0
C      1  0.5110770000000  0.4811410000000  0.5734420000000 1.0
C      1  0.4793720000000  0.5128810000000  0.4609940000000 1.0
C      1  0.5511080000000  0.4509330000000  0.4504370000000 1.0
C      1  0.4826470000000  0.5387760000000  0.5013080000000 1.0
C      1  0.5200810000000  0.4436770000000  0.5405820000000 1.0
C      1  0.5641640000000  0.4506360000000  0.5178960000000 1.0
C      1  0.5830980000000  0.4973920000000  0.5178250000000 1.0
C      1  0.5321640000000  0.4282730000000  0.4908940000000 1.0
C      1  0.4313940000000  0.4802180000000  0.5411980000000 1.0
C      1  0.4191430000000  0.5189180000000  0.5176630000000 1.0
C      1  0.4913120000000  0.4394540000000  0.5397800000000 1.0
C      1  0.5010320000000  0.4819170000000  0.4829280000000 1.0
C      1  0.5831320000000  0.4711000000000  0.4769240000000 1.0
C      1  0.4945070000000  0.4950020000000  0.4238870000000 1.0
C      1  0.4635560000000  0.4987210000000  0.5055550000000 1.0
C      1  0.4730670000000  0.4882020000000  0.4425970000000 1.0
C      1  0.4732930000000  0.4553500000000  0.5556590000000 1.0
C      1  0.5072030000000  0.4291640000000  0.4768070000000 1.0
C      1  0.4933230000000  0.5239140000000  0.4220100000000 1.0
C      1  0.4934650000000  0.5629930000000  0.5432800000000 1.0
C      1  0.5382440000000  0.4372260000000  0.5191140000000 1.0
C      1  0.4770550000000  0.5763550000000  0.4717600000000 1.0
C      1  0.4453760000000  0.4995480000000  0.4347980000000 1.0
C      1  0.4879450000000  0.5608020000000  0.4524880000000 1.0
C      1  0.5223780000000  0.5079650000000  0.5754780000000 1.0
C      1  0.4775050000000  0.5398730000000  0.5329890000000 1.0
C      1  0.4810200000000  0.4644930000000  0.4606240000000 1.0
C      1  0.4820770000000  0.4295020000000  0.4896640000000 1.0
C      1  0.4404150000000  0.4523900000000  0.4932760000000 1.0
C      1  0.4912000000000  0.5807010000000  0.5197570000000 1.0
C      1  0.5159940000000  0.5539000000000  0.4504540000000 1.0
C      1  0.5165390000000  0.5722670000000  0.5259310000000 1.0
C      1  0.5452500000000  0.5096540000000  0.5586630000000 1.0
C      1  0.4827740000000  0.4768890000000  0.5710400000000 1.0
C      1  0.5700500000000  0.4708200000000  0.4523650000000 1.0
C      1  0.5711270000000  0.4749050000000  0.5324250000000 1.0
C      1  0.4644530000000  0.5188870000000  0.4859320000000 1.0
C      1  0.5405230000000  0.5586010000000  0.5223390000000 1.0
C      1  0.4218600000000  0.4885870000000  0.4432400000000 1.0
C      1  0.5539260000000  0.4358580000000  0.4747620000000 1.0
C      1  0.5518550000000  0.5569730000000  0.4960290000000 1.0
C      1  0.4874300000000  0.4874090000000  0.5095630000000 1.0
C      1  0.4632130000000  0.4461540000000  0.4759400000000 1.0
C      1  0.5281770000000  0.4748100000000  0.4879100000000 1.0
C      1  0.5870270000000  0.4956640000000  0.4893640000000 1.0
C      1  0.5753370000000  0.5195980000000  0.4768800000000 1.0
C      1  0.4677240000000  0.5005220000000  0.5649620000000 1.0
C      1  0.5733810000000  0.4485300000000  0.4913350000000 1.0
C      1  0.4455860000000  0.5272970000000  0.4440790000000 1.0
C      1  0.4864840000000  0.5174500000000  0.5497790000000 1.0
C      1  0.4490780000000  0.5473890000000  0.5346600000000 1.0
C      1  0.5477050000000  0.5294520000000  0.5348740000000 1.0
C      1  0.4233760000000  0.4763630000000  0.4927440000000 1.0
C      1  0.4322620000000  0.5257340000000  0.5415960000000 1.0
C      1  0.4722410000000  0.5691360000000  0.4988290000000 1.0
C      1  0.4186510000000  0.4897000000000  0.5170950000000 1.0
C      1  0.5401200000000  0.4940400000000  0.5011550000000 1.0
C      1  0.4413960000000  0.5024710000000  0.5555480000000 1.0
C      1  0.4435170000000  0.5588230000000  0.5093720000000 1.0
C      1  0.5041800000000  0.4462570000000  0.4534100000000 1.0
C      1  0.4357230000000  0.5231520000000  0.4732140000000 1.0
C      1  0.4267070000000  0.5383480000000  0.4968420000000 1.0
C      1  0.5034970000000  0.5286420000000  0.5716720000000 1.0
C      1  0.5291530000000  0.4651530000000  0.5580730000000 1.0
C      1  0.5337150000000  0.5457880000000  0.4748830000000 1.0
C      1  0.4230520000000  0.4949710000000  0.4705880000000 1.0
C      1  0.5258730000000  0.4588880000000  0.4404550000000 1.0
C      1  0.5306810000000  0.5105780000000  0.4457830000000 1.0
C      1  0.5510400000000  0.5237570000000  0.4625990000000 1.0
C      1  0.5177910000000  0.5333890000000  0.4312870000000 1.0
C      1  0.4490180000000  0.4424900000000  0.5183680000000 1.0
C      1  0.5033100000000  0.5005730000000  0.5292590000000 1.0
C      1  0.4993250000000  0.5552280000000  0.5704400000000 1.0
C      1  0.5108130000000  0.5289280000000  0.4922530000000 1.0
C      1  0.4737140000000  0.5359530000000  0.4409190000000 1.0
C      1  0.5206110000000  0.4857410000000  0.4323040000000 1.0
C      1  0.4753610000000  0.4307090000000  0.5172660000000 1.0
C      1  0.5248050000000  0.5142860000000  0.5148890000000 1.0
C      1  0.5060600000000  0.5089520000000  0.4707820000000 1.0
END
