TITL C-21805-2983-7 -0.104916227129455 125000 -445.779993025612 0 0 65 (C1) n - 1
REM
REM in /rds/project/t2_vol4/rds-t2-cs072/BORA/CARBON/from-Arr/AIRSS/Generating-Clusters/GAP-ML-2020/Only-C1/SD-CG/HFTN-CG
REM
REM
REM
REM
REM
REM ./C.cell (11c1c37f851c82e70ff6c80c92926a4b)
REM AIRSS Version 0.9.1 bugfix July 2018 build 013d7b7c2542+ Fri, 06 Jul 2018 19:26:36 +0100
REM compiler GCC version 9.3.0
REM options -cpp -mtune=generic -march=x86-64 -g -O0
REM seed 495522819 -855293918 900688828 433821281 -778408372 727865887 701218931 -1366529373 -251529598 -474745493 -709873286 -1906224214 -432812152 754215718 -831603336 -1996821896 -1346430158 -976580498 1382500630 804184485 -1158292316 -956640202 1452370781 149097212 -1964108617 -880046732 350400 -215263215 1981316740 -136784068 -1757424328 699958207 -1624245701
REM
CELL 1.54180   50.00000   50.00000   50.00000   90.00000   90.00000   90.00000
LATT -1
SFAC C  
C      1  0.4951500000000  0.4784180000000  0.4758780000000 1.0
C      1  0.4372280000000  0.5115550000000  0.4922400000000 1.0
C      1  0.5214780000000  0.4738320000000  0.5777490000000 1.0
C      1  0.4700020000000  0.4835530000000  0.5692620000000 1.0
C      1  0.4787560000000  0.5441710000000  0.4478410000000 1.0
C      1  0.4644710000000  0.4464220000000  0.5434430000000 1.0
C      1  0.4670880000000  0.4582610000000  0.4489950000000 1.0
C      1  0.4683790000000  0.5623020000000  0.4928300000000 1.0
C      1  0.4389790000000  0.4836380000000  0.4848910000000 1.0
C      1  0.4779300000000  0.4343520000000  0.5214040000000 1.0
C      1  0.5075480000000  0.4338480000000  0.5247830000000 1.0
C      1  0.5383730000000  0.5479910000000  0.4629560000000 1.0
C      1  0.5307840000000  0.4573050000000  0.4571150000000 1.0
C      1  0.4809250000000  0.4506390000000  0.4740360000000 1.0
C      1  0.5537170000000  0.5671970000000  0.5347700000000 1.0
C      1  0.5325140000000  0.5120020000000  0.5476730000000 1.0
C      1  0.5174130000000  0.4998820000000  0.5707780000000 1.0
C      1  0.5725540000000  0.4666580000000  0.4855210000000 1.0
C      1  0.5155460000000  0.4633740000000  0.4330400000000 1.0
C      1  0.5341670000000  0.5372020000000  0.4380150000000 1.0
C      1  0.4463460000000  0.4809770000000  0.4572060000000 1.0
C      1  0.5128380000000  0.4522150000000  0.4785380000000 1.0
C      1  0.5693780000000  0.5274900000000  0.5037580000000 1.0
C      1  0.5717040000000  0.5027800000000  0.5194720000000 1.0
C      1  0.4887550000000  0.4570100000000  0.4330170000000 1.0
C      1  0.4450030000000  0.5183390000000  0.4200240000000 1.0
C      1  0.5177450000000  0.4919700000000  0.4326540000000 1.0
C      1  0.5117320000000  0.5451150000000  0.4518070000000 1.0
C      1  0.5665610000000  0.4763030000000  0.5107700000000 1.0
C      1  0.4507540000000  0.5144680000000  0.5421180000000 1.0
C      1  0.4586210000000  0.5520610000000  0.4681790000000 1.0
C      1  0.4664470000000  0.5310550000000  0.4256200000000 1.0
C      1  0.4449700000000  0.4638180000000  0.5046340000000 1.0
C      1  0.5456720000000  0.5251340000000  0.4836880000000 1.0
C      1  0.4434730000000  0.5079310000000  0.4467130000000 1.0
C      1  0.5537870000000  0.4736450000000  0.4661410000000 1.0
C      1  0.4785360000000  0.4568780000000  0.5658600000000 1.0
C      1  0.5158250000000  0.4322570000000  0.5509730000000 1.0
C      1  0.4478780000000  0.5226620000000  0.5156980000000 1.0
C      1  0.4419470000000  0.5272800000000  0.4695310000000 1.0
C      1  0.4959910000000  0.4839380000000  0.5249810000000 1.0
C      1  0.5507060000000  0.5025360000000  0.4623750000000 1.0
C      1  0.5655110000000  0.5432760000000  0.5283540000000 1.0
C      1  0.4838190000000  0.5809560000000  0.5063500000000 1.0
C      1  0.5224690000000  0.5206690000000  0.5042390000000 1.0
C      1  0.4481310000000  0.4879970000000  0.5511520000000 1.0
C      1  0.4890790000000  0.5416650000000  0.5345700000000 1.0
C      1  0.5267020000000  0.5630490000000  0.5331640000000 1.0
C      1  0.4943160000000  0.5204880000000  0.4926210000000 1.0
C      1  0.5610160000000  0.5174370000000  0.5422990000000 1.0
C      1  0.5232950000000  0.4469910000000  0.5049830000000 1.0
C      1  0.4661480000000  0.4448290000000  0.4978360000000 1.0
C      1  0.4949720000000  0.5230150000000  0.4632670000000 1.0
C      1  0.5068420000000  0.4521380000000  0.5679920000000 1.0
C      1  0.4991530000000  0.5714710000000  0.5272500000000 1.0
C      1  0.5185390000000  0.5344800000000  0.5320050000000 1.0
C      1  0.4881010000000  0.4924930000000  0.4998790000000 1.0
C      1  0.4984220000000  0.4966370000000  0.4534770000000 1.0
C      1  0.4732540000000  0.5374200000000  0.5092920000000 1.0
C      1  0.5401360000000  0.5089860000000  0.4368880000000 1.0
C      1  0.5239720000000  0.4918220000000  0.5228550000000 1.0
C      1  0.5397480000000  0.4685500000000  0.5165870000000 1.0
C      1  0.4749870000000  0.5258760000000  0.5544750000000 1.0
C      1  0.4883110000000  0.5058320000000  0.5700330000000 1.0
C      1  0.4454070000000  0.4654600000000  0.5334560000000 1.0
END
