TITL C-211901-441-6 90.5487093056463 125000 -370.632422428217 0 0 56 (C1) n - 1
REM
REM in /rds/project/t2_vol4/rds-t2-cs072/BORA/CARBON/from-Arr/AIRSS/Generating-Clusters/GAP-ML-2020/Only-C1/SD-CG/HFTN-CG
REM
REM
REM
REM
REM
REM ./C.cell (11c1c37f851c82e70ff6c80c92926a4b)
REM AIRSS Version 0.9.1 bugfix July 2018 build 013d7b7c2542+ Fri, 06 Jul 2018 19:26:36 +0100
REM compiler GCC version 9.3.0
REM options -cpp -mtune=generic -march=x86-64 -g -O0
REM seed 1891275387 -589883873 -1527692488 -1271768852 737851295 1509894617 1285454497 1070086998 1573955561 2071310500 -677707074 297195639 1035382295 -27178697 -867259034 -1595005664 -2108273074 -185143920 1047244620 610615007 997977885 -533108047 1723262832 451201866 -1662428642 -2130937426 -1830499904 649068165 -616576037 1638426657 1057160981 -1490732025 1489200440
REM
CELL 1.54180   50.00000   50.00000   50.00000   90.00000   90.00000   90.00000
LATT -1
SFAC C  
C      1  0.5013190000000  0.5055140000000  0.4342110000000 1.0
C      1  0.5110840000000  0.5337530000000  0.4820250000000 1.0
C      1  0.5691260000000  0.4864870000000  0.5354070000000 1.0
C      1  0.5464920000000  0.5502570000000  0.4623900000000 1.0
C      1  0.4793600000000  0.5569200000000  0.5104770000000 1.0
C      1  0.4771110000000  0.4530470000000  0.5424430000000 1.0
C      1  0.4564510000000  0.5170260000000  0.5168860000000 1.0
C      1  0.5050450000000  0.4847700000000  0.5651710000000 1.0
C      1  0.4454170000000  0.4692120000000  0.4993730000000 1.0
C      1  0.5576430000000  0.5368240000000  0.5349950000000 1.0
C      1  0.4788730000000  0.4342890000000  0.5213540000000 1.0
C      1  0.5316020000000  0.5542620000000  0.4851670000000 1.0
C      1  0.4199170000000  0.5327810000000  0.4920050000000 1.0
C      1  0.4655580000000  0.4503480000000  0.5040120000000 1.0
C      1  0.5227200000000  0.4981900000000  0.5082220000000 1.0
C      1  0.5246090000000  0.4471040000000  0.5186160000000 1.0
C      1  0.4805360000000  0.4978250000000  0.5606510000000 1.0
C      1  0.5278460000000  0.5030960000000  0.5626680000000 1.0
C      1  0.4598410000000  0.5058950000000  0.4402790000000 1.0
C      1  0.5051530000000  0.4445030000000  0.4792740000000 1.0
C      1  0.5538690000000  0.5012140000000  0.5002500000000 1.0
C      1  0.5328620000000  0.4579310000000  0.4757430000000 1.0
C      1  0.4804370000000  0.4860170000000  0.4463960000000 1.0
C      1  0.5173260000000  0.5288380000000  0.5554270000000 1.0
C      1  0.5455940000000  0.4553670000000  0.5009970000000 1.0
C      1  0.5053050000000  0.4301900000000  0.5075030000000 1.0
C      1  0.4985110000000  0.5757990000000  0.5141450000000 1.0
C      1  0.5355100000000  0.4835210000000  0.4625250000000 1.0
C      1  0.5636290000000  0.4744910000000  0.5093380000000 1.0
C      1  0.4666090000000  0.4595880000000  0.4530490000000 1.0
C      1  0.5489520000000  0.4888950000000  0.5532090000000 1.0
C      1  0.4843690000000  0.4933450000000  0.4785710000000 1.0
C      1  0.4363810000000  0.5176110000000  0.4746070000000 1.0
C      1  0.4447710000000  0.4719080000000  0.4700010000000 1.0
C      1  0.4504820000000  0.4883260000000  0.5220520000000 1.0
C      1  0.4890380000000  0.4686690000000  0.4950600000000 1.0
C      1  0.4376910000000  0.4970370000000  0.4565130000000 1.0
C      1  0.4889800000000  0.5245920000000  0.5539590000000 1.0
C      1  0.4810780000000  0.5312380000000  0.5271300000000 1.0
C      1  0.4632720000000  0.4787320000000  0.5450360000000 1.0
C      1  0.5241210000000  0.5657140000000  0.5127140000000 1.0
C      1  0.4892550000000  0.5417040000000  0.4625740000000 1.0
C      1  0.5568250000000  0.5024060000000  0.4713370000000 1.0
C      1  0.5024510000000  0.4650940000000  0.5451590000000 1.0
C      1  0.5278650000000  0.5036200000000  0.4412370000000 1.0
C      1  0.5667790000000  0.5140930000000  0.5246300000000 1.0
C      1  0.4808730000000  0.5257610000000  0.4408980000000 1.0
C      1  0.4633880000000  0.5175630000000  0.4876620000000 1.0
C      1  0.5299140000000  0.5432580000000  0.5321290000000 1.0
C      1  0.5474910000000  0.5237290000000  0.4534650000000 1.0
C      1  0.5123560000000  0.5024230000000  0.4803410000000 1.0
C      1  0.4840870000000  0.4400760000000  0.4607720000000 1.0
C      1  0.4738790000000  0.5448240000000  0.4846530000000 1.0
C      1  0.5091170000000  0.4729850000000  0.5170660000000 1.0
C      1  0.5094990000000  0.5251950000000  0.5137720000000 1.0
C      1  0.4317320000000  0.5361450000000  0.5144570000000 1.0
END
