TITL C-21913-2479-1 -12.9258481619361 125000 -646.197648649998 0 0 92 (C1) n - 1
REM
REM in /rds/project/t2_vol4/rds-t2-cs072/BORA/CARBON/from-Arr/AIRSS/Generating-Clusters/GAP-ML-2020/Only-C1/SD-CG/HFTN-CG
REM
REM
REM
REM
REM
REM ./C.cell (11c1c37f851c82e70ff6c80c92926a4b)
REM AIRSS Version 0.9.1 bugfix July 2018 build 013d7b7c2542+ Fri, 06 Jul 2018 19:26:36 +0100
REM compiler GCC version 9.3.0
REM options -cpp -mtune=generic -march=x86-64 -g -O0
REM seed -1416771582 -1512734390 -1981579322 1062986210 1916458302 -1249094518 531320573 666665653 -329547067 -1583349119 1730039101 -1026546548 -2107224221 729866064 -296683886 1502397396 -669200609 751394926 -1249126029 805477174 -1272229444 1178813107 -1216607623 1939957416 -778258366 1076621563 65814788 1937004758 123341018 -335485723 -1050659026 -314982404 -1104843598
REM
CELL 1.54180   50.00000   50.00000   50.00000   90.00000   90.00000   90.00000
LATT -1
SFAC C  
C      1  0.5539870000000  0.4729840000000  0.5064130000000 1.0
C      1  0.4575910000000  0.4327810000000  0.5074780000000 1.0
C      1  0.5373010000000  0.4652750000000  0.4604850000000 1.0
C      1  0.5323400000000  0.5388860000000  0.5005920000000 1.0
C      1  0.4984560000000  0.5826430000000  0.4960570000000 1.0
C      1  0.4992000000000  0.5149130000000  0.4750830000000 1.0
C      1  0.4938430000000  0.4428490000000  0.5596850000000 1.0
C      1  0.4714720000000  0.4945070000000  0.4199280000000 1.0
C      1  0.4702920000000  0.5562500000000  0.4612990000000 1.0
C      1  0.4897600000000  0.5426620000000  0.4809130000000 1.0
C      1  0.5725540000000  0.4963240000000  0.4686370000000 1.0
C      1  0.4265690000000  0.4838470000000  0.5210130000000 1.0
C      1  0.4601760000000  0.4914760000000  0.5652520000000 1.0
C      1  0.4754480000000  0.5771030000000  0.5393200000000 1.0
C      1  0.5150280000000  0.5609420000000  0.4840980000000 1.0
C      1  0.5793080000000  0.4847520000000  0.4937290000000 1.0
C      1  0.5612630000000  0.5658680000000  0.4757940000000 1.0
C      1  0.5124930000000  0.4303290000000  0.5408480000000 1.0
C      1  0.4826860000000  0.4693180000000  0.4829630000000 1.0
C      1  0.4596690000000  0.5622540000000  0.5221490000000 1.0
C      1  0.5579150000000  0.5409090000000  0.5429910000000 1.0
C      1  0.4980980000000  0.4749520000000  0.5220180000000 1.0
C      1  0.5115510000000  0.4248740000000  0.4668140000000 1.0
C      1  0.4326960000000  0.4881410000000  0.4447590000000 1.0
C      1  0.5320160000000  0.5477850000000  0.4414610000000 1.0
C      1  0.4658180000000  0.4432350000000  0.5561700000000 1.0
C      1  0.4370390000000  0.5155800000000  0.4377690000000 1.0
C      1  0.4802200000000  0.5418960000000  0.4351820000000 1.0
C      1  0.5128980000000  0.5618550000000  0.5405300000000 1.0
C      1  0.5196990000000  0.5093500000000  0.4939390000000 1.0
C      1  0.5630400000000  0.5418810000000  0.4925930000000 1.0
C      1  0.5061690000000  0.4649230000000  0.4978680000000 1.0
C      1  0.4579340000000  0.5142090000000  0.5462710000000 1.0
C      1  0.4844370000000  0.4209650000000  0.4727620000000 1.0
C      1  0.5685490000000  0.5244130000000  0.4676510000000 1.0
C      1  0.4607600000000  0.5008920000000  0.4954550000000 1.0
C      1  0.4885510000000  0.5572900000000  0.5558310000000 1.0
C      1  0.4413470000000  0.5515200000000  0.4671140000000 1.0
C      1  0.5081460000000  0.5351590000000  0.4304450000000 1.0
C      1  0.4299020000000  0.5123470000000  0.5281250000000 1.0
C      1  0.4335620000000  0.5542280000000  0.4941900000000 1.0
C      1  0.4724410000000  0.5811210000000  0.4827760000000 1.0
C      1  0.5253930000000  0.4191230000000  0.4923920000000 1.0
C      1  0.5665470000000  0.4800220000000  0.5503480000000 1.0
C      1  0.5034100000000  0.5021650000000  0.5206630000000 1.0
C      1  0.4539470000000  0.4745010000000  0.4314430000000 1.0
C      1  0.4995580000000  0.5819270000000  0.5239940000000 1.0
C      1  0.4981680000000  0.4856690000000  0.4209380000000 1.0
C      1  0.5259530000000  0.5097050000000  0.5377310000000 1.0
C      1  0.4487470000000  0.4391150000000  0.5328390000000 1.0
C      1  0.4208810000000  0.4886430000000  0.4719480000000 1.0
C      1  0.5574380000000  0.5220740000000  0.5643480000000 1.0
C      1  0.4501880000000  0.5763760000000  0.5001830000000 1.0
C      1  0.4552150000000  0.4532560000000  0.4865550000000 1.0
C      1  0.5553010000000  0.4837710000000  0.4492710000000 1.0
C      1  0.5461160000000  0.4633200000000  0.5588240000000 1.0
C      1  0.5775340000000  0.5044980000000  0.5555790000000 1.0
C      1  0.4790810000000  0.5403830000000  0.5094020000000 1.0
C      1  0.4695300000000  0.4514740000000  0.4377430000000 1.0
C      1  0.4365640000000  0.4778300000000  0.4934140000000 1.0
C      1  0.5536840000000  0.4438850000000  0.5163570000000 1.0
C      1  0.4151770000000  0.5155210000000  0.4797680000000 1.0
C      1  0.4989410000000  0.5145190000000  0.5760910000000 1.0
C      1  0.4975470000000  0.4579480000000  0.4320820000000 1.0
C      1  0.4790140000000  0.4960490000000  0.4756150000000 1.0
C      1  0.5274680000000  0.5076820000000  0.5683280000000 1.0
C      1  0.4750160000000  0.5137820000000  0.5188550000000 1.0
C      1  0.5305220000000  0.4776600000000  0.4878180000000 1.0
C      1  0.5309080000000  0.5407910000000  0.5312540000000 1.0
C      1  0.5182550000000  0.4467820000000  0.4490290000000 1.0
C      1  0.5487650000000  0.4897630000000  0.5299670000000 1.0
C      1  0.5529150000000  0.5286610000000  0.4439550000000 1.0
C      1  0.4329600000000  0.4630260000000  0.5381840000000 1.0
C      1  0.4851700000000  0.4898340000000  0.5785830000000 1.0
C      1  0.4799750000000  0.5326150000000  0.5637090000000 1.0
C      1  0.4490930000000  0.4664070000000  0.5619580000000 1.0
C      1  0.4639350000000  0.4374240000000  0.4618860000000 1.0
C      1  0.5436150000000  0.5042740000000  0.4331940000000 1.0
C      1  0.5516590000000  0.4229400000000  0.4986900000000 1.0
C      1  0.4231110000000  0.5286460000000  0.5049940000000 1.0
C      1  0.4807770000000  0.4178580000000  0.5009780000000 1.0
C      1  0.5019950000000  0.4666120000000  0.5752420000000 1.0
C      1  0.5358830000000  0.5662340000000  0.4634050000000 1.0
C      1  0.5906440000000  0.5138890000000  0.5290010000000 1.0
C      1  0.5388720000000  0.4418170000000  0.5413420000000 1.0
C      1  0.4255430000000  0.5308210000000  0.4580680000000 1.0
C      1  0.4628000000000  0.5210960000000  0.4264240000000 1.0
C      1  0.5168090000000  0.5074730000000  0.4235170000000 1.0
C      1  0.5983850000000  0.4959860000000  0.5100140000000 1.0
C      1  0.5274750000000  0.4777100000000  0.5738630000000 1.0
C      1  0.5055780000000  0.4180000000000  0.5149240000000 1.0
C      1  0.5757140000000  0.5369570000000  0.5208380000000 1.0
END
