TITL C-21934-3166-2 -0.0837196178819091 125000 -336.670647844645 0 0 50 (C1) n - 1
REM
REM in /rds/project/t2_vol4/rds-t2-cs072/BORA/CARBON/from-Arr/AIRSS/Generating-Clusters/GAP-ML-2020/Only-C1/SD-CG/HFTN-CG
REM
REM
REM
REM
REM
REM ./C.cell (11c1c37f851c82e70ff6c80c92926a4b)
REM AIRSS Version 0.9.1 bugfix July 2018 build 013d7b7c2542+ Fri, 06 Jul 2018 19:26:36 +0100
REM compiler GCC version 9.3.0
REM options -cpp -mtune=generic -march=x86-64 -g -O0
REM seed -688045169 -530255303 1813634865 1741845960 -75735953 1574509836 -1833344000 957552493 -1451183573 -1457048469 -1608311226 1177483747 -1424696575 -273982040 -934388950 -145915529 -1951495929 193905435 1853618268 1210673643 -1170944258 -1567222777 1447251172 -1005459246 1155571168 -1098833460 1507885099 -1693485221 -394312739 -443531785 1642306471 -717067888 -295729023
REM
CELL 1.54180   50.00000   50.00000   50.00000   90.00000   90.00000   90.00000
LATT -1
SFAC C  
C      1  0.4869080000000  0.4590250000000  0.4827070000000 1.0
C      1  0.4546090000000  0.4840570000000  0.4577590000000 1.0
C      1  0.4888170000000  0.4854820000000  0.4981920000000 1.0
C      1  0.5128460000000  0.4911970000000  0.5135970000000 1.0
C      1  0.5049450000000  0.5049240000000  0.4366220000000 1.0
C      1  0.4902060000000  0.5103750000000  0.5638320000000 1.0
C      1  0.5322540000000  0.4660690000000  0.5176060000000 1.0
C      1  0.5540530000000  0.5106910000000  0.5210080000000 1.0
C      1  0.5010870000000  0.4585110000000  0.5552140000000 1.0
C      1  0.4413270000000  0.4749490000000  0.4813320000000 1.0
C      1  0.4862310000000  0.4445130000000  0.5357260000000 1.0
C      1  0.4568100000000  0.5113570000000  0.4525920000000 1.0
C      1  0.5345400000000  0.4924320000000  0.5581940000000 1.0
C      1  0.5172800000000  0.5446660000000  0.4563610000000 1.0
C      1  0.4439900000000  0.5197310000000  0.5013020000000 1.0
C      1  0.5335380000000  0.5206470000000  0.5644820000000 1.0
C      1  0.5545020000000  0.5164330000000  0.4931270000000 1.0
C      1  0.4743470000000  0.4920250000000  0.5223760000000 1.0
C      1  0.5135760000000  0.4477230000000  0.5321920000000 1.0
C      1  0.5017790000000  0.4774530000000  0.4417820000000 1.0
C      1  0.5242880000000  0.5504240000000  0.4832620000000 1.0
C      1  0.5526150000000  0.5438160000000  0.4873550000000 1.0
C      1  0.4816250000000  0.5164120000000  0.5355950000000 1.0
C      1  0.5382400000000  0.5314980000000  0.5378040000000 1.0
C      1  0.5370100000000  0.4566680000000  0.4912130000000 1.0
C      1  0.4888790000000  0.5454730000000  0.4527230000000 1.0
C      1  0.5434320000000  0.5640140000000  0.5037170000000 1.0
C      1  0.5078530000000  0.4839610000000  0.5627330000000 1.0
C      1  0.5229090000000  0.4621480000000  0.4522960000000 1.0
C      1  0.4631370000000  0.5328020000000  0.5195230000000 1.0
C      1  0.5425060000000  0.4747270000000  0.4683900000000 1.0
C      1  0.4394900000000  0.4475240000000  0.4822380000000 1.0
C      1  0.4699390000000  0.5502300000000  0.4739000000000 1.0
C      1  0.5269200000000  0.5187710000000  0.4487500000000 1.0
C      1  0.5377710000000  0.5029490000000  0.4728020000000 1.0
C      1  0.4811890000000  0.5212410000000  0.4399070000000 1.0
C      1  0.5418620000000  0.5587850000000  0.5297950000000 1.0
C      1  0.4787640000000  0.4693800000000  0.4555200000000 1.0
C      1  0.5068490000000  0.5045800000000  0.4857810000000 1.0
C      1  0.4794320000000  0.5470850000000  0.5002020000000 1.0
C      1  0.4511720000000  0.4771950000000  0.5261080000000 1.0
C      1  0.5087300000000  0.5260790000000  0.5759800000000 1.0
C      1  0.5139220000000  0.4473790000000  0.4759720000000 1.0
C      1  0.4621050000000  0.4506260000000  0.5228040000000 1.0
C      1  0.4391980000000  0.4914480000000  0.5047800000000 1.0
C      1  0.4495960000000  0.5293990000000  0.4740710000000 1.0
C      1  0.4630620000000  0.4452480000000  0.4948260000000 1.0
C      1  0.5053670000000  0.5323840000000  0.4981480000000 1.0
C      1  0.5475320000000  0.4859500000000  0.5339340000000 1.0
C      1  0.5109620000000  0.5195420000000  0.5238690000000 1.0
END
