TITL C-2109087-2355-18 -0.0363258255977799 125000 -166.105276223957 0 0 26 (C1) n - 1
REM
REM in /nfs/bkarasulu/CARBON/AIRSS/Generating-Clusters/GAP-ML-2020/Only-C1/SD-CG/HFTN-CG
REM
REM
REM
REM
REM
REM ./C.cell (11c1c37f851c82e70ff6c80c92926a4b)
REM
REM compiler GCC version 9.2.1 20190827 (Red Hat 9.2.1-1)
REM options -cpp -mtune=generic -march=x86-64 -g -O0 -fpre-include=/usr/include/finclude/math-vector-fortran.h
REM seed 168876582 -28934397 -409715741 -1396447688 502410324 -524519454 81636756 -1971174806 924956348 911696180 -1721660839 531056575 615468866 262359433 -898307773 741174418 -840805290 -1235620217 -1743054007 -1557214210 -62234489 -289579315 85479373 1499386229 -1566699626 -1633520429 1543898710 -1410891871 1539316587 1624667570 -959547095 1483840361 -1443625401
REM
CELL 1.54180   50.00000   50.00000   50.00000   90.00000   90.00000   90.00000
LATT -1
SFAC C  
C      1  0.5147350000000  0.4657950000000  0.5270870000000 1.0
C      1  0.4762760000000  0.5063830000000  0.5414870000000 1.0
C      1  0.5196490000000  0.5354660000000  0.4557020000000 1.0
C      1  0.5273100000000  0.5623200000000  0.4997560000000 1.0
C      1  0.5177120000000  0.4891920000000  0.5095640000000 1.0
C      1  0.4507650000000  0.4652560000000  0.4905360000000 1.0
C      1  0.4904320000000  0.4548620000000  0.4881160000000 1.0
C      1  0.4889890000000  0.4592160000000  0.5359500000000 1.0
C      1  0.5067360000000  0.4675890000000  0.4682810000000 1.0
C      1  0.4876790000000  0.4837440000000  0.5012870000000 1.0
C      1  0.5141880000000  0.5169030000000  0.5161920000000 1.0
C      1  0.4710280000000  0.4829900000000  0.5282480000000 1.0
C      1  0.4998860000000  0.4451730000000  0.5139240000000 1.0
C      1  0.4957660000000  0.5243980000000  0.5394780000000 1.0
C      1  0.4655110000000  0.4470940000000  0.4791580000000 1.0
C      1  0.4841550000000  0.5054630000000  0.4801750000000 1.0
C      1  0.4977480000000  0.5267270000000  0.4927670000000 1.0
C      1  0.4479730000000  0.4783730000000  0.5122080000000 1.0
C      1  0.5348330000000  0.5428290000000  0.5180990000000 1.0
C      1  0.5177990000000  0.5620580000000  0.5286100000000 1.0
C      1  0.5394560000000  0.4941420000000  0.4612460000000 1.0
C      1  0.5184110000000  0.5090110000000  0.4486400000000 1.0
C      1  0.4980690000000  0.5529350000000  0.5445350000000 1.0
C      1  0.5119190000000  0.5469190000000  0.4790740000000 1.0
C      1  0.5275190000000  0.4825360000000  0.4825810000000 1.0
C      1  0.4954570000000  0.4926260000000  0.4572960000000 1.0
END
