TITL C-2109086-2930-5 0.00407642910344179 125000 -22.9478494814554 0 0 4 (D(inf)h) n - 1
REM
REM in /nfs/bkarasulu/CARBON/AIRSS/Generating-Clusters/GAP-ML-2020/Only-C1/SD-CG/HFTN-CG
REM
REM
REM
REM
REM
REM ./C.cell (11c1c37f851c82e70ff6c80c92926a4b)
REM
REM compiler GCC version 9.2.1 20190827 (Red Hat 9.2.1-1)
REM options -cpp -mtune=generic -march=x86-64 -g -O0 -fpre-include=/usr/include/finclude/math-vector-fortran.h
REM seed -926152209 516717610 1025528209 826025707 1772835510 -525532369 44510164 359977691 1592907951 -1158561677 -1897094860 -1547034942 1066750082 536346809 -1016559460 11055663 1503561225 181866165 617616543 1613047972 -1775744534 -646106418 1771190871 1149639104 -45519629 1300014492 -791013607 2139137266 301209280 -1472131473 -1912406741 -1377607989 442574336
REM
CELL 1.54180   50.00000   50.00000   50.00000   90.00000   90.00000   90.00000
LATT -1
SFAC C  
C      1  0.4947890000000  0.5327880000000  0.5202030000000 1.0
C      1  0.5018060000000  0.4886390000000  0.4930000000000 1.0
C      1  0.4981940000000  0.5113610000000  0.5070000000000 1.0
C      1  0.5052110000000  0.4672120000000  0.4797970000000 1.0
END
