TITL C-215718-9299-4 -170.206564032251 125000 -945.39920706359 0 0 134 (C1) n - 1
REM
REM in /rds/project/t2_vol4/rds-t2-cs072/BORA/CARBON/from-Arr/AIRSS/Generating-Clusters/GAP-ML-2020/Only-C1/SD-CG/HFTN-CG
REM
REM
REM
REM
REM
REM ./C.cell (11c1c37f851c82e70ff6c80c92926a4b)
REM AIRSS Version 0.9.1 bugfix July 2018 build 013d7b7c2542+ Fri, 06 Jul 2018 19:26:36 +0100
REM compiler GCC version 9.3.0
REM options -cpp -mtune=generic -march=x86-64 -g -O0
REM seed 829978710 973320149 473279192 1010947528 878399546 -834108297 -843155302 -1306675167 -1685829330 1782013604 1844395287 -1500350173 656572209 -1292853006 1861204770 -850110557 -1721754584 -1905378894 -1018385774 1178719654 951582407 -2033263790 820825484 1672315251 -1136645203 -1318938121 -602236744 1632248036 -936386284 -2053000052 820914498 1995399700 -1009100123
REM
CELL 1.54180   50.00000   50.00000   50.00000   90.00000   90.00000   90.00000
LATT -1
SFAC C  
C      1  0.4391800000000  0.4552250000000  0.4337230000000 1.0
C      1  0.5060410000000  0.5556290000000  0.4722310000000 1.0
C      1  0.4518730000000  0.5529170000000  0.5769270000000 1.0
C      1  0.4569410000000  0.4229460000000  0.4753720000000 1.0
C      1  0.5541710000000  0.4612420000000  0.5581610000000 1.0
C      1  0.5167250000000  0.5015870000000  0.4221650000000 1.0
C      1  0.4727060000000  0.5245030000000  0.4703460000000 1.0
C      1  0.5123760000000  0.5145610000000  0.4970540000000 1.0
C      1  0.5529890000000  0.4409230000000  0.4338860000000 1.0
C      1  0.4870260000000  0.3992490000000  0.5027000000000 1.0
C      1  0.5844900000000  0.4951200000000  0.4426010000000 1.0
C      1  0.4964000000000  0.6193150000000  0.4604140000000 1.0
C      1  0.4305780000000  0.5349000000000  0.5684610000000 1.0
C      1  0.5232990000000  0.5926170000000  0.5294420000000 1.0
C      1  0.4599720000000  0.4992420000000  0.5055180000000 1.0
C      1  0.4091800000000  0.4754720000000  0.4560100000000 1.0
C      1  0.4563290000000  0.5504100000000  0.4311290000000 1.0
C      1  0.4136300000000  0.4671970000000  0.5047000000000 1.0
C      1  0.4311200000000  0.5434900000000  0.4441180000000 1.0
C      1  0.5072660000000  0.4746950000000  0.5546270000000 1.0
C      1  0.5325300000000  0.4402640000000  0.4897790000000 1.0
C      1  0.4897520000000  0.4933010000000  0.5114790000000 1.0
C      1  0.4066900000000  0.4947020000000  0.5089410000000 1.0
C      1  0.5677140000000  0.5206970000000  0.4850390000000 1.0
C      1  0.4883380000000  0.4839540000000  0.4589870000000 1.0
C      1  0.5124720000000  0.5016620000000  0.4536180000000 1.0
C      1  0.5150710000000  0.3945730000000  0.5043050000000 1.0
C      1  0.5393240000000  0.5503200000000  0.4396320000000 1.0
C      1  0.4227640000000  0.5563310000000  0.4694810000000 1.0
C      1  0.4942420000000  0.4999960000000  0.5411050000000 1.0
C      1  0.5917140000000  0.5146530000000  0.5319180000000 1.0
C      1  0.5887760000000  0.4673430000000  0.4481460000000 1.0
C      1  0.5658570000000  0.4256260000000  0.5054280000000 1.0
C      1  0.4050520000000  0.5131120000000  0.4855390000000 1.0
C      1  0.4818380000000  0.4617770000000  0.4178550000000 1.0
C      1  0.5582480000000  0.5674150000000  0.5092320000000 1.0
C      1  0.5641610000000  0.5577430000000  0.5354080000000 1.0
C      1  0.5398520000000  0.5605620000000  0.4675750000000 1.0
C      1  0.4940680000000  0.5965070000000  0.5276270000000 1.0
C      1  0.5738650000000  0.5179080000000  0.4551570000000 1.0
C      1  0.5485940000000  0.5596260000000  0.5594260000000 1.0
C      1  0.5239950000000  0.4483170000000  0.4366010000000 1.0
C      1  0.4797340000000  0.4056970000000  0.4760470000000 1.0
C      1  0.4643570000000  0.5267530000000  0.4969650000000 1.0
C      1  0.5392190000000  0.5879970000000  0.5054000000000 1.0
C      1  0.5259260000000  0.4031670000000  0.4796200000000 1.0
C      1  0.4756510000000  0.4190830000000  0.5199000000000 1.0
C      1  0.4117910000000  0.5480340000000  0.5188270000000 1.0
C      1  0.4989090000000  0.5704860000000  0.4454920000000 1.0
C      1  0.4190460000000  0.5063510000000  0.5315600000000 1.0
C      1  0.5244760000000  0.4436010000000  0.5181900000000 1.0
C      1  0.5062200000000  0.5087590000000  0.5938440000000 1.0
C      1  0.4116690000000  0.4592510000000  0.4346530000000 1.0
C      1  0.5793490000000  0.4723670000000  0.5458450000000 1.0
C      1  0.5287070000000  0.5793880000000  0.5552010000000 1.0
C      1  0.4556300000000  0.4352890000000  0.4478960000000 1.0
C      1  0.5117710000000  0.4055200000000  0.5517730000000 1.0
C      1  0.4331230000000  0.5112890000000  0.5813810000000 1.0
C      1  0.4700390000000  0.5271640000000  0.4210730000000 1.0
C      1  0.5707850000000  0.4607030000000  0.4247100000000 1.0
C      1  0.5338350000000  0.4861820000000  0.4688510000000 1.0
C      1  0.5780730000000  0.4753120000000  0.5147740000000 1.0
C      1  0.5019550000000  0.5252030000000  0.4712640000000 1.0
C      1  0.5838530000000  0.4483430000000  0.4692820000000 1.0
C      1  0.5099120000000  0.5353280000000  0.5172320000000 1.0
C      1  0.4367210000000  0.5790960000000  0.4735370000000 1.0
C      1  0.5490480000000  0.4313400000000  0.5577850000000 1.0
C      1  0.4875450000000  0.5657930000000  0.4940580000000 1.0
C      1  0.5317790000000  0.5866680000000  0.4771480000000 1.0
C      1  0.4444510000000  0.4661240000000  0.5397510000000 1.0
C      1  0.5573500000000  0.5077060000000  0.5678200000000 1.0
C      1  0.5174540000000  0.4853180000000  0.5818200000000 1.0
C      1  0.5163590000000  0.5207270000000  0.5400600000000 1.0
C      1  0.5007200000000  0.5538760000000  0.5861880000000 1.0
C      1  0.5844830000000  0.4977160000000  0.5553280000000 1.0
C      1  0.4791400000000  0.4361040000000  0.4310820000000 1.0
C      1  0.4525780000000  0.5034540000000  0.4302350000000 1.0
C      1  0.5041270000000  0.5759800000000  0.5689410000000 1.0
C      1  0.4950890000000  0.4446910000000  0.5217350000000 1.0
C      1  0.5111590000000  0.5963980000000  0.4583470000000 1.0
C      1  0.5454970000000  0.4828640000000  0.5783580000000 1.0
C      1  0.4510870000000  0.4299960000000  0.5042590000000 1.0
C      1  0.4962960000000  0.4635720000000  0.4764590000000 1.0
C      1  0.4928970000000  0.4665500000000  0.5037700000000 1.0
C      1  0.4883260000000  0.4492240000000  0.5520350000000 1.0
C      1  0.5131730000000  0.5519120000000  0.4270620000000 1.0
C      1  0.5594080000000  0.5498960000000  0.4865490000000 1.0
C      1  0.5280940000000  0.3997240000000  0.5281390000000 1.0
C      1  0.4089320000000  0.5035950000000  0.4583700000000 1.0
C      1  0.5512680000000  0.4178680000000  0.4807670000000 1.0
C      1  0.4824160000000  0.5931660000000  0.5015770000000 1.0
C      1  0.5666700000000  0.4882970000000  0.4186050000000 1.0
C      1  0.5476080000000  0.4888550000000  0.5196240000000 1.0
C      1  0.4747500000000  0.5429060000000  0.5909810000000 1.0
C      1  0.4775840000000  0.6057210000000  0.4760310000000 1.0
C      1  0.5205610000000  0.5334090000000  0.5895450000000 1.0
C      1  0.4615190000000  0.4581940000000  0.5616300000000 1.0
C      1  0.4603720000000  0.4727240000000  0.5842990000000 1.0
C      1  0.4563240000000  0.4750420000000  0.4209700000000 1.0
C      1  0.4617990000000  0.5653320000000  0.5530150000000 1.0
C      1  0.4104170000000  0.5412550000000  0.4917710000000 1.0
C      1  0.5038950000000  0.4082380000000  0.4611320000000 1.0
C      1  0.5653840000000  0.4293790000000  0.4581000000000 1.0
C      1  0.4629690000000  0.4979540000000  0.4591710000000 1.0
C      1  0.4343690000000  0.4507820000000  0.5175820000000 1.0
C      1  0.4585610000000  0.5891310000000  0.4615570000000 1.0
C      1  0.5698020000000  0.5312140000000  0.5332760000000 1.0
C      1  0.5039250000000  0.4257690000000  0.4389440000000 1.0
C      1  0.4667160000000  0.5416020000000  0.5369890000000 1.0
C      1  0.4475100000000  0.4871960000000  0.4809210000000 1.0
C      1  0.5559450000000  0.5286040000000  0.4352260000000 1.0
C      1  0.4988220000000  0.5277400000000  0.4178900000000 1.0
C      1  0.4677290000000  0.5129760000000  0.5472400000000 1.0
C      1  0.4553890000000  0.4980800000000  0.5924390000000 1.0
C      1  0.5458410000000  0.5356130000000  0.5768460000000 1.0
C      1  0.4868630000000  0.4178390000000  0.5490670000000 1.0
C      1  0.4262050000000  0.5165410000000  0.4397620000000 1.0
C      1  0.4784080000000  0.5155260000000  0.5977160000000 1.0
C      1  0.4702600000000  0.5727620000000  0.4412380000000 1.0
C      1  0.5458480000000  0.5116910000000  0.5389360000000 1.0
C      1  0.4815400000000  0.5444080000000  0.5127390000000 1.0
C      1  0.4175420000000  0.5332700000000  0.5412950000000 1.0
C      1  0.4827580000000  0.5846650000000  0.5514220000000 1.0
C      1  0.5478610000000  0.4213900000000  0.5287160000000 1.0
C      1  0.5323580000000  0.4675490000000  0.5353260000000 1.0
C      1  0.5878530000000  0.5036890000000  0.5060820000000 1.0
C      1  0.5307350000000  0.4148770000000  0.5702380000000 1.0
C      1  0.4244220000000  0.4686950000000  0.4791440000000 1.0
C      1  0.5243380000000  0.4585430000000  0.4690330000000 1.0
C      1  0.5806070000000  0.4497910000000  0.4985210000000 1.0
C      1  0.5396730000000  0.5015430000000  0.4932020000000 1.0
C      1  0.5459500000000  0.5068030000000  0.4182800000000 1.0
C      1  0.5092550000000  0.4708120000000  0.4192740000000 1.0
C      1  0.4464200000000  0.4953360000000  0.5334020000000 1.0
END
