TITL C-2114528-2131-33 0.653119732193328 125000 -1338.56597321672 0 0 191 (C1) n - 1
REM
REM in /nfs/bkarasulu/CARBON/AIRSS/Generating-Clusters/GAP-ML-2020/Only-C1/SD-CG/HFTN-CG
REM
REM
REM
REM
REM
REM ./C.cell (11c1c37f851c82e70ff6c80c92926a4b)
REM
REM compiler GCC version 9.2.1 20190827 (Red Hat 9.2.1-1)
REM options -cpp -mtune=generic -march=x86-64 -g -O0 -fpre-include=/usr/include/finclude/math-vector-fortran.h
REM seed 348394191 -988837528 280685704 368955160 1585610868 -1294716212 -1896148213 -1621090075 -289035996 -149203710 -2001047264 -620245819 -1869453829 1325044070 -1107151422 -464972625 501094417 -497150642 -1376286883 1135390501 164775252 -314907171 -1900883009 1136495439 -831550044 -219959075 1854394757 -1876865863 -562924266 -441960244 -461515246 -1581599205 -869202220
REM
CELL 1.54180   50.00000   50.00000   50.00000   90.00000   90.00000   90.00000
LATT -1
SFAC C  
C      1  0.3966930000000  0.4972630000000  0.5499180000000 1.0
C      1  0.4184010000000  0.4541100000000  0.5603180000000 1.0
C      1  0.4948000000000  0.4515010000000  0.3924050000000 1.0
C      1  0.4813960000000  0.5162780000000  0.4352070000000 1.0
C      1  0.4124730000000  0.5473150000000  0.5405420000000 1.0
C      1  0.4653360000000  0.5591710000000  0.4326290000000 1.0
C      1  0.5098240000000  0.4945090000000  0.3796470000000 1.0
C      1  0.5608490000000  0.4099280000000  0.5334350000000 1.0
C      1  0.5558390000000  0.4239870000000  0.4548020000000 1.0
C      1  0.5179560000000  0.5201700000000  0.4900760000000 1.0
C      1  0.4451660000000  0.5152630000000  0.5952550000000 1.0
C      1  0.5536470000000  0.4504420000000  0.4957570000000 1.0
C      1  0.5335540000000  0.4645130000000  0.5339230000000 1.0
C      1  0.4478040000000  0.4541440000000  0.4151820000000 1.0
C      1  0.5589100000000  0.4081130000000  0.5034770000000 1.0
C      1  0.4164180000000  0.5482290000000  0.4350580000000 1.0
C      1  0.4658650000000  0.6131390000000  0.5192640000000 1.0
C      1  0.5653620000000  0.4635740000000  0.4197710000000 1.0
C      1  0.5597070000000  0.5177480000000  0.5747730000000 1.0
C      1  0.4416100000000  0.4930280000000  0.4486260000000 1.0
C      1  0.4587670000000  0.4085590000000  0.5195870000000 1.0
C      1  0.5513350000000  0.6112120000000  0.4921940000000 1.0
C      1  0.4508540000000  0.4623760000000  0.5141470000000 1.0
C      1  0.4357640000000  0.5545950000000  0.5585780000000 1.0
C      1  0.5616860000000  0.4649480000000  0.5233330000000 1.0
C      1  0.4969130000000  0.5914340000000  0.5522960000000 1.0
C      1  0.4551380000000  0.4588630000000  0.4859150000000 1.0
C      1  0.4424400000000  0.4814600000000  0.4063510000000 1.0
C      1  0.4770520000000  0.5203300000000  0.4035540000000 1.0
C      1  0.4760200000000  0.4241970000000  0.5377410000000 1.0
C      1  0.4698500000000  0.4720510000000  0.6015770000000 1.0
C      1  0.3943980000000  0.4850020000000  0.4661670000000 1.0
C      1  0.5364770000000  0.5384780000000  0.4749290000000 1.0
C      1  0.5096340000000  0.5535500000000  0.5228470000000 1.0
C      1  0.5806370000000  0.4741390000000  0.5674620000000 1.0
C      1  0.5268740000000  0.4355060000000  0.4968020000000 1.0
C      1  0.5286860000000  0.4295020000000  0.5807880000000 1.0
C      1  0.5365590000000  0.4850890000000  0.3844630000000 1.0
C      1  0.4745060000000  0.5533770000000  0.5830290000000 1.0
C      1  0.4944470000000  0.5780230000000  0.5233330000000 1.0
C      1  0.5046090000000  0.4175410000000  0.5373060000000 1.0
C      1  0.5558340000000  0.4372180000000  0.5763520000000 1.0
C      1  0.4480750000000  0.5818360000000  0.5561410000000 1.0
C      1  0.5823000000000  0.5319600000000  0.4527040000000 1.0
C      1  0.4560370000000  0.5083430000000  0.4890010000000 1.0
C      1  0.5438060000000  0.4608410000000  0.3991730000000 1.0
C      1  0.5502450000000  0.5144820000000  0.5251790000000 1.0
C      1  0.4708600000000  0.4017710000000  0.5808670000000 1.0
C      1  0.4617800000000  0.5949790000000  0.4697760000000 1.0
C      1  0.4315870000000  0.5017170000000  0.5045090000000 1.0
C      1  0.6033750000000  0.4682400000000  0.5202130000000 1.0
C      1  0.5301400000000  0.5332620000000  0.3959000000000 1.0
C      1  0.5486810000000  0.5345820000000  0.6081480000000 1.0
C      1  0.4341930000000  0.5839390000000  0.4761400000000 1.0
C      1  0.4768430000000  0.6072080000000  0.4920880000000 1.0
C      1  0.4229270000000  0.4727020000000  0.5824220000000 1.0
C      1  0.4967660000000  0.5350960000000  0.5797820000000 1.0
C      1  0.5474040000000  0.5100070000000  0.3920900000000 1.0
C      1  0.5237150000000  0.4981840000000  0.4282990000000 1.0
C      1  0.5989520000000  0.5393170000000  0.5020320000000 1.0
C      1  0.4266610000000  0.5011060000000  0.4244990000000 1.0
C      1  0.4365080000000  0.4840490000000  0.5261960000000 1.0
C      1  0.4076580000000  0.4600900000000  0.4689270000000 1.0
C      1  0.5969520000000  0.4405740000000  0.4765920000000 1.0
C      1  0.5443080000000  0.5393730000000  0.5588790000000 1.0
C      1  0.3978570000000  0.5308720000000  0.4480750000000 1.0
C      1  0.5163980000000  0.4416510000000  0.5234420000000 1.0
C      1  0.4177590000000  0.5677080000000  0.4584730000000 1.0
C      1  0.5952910000000  0.4925840000000  0.4783800000000 1.0
C      1  0.4448520000000  0.4847300000000  0.5992460000000 1.0
C      1  0.5709990000000  0.4305570000000  0.5513030000000 1.0
C      1  0.4719550000000  0.5192320000000  0.5349710000000 1.0
C      1  0.5506120000000  0.5084580000000  0.4209590000000 1.0
C      1  0.4676700000000  0.5366450000000  0.4531930000000 1.0
C      1  0.4328290000000  0.4189040000000  0.5258570000000 1.0
C      1  0.5657370000000  0.4979890000000  0.4870550000000 1.0
C      1  0.5622550000000  0.5249980000000  0.4745450000000 1.0
C      1  0.4460900000000  0.4196150000000  0.4525990000000 1.0
C      1  0.5494950000000  0.5079470000000  0.5995880000000 1.0
C      1  0.4374860000000  0.5075970000000  0.5691650000000 1.0
C      1  0.4751120000000  0.4560940000000  0.5303010000000 1.0
C      1  0.5893120000000  0.5033530000000  0.4488800000000 1.0
C      1  0.4876020000000  0.4777200000000  0.3832640000000 1.0
C      1  0.5311320000000  0.6070960000000  0.5115500000000 1.0
C      1  0.5377270000000  0.5609120000000  0.5172110000000 1.0
C      1  0.5146470000000  0.3997520000000  0.4709260000000 1.0
C      1  0.5442110000000  0.4795630000000  0.6025730000000 1.0
C      1  0.3994340000000  0.5433600000000  0.4967440000000 1.0
C      1  0.5846470000000  0.5537680000000  0.5264330000000 1.0
C      1  0.5435900000000  0.4763450000000  0.4850270000000 1.0
C      1  0.4356070000000  0.4648930000000  0.4614800000000 1.0
C      1  0.4067170000000  0.4724080000000  0.5372050000000 1.0
C      1  0.5693110000000  0.4275450000000  0.4822550000000 1.0
C      1  0.4740350000000  0.5783180000000  0.5680560000000 1.0
C      1  0.5209560000000  0.4419620000000  0.4021020000000 1.0
C      1  0.5297950000000  0.4129910000000  0.4482960000000 1.0
C      1  0.5193790000000  0.5847570000000  0.4756970000000 1.0
C      1  0.5233060000000  0.5081460000000  0.5169150000000 1.0
C      1  0.4203010000000  0.4236440000000  0.4999900000000 1.0
C      1  0.3903490000000  0.4906680000000  0.4943370000000 1.0
C      1  0.4977630000000  0.5378390000000  0.4989360000000 1.0
C      1  0.5230960000000  0.4805480000000  0.5106990000000 1.0
C      1  0.5558010000000  0.5418770000000  0.5312440000000 1.0
C      1  0.5216570000000  0.5436580000000  0.4476910000000 1.0
C      1  0.4031980000000  0.4459580000000  0.4936690000000 1.0
C      1  0.5047000000000  0.5968720000000  0.4993110000000 1.0
C      1  0.5453570000000  0.5597100000000  0.6010610000000 1.0
C      1  0.4008510000000  0.5032560000000  0.4444300000000 1.0
C      1  0.4761830000000  0.4455820000000  0.4140930000000 1.0
C      1  0.4339940000000  0.4313000000000  0.5529580000000 1.0
C      1  0.4620780000000  0.4270460000000  0.5657810000000 1.0
C      1  0.4110780000000  0.4967600000000  0.5736200000000 1.0
C      1  0.4724440000000  0.4089090000000  0.4475260000000 1.0
C      1  0.5046530000000  0.5214410000000  0.3898440000000 1.0
C      1  0.4879450000000  0.4689050000000  0.4334890000000 1.0
C      1  0.5225730000000  0.4733130000000  0.4648550000000 1.0
C      1  0.3996020000000  0.5210880000000  0.5351570000000 1.0
C      1  0.4769460000000  0.5809140000000  0.4467110000000 1.0
C      1  0.5084390000000  0.4476470000000  0.5905340000000 1.0
C      1  0.5835730000000  0.4564050000000  0.5425920000000 1.0
C      1  0.5022120000000  0.5681980000000  0.4574680000000 1.0
C      1  0.4656860000000  0.4932210000000  0.3940600000000 1.0
C      1  0.5686610000000  0.4945740000000  0.5168740000000 1.0
C      1  0.4871550000000  0.4210630000000  0.4266960000000 1.0
C      1  0.5073990000000  0.5009570000000  0.4705590000000 1.0
C      1  0.4603230000000  0.5459520000000  0.5392720000000 1.0
C      1  0.4794650000000  0.4898210000000  0.4746730000000 1.0
C      1  0.4964880000000  0.5069470000000  0.5851280000000 1.0
C      1  0.5182530000000  0.4082400000000  0.5643360000000 1.0
C      1  0.4385070000000  0.4443520000000  0.4403320000000 1.0
C      1  0.4321110000000  0.5315220000000  0.4184700000000 1.0
C      1  0.5027770000000  0.5133280000000  0.5397220000000 1.0
C      1  0.4556210000000  0.4958240000000  0.5470640000000 1.0
C      1  0.5287750000000  0.5869380000000  0.5577110000000 1.0
C      1  0.3945490000000  0.4667830000000  0.5107910000000 1.0
C      1  0.5154300000000  0.4223860000000  0.4240940000000 1.0
C      1  0.5424440000000  0.5415750000000  0.4234690000000 1.0
C      1  0.6013440000000  0.5405970000000  0.5455250000000 1.0
C      1  0.5675550000000  0.5771990000000  0.4481310000000 1.0
C      1  0.4622680000000  0.4014510000000  0.4916350000000 1.0
C      1  0.5404410000000  0.5672660000000  0.5749110000000 1.0
C      1  0.6015870000000  0.5137380000000  0.5481810000000 1.0
C      1  0.4458290000000  0.5195690000000  0.4648710000000 1.0
C      1  0.5169470000000  0.4704390000000  0.6054180000000 1.0
C      1  0.5161920000000  0.4729180000000  0.4365160000000 1.0
C      1  0.4626140000000  0.5534010000000  0.4955130000000 1.0
C      1  0.4261380000000  0.5834030000000  0.5062110000000 1.0
C      1  0.6027520000000  0.4652560000000  0.4915690000000 1.0
C      1  0.4705550000000  0.5265490000000  0.5063480000000 1.0
C      1  0.5081810000000  0.4497080000000  0.4754010000000 1.0
C      1  0.5400840000000  0.5646520000000  0.4873740000000 1.0
C      1  0.4846490000000  0.3989340000000  0.4713390000000 1.0
C      1  0.5135060000000  0.5370580000000  0.5529300000000 1.0
C      1  0.5733310000000  0.4408190000000  0.4373480000000 1.0
C      1  0.5853050000000  0.5465420000000  0.4788730000000 1.0
C      1  0.4571040000000  0.5425920000000  0.4097790000000 1.0
C      1  0.6069690000000  0.5119500000000  0.4994550000000 1.0
C      1  0.4785590000000  0.4525760000000  0.5797570000000 1.0
C      1  0.4386030000000  0.4128420000000  0.4795620000000 1.0
C      1  0.5628800000000  0.4627190000000  0.5867790000000 1.0
C      1  0.5540700000000  0.6009340000000  0.4443450000000 1.0
C      1  0.5744710000000  0.5944660000000  0.4973010000000 1.0
C      1  0.4967720000000  0.4627610000000  0.5118180000000 1.0
C      1  0.4022190000000  0.5156420000000  0.5064680000000 1.0
C      1  0.5728330000000  0.4906140000000  0.4286000000000 1.0
C      1  0.5827270000000  0.5022650000000  0.5665700000000 1.0
C      1  0.4107020000000  0.5616040000000  0.5154170000000 1.0
C      1  0.5256480000000  0.4761600000000  0.5580550000000 1.0
C      1  0.4480210000000  0.5417220000000  0.5842760000000 1.0
C      1  0.4938320000000  0.4875820000000  0.6061630000000 1.0
C      1  0.6007150000000  0.4973450000000  0.5234160000000 1.0
C      1  0.5202310000000  0.3960770000000  0.5229090000000 1.0
C      1  0.5085560000000  0.5165760000000  0.4444130000000 1.0
C      1  0.4720900000000  0.4894810000000  0.4456440000000 1.0
C      1  0.5393140000000  0.6064790000000  0.4665480000000 1.0
C      1  0.4768800000000  0.4734800000000  0.5549010000000 1.0
C      1  0.4849800000000  0.6144130000000  0.5392760000000 1.0
C      1  0.5995890000000  0.4394070000000  0.4489830000000 1.0
C      1  0.5429230000000  0.5882370000000  0.5315060000000 1.0
C      1  0.5708570000000  0.5718430000000  0.4774250000000 1.0
C      1  0.5733520000000  0.5831970000000  0.5232120000000 1.0
C      1  0.5385840000000  0.3957940000000  0.5438100000000 1.0
C      1  0.5019780000000  0.4910790000000  0.5594030000000 1.0
C      1  0.3979480000000  0.5501040000000  0.4699830000000 1.0
C      1  0.4838110000000  0.4619880000000  0.4850060000000 1.0
C      1  0.5299700000000  0.4045460000000  0.4965920000000 1.0
C      1  0.4838310000000  0.5510690000000  0.4745400000000 1.0
C      1  0.4955470000000  0.3947990000000  0.5794710000000 1.0
C      1  0.4474190000000  0.5908990000000  0.5260240000000 1.0
C      1  0.4665250000000  0.5683130000000  0.5203170000000 1.0
C      1  0.5681060000000  0.5519300000000  0.4348050000000 1.0
END
