TITL C-2109088-1588-30 0.334560452296957 125000 -1132.85349734129 0 0 162 (C1) n - 1
REM
REM in /nfs/bkarasulu/CARBON/AIRSS/Generating-Clusters/GAP-ML-2020/Only-C1/SD-CG/HFTN-CG
REM
REM
REM
REM
REM
REM ./C.cell (11c1c37f851c82e70ff6c80c92926a4b)
REM
REM compiler GCC version 9.2.1 20190827 (Red Hat 9.2.1-1)
REM options -cpp -mtune=generic -march=x86-64 -g -O0 -fpre-include=/usr/include/finclude/math-vector-fortran.h
REM seed 1006603964 3112316 -268906839 855915216 1323230682 1690802783 -870260692 -1570506071 443022397 -2004746565 -1763177992 2090415453 -1429960315 -408025087 -416131975 1431534920 1864902723 -1647666142 -560770673 -137917833 -207585058 1936017837 -604643525 792802645 -1812116312 271480920 -383864326 -214301670 -659605371 -1684383229 -2118651758 -1528554608 1298216821
REM
CELL 1.54180   50.00000   50.00000   50.00000   90.00000   90.00000   90.00000
LATT -1
SFAC C  
C      1  0.5455210000000  0.5470880000000  0.4888750000000 1.0
C      1  0.5406910000000  0.5467720000000  0.5412500000000 1.0
C      1  0.5072240000000  0.5284390000000  0.5176870000000 1.0
C      1  0.5894780000000  0.5495780000000  0.4551350000000 1.0
C      1  0.5709700000000  0.5725250000000  0.4605630000000 1.0
C      1  0.5705170000000  0.5143440000000  0.5662600000000 1.0
C      1  0.5434550000000  0.5187950000000  0.4115560000000 1.0
C      1  0.5406960000000  0.5233750000000  0.5608860000000 1.0
C      1  0.5533440000000  0.5301430000000  0.4350370000000 1.0
C      1  0.4548570000000  0.3985160000000  0.4749170000000 1.0
C      1  0.5534160000000  0.4818130000000  0.4592250000000 1.0
C      1  0.5482380000000  0.4917980000000  0.4024510000000 1.0
C      1  0.4627640000000  0.5049240000000  0.6160550000000 1.0
C      1  0.4617760000000  0.5270800000000  0.5062910000000 1.0
C      1  0.5353730000000  0.5325000000000  0.4639420000000 1.0
C      1  0.5142320000000  0.4242700000000  0.5094370000000 1.0
C      1  0.5913760000000  0.5185200000000  0.5466190000000 1.0
C      1  0.5254340000000  0.4970020000000  0.5493960000000 1.0
C      1  0.4889240000000  0.5996170000000  0.4892940000000 1.0
C      1  0.4961520000000  0.4992490000000  0.4837870000000 1.0
C      1  0.5300260000000  0.4197640000000  0.5357540000000 1.0
C      1  0.4711640000000  0.4374130000000  0.4108550000000 1.0
C      1  0.4657700000000  0.5327790000000  0.5350320000000 1.0
C      1  0.5265270000000  0.4894240000000  0.4492340000000 1.0
C      1  0.3917870000000  0.4755280000000  0.4951940000000 1.0
C      1  0.5709480000000  0.4884530000000  0.5786650000000 1.0
C      1  0.5249010000000  0.5047270000000  0.4738530000000 1.0
C      1  0.4771330000000  0.5964240000000  0.4634530000000 1.0
C      1  0.5124750000000  0.4213600000000  0.5577190000000 1.0
C      1  0.5477940000000  0.4515520000000  0.4225940000000 1.0
C      1  0.4426700000000  0.5063890000000  0.5025590000000 1.0
C      1  0.5085570000000  0.3955830000000  0.4688610000000 1.0
C      1  0.5637010000000  0.4407280000000  0.5101340000000 1.0
C      1  0.4739370000000  0.4481200000000  0.5685050000000 1.0
C      1  0.4239110000000  0.5473220000000  0.4541850000000 1.0
C      1  0.5508450000000  0.5079550000000  0.5119080000000 1.0
C      1  0.5493690000000  0.5843820000000  0.4503760000000 1.0
C      1  0.4648790000000  0.5260830000000  0.4243110000000 1.0
C      1  0.5238350000000  0.5377310000000  0.5824140000000 1.0
C      1  0.4743820000000  0.5054600000000  0.4034310000000 1.0
C      1  0.5098520000000  0.5498120000000  0.4224150000000 1.0
C      1  0.5092650000000  0.3914540000000  0.4413740000000 1.0
C      1  0.4754750000000  0.5050930000000  0.5444860000000 1.0
C      1  0.4978340000000  0.5372410000000  0.5675740000000 1.0
C      1  0.5171930000000  0.4557220000000  0.5008970000000 1.0
C      1  0.5144460000000  0.5199520000000  0.6056450000000 1.0
C      1  0.5658120000000  0.4715700000000  0.4141400000000 1.0
C      1  0.5568940000000  0.4304320000000  0.5380870000000 1.0
C      1  0.5187720000000  0.4412260000000  0.5772220000000 1.0
C      1  0.4189980000000  0.5577920000000  0.4811680000000 1.0
C      1  0.4692090000000  0.4116770000000  0.4247740000000 1.0
C      1  0.6036550000000  0.5256810000000  0.5015640000000 1.0
C      1  0.4534260000000  0.4861140000000  0.4563820000000 1.0
C      1  0.4423720000000  0.4961440000000  0.5989970000000 1.0
C      1  0.4026790000000  0.4509860000000  0.5052520000000 1.0
C      1  0.4466680000000  0.5532440000000  0.5513410000000 1.0
C      1  0.5114490000000  0.5437440000000  0.4520190000000 1.0
C      1  0.3887300000000  0.5196730000000  0.4794050000000 1.0
C      1  0.4468370000000  0.5797950000000  0.5105900000000 1.0
C      1  0.4819500000000  0.4939620000000  0.4578280000000 1.0
C      1  0.4877870000000  0.5269600000000  0.4936330000000 1.0
C      1  0.4757150000000  0.5887490000000  0.5148380000000 1.0
C      1  0.4969420000000  0.5904760000000  0.4433990000000 1.0
C      1  0.4429300000000  0.4205620000000  0.5255090000000 1.0
C      1  0.5034760000000  0.5008800000000  0.5298530000000 1.0
C      1  0.4104250000000  0.4561510000000  0.5316900000000 1.0
C      1  0.5351320000000  0.5659550000000  0.5797110000000 1.0
C      1  0.4985240000000  0.4078640000000  0.4226320000000 1.0
C      1  0.5024860000000  0.5036520000000  0.3966640000000 1.0
C      1  0.4080410000000  0.4861260000000  0.5377010000000 1.0
C      1  0.4341570000000  0.4964460000000  0.5287750000000 1.0
C      1  0.5226410000000  0.4808370000000  0.3962250000000 1.0
C      1  0.4829160000000  0.3964110000000  0.4831460000000 1.0
C      1  0.5477870000000  0.4787460000000  0.5923090000000 1.0
C      1  0.4006170000000  0.4772720000000  0.4680140000000 1.0
C      1  0.4463320000000  0.4574800000000  0.4475410000000 1.0
C      1  0.4878980000000  0.5409240000000  0.4677120000000 1.0
C      1  0.4633640000000  0.5567180000000  0.4242740000000 1.0
C      1  0.4866030000000  0.5092840000000  0.5700260000000 1.0
C      1  0.5797550000000  0.5267810000000  0.4417810000000 1.0
C      1  0.4401060000000  0.4196710000000  0.4941610000000 1.0
C      1  0.3999490000000  0.5048390000000  0.4596360000000 1.0
C      1  0.4740340000000  0.5962950000000  0.5448670000000 1.0
C      1  0.4184390000000  0.4538230000000  0.4621380000000 1.0
C      1  0.4425150000000  0.5061180000000  0.4333640000000 1.0
C      1  0.6069690000000  0.4964370000000  0.5043550000000 1.0
C      1  0.4978630000000  0.4481000000000  0.4539700000000 1.0
C      1  0.4615490000000  0.5786300000000  0.5613130000000 1.0
C      1  0.4687630000000  0.4393050000000  0.4599210000000 1.0
C      1  0.4746370000000  0.4675060000000  0.5226670000000 1.0
C      1  0.5429480000000  0.4659110000000  0.5086880000000 1.0
C      1  0.4121820000000  0.5477510000000  0.5081040000000 1.0
C      1  0.4977590000000  0.4789350000000  0.5075150000000 1.0
C      1  0.5945080000000  0.5385680000000  0.5263620000000 1.0
C      1  0.4923390000000  0.5447910000000  0.5380660000000 1.0
C      1  0.5273880000000  0.4154030000000  0.4832270000000 1.0
C      1  0.5894920000000  0.4763250000000  0.4307620000000 1.0
C      1  0.5072100000000  0.4881130000000  0.5765200000000 1.0
C      1  0.5222670000000  0.4436700000000  0.4692790000000 1.0
C      1  0.5452000000000  0.4867070000000  0.5309930000000 1.0
C      1  0.4474590000000  0.4591860000000  0.5618090000000 1.0
C      1  0.5673240000000  0.5801130000000  0.5390430000000 1.0
C      1  0.5236590000000  0.5935360000000  0.4567610000000 1.0
C      1  0.5248630000000  0.4942760000000  0.5991350000000 1.0
C      1  0.4838440000000  0.4221920000000  0.5530780000000 1.0
C      1  0.5572030000000  0.5642860000000  0.5606000000000 1.0
C      1  0.5442430000000  0.5928430000000  0.5274820000000 1.0
C      1  0.4853160000000  0.4158720000000  0.5055940000000 1.0
C      1  0.5234200000000  0.4522430000000  0.4054430000000 1.0
C      1  0.5012140000000  0.4336100000000  0.4067900000000 1.0
C      1  0.4279890000000  0.5150200000000  0.5797630000000 1.0
C      1  0.4738390000000  0.5323530000000  0.5852660000000 1.0
C      1  0.4892250000000  0.5697180000000  0.4243240000000 1.0
C      1  0.6001960000000  0.4783670000000  0.4562360000000 1.0
C      1  0.5157220000000  0.5826220000000  0.5667630000000 1.0
C      1  0.4871850000000  0.4496610000000  0.5427350000000 1.0
C      1  0.6039920000000  0.4713180000000  0.5481730000000 1.0
C      1  0.5441790000000  0.4515870000000  0.5819340000000 1.0
C      1  0.5557700000000  0.4206230000000  0.4881250000000 1.0
C      1  0.4140610000000  0.4936430000000  0.5662880000000 1.0
C      1  0.5791460000000  0.4980990000000  0.4484100000000 1.0
C      1  0.4654380000000  0.4371900000000  0.4892840000000 1.0
C      1  0.4612100000000  0.4635450000000  0.4988650000000 1.0
C      1  0.4317150000000  0.4754410000000  0.5813550000000 1.0
C      1  0.5645570000000  0.4441590000000  0.5628470000000 1.0
C      1  0.4316460000000  0.4414260000000  0.5423140000000 1.0
C      1  0.4534290000000  0.4589190000000  0.4177570000000 1.0
C      1  0.4876650000000  0.5881650000000  0.5684420000000 1.0
C      1  0.4305590000000  0.5614330000000  0.5266040000000 1.0
C      1  0.5170780000000  0.5272280000000  0.4059360000000 1.0
C      1  0.4793550000000  0.5216730000000  0.4490000000000 1.0
C      1  0.4597360000000  0.4125110000000  0.4506390000000 1.0
C      1  0.5704580000000  0.4360620000000  0.4693520000000 1.0
C      1  0.4435810000000  0.5652000000000  0.4421890000000 1.0
C      1  0.5377920000000  0.6040270000000  0.5039160000000 1.0
C      1  0.4694500000000  0.4128050000000  0.5304550000000 1.0
C      1  0.5176920000000  0.6014870000000  0.4851580000000 1.0
C      1  0.4967130000000  0.5702630000000  0.5250830000000 1.0
C      1  0.4536320000000  0.4871550000000  0.4107430000000 1.0
C      1  0.5471870000000  0.4901570000000  0.4885800000000 1.0
C      1  0.4189810000000  0.5202790000000  0.4444400000000 1.0
C      1  0.4841910000000  0.5211210000000  0.6100020000000 1.0
C      1  0.5370870000000  0.5337080000000  0.5134710000000 1.0
C      1  0.6039580000000  0.4941050000000  0.5334550000000 1.0
C      1  0.5495370000000  0.4521770000000  0.4543500000000 1.0
C      1  0.4566370000000  0.4835660000000  0.5404280000000 1.0
C      1  0.5829180000000  0.5644220000000  0.5206000000000 1.0
C      1  0.6015080000000  0.4734070000000  0.4850850000000 1.0
C      1  0.4174110000000  0.4365710000000  0.4851580000000 1.0
C      1  0.4510810000000  0.5855300000000  0.4610340000000 1.0
C      1  0.5863910000000  0.4497790000000  0.4898420000000 1.0
C      1  0.4979770000000  0.4597720000000  0.5793130000000 1.0
C      1  0.5729890000000  0.5612210000000  0.4913580000000 1.0
C      1  0.4371540000000  0.5794030000000  0.4845550000000 1.0
C      1  0.3918010000000  0.4968660000000  0.5147040000000 1.0
C      1  0.5837130000000  0.4657910000000  0.5651300000000 1.0
C      1  0.5016470000000  0.4752170000000  0.4474890000000 1.0
C      1  0.4484190000000  0.4850340000000  0.4857330000000 1.0
C      1  0.5964330000000  0.5449380000000  0.4821410000000 1.0
C      1  0.3937780000000  0.5245410000000  0.5056490000000 1.0
C      1  0.4453740000000  0.5363930000000  0.5752610000000 1.0
C      1  0.5220640000000  0.5761340000000  0.5383330000000 1.0
END
