TITL C-2114534-8668-17 -0.0584389959826472 125000 -746.539891725117 0 0 105 (C1) n - 1
REM
REM in /nfs/bkarasulu/CARBON/AIRSS/Generating-Clusters/GAP-ML-2020/Only-C1/SD-CG/HFTN-CG
REM
REM
REM
REM
REM
REM ./C.cell (11c1c37f851c82e70ff6c80c92926a4b)
REM
REM compiler GCC version 9.2.1 20190827 (Red Hat 9.2.1-1)
REM options -cpp -mtune=generic -march=x86-64 -g -O0 -fpre-include=/usr/include/finclude/math-vector-fortran.h
REM seed 839565841 -467363704 1364901505 1051136541 -1672918973 -1953687031 607949492 -578130975 -1451695244 1500036998 -1074520046 1419059228 -771350966 2017078264 -807923400 -505052670 1139650307 -1340387223 -1114810072 1755102943 -1001177681 -1807325369 -989140246 -540904843 2113508279 -1188252530 220446411 85021556 -107793744 2018822916 -323199198 1145541077 -444248384
REM
CELL 1.54180   50.00000   50.00000   50.00000   90.00000   90.00000   90.00000
LATT -1
SFAC C  
C      1  0.5033710000000  0.5550590000000  0.4312110000000 1.0
C      1  0.5226550000000  0.4317010000000  0.4532530000000 1.0
C      1  0.4972410000000  0.4143970000000  0.5216590000000 1.0
C      1  0.4639360000000  0.5791040000000  0.5467790000000 1.0
C      1  0.4536360000000  0.5478210000000  0.4571200000000 1.0
C      1  0.5215820000000  0.5043480000000  0.4866950000000 1.0
C      1  0.4675550000000  0.5839720000000  0.5184350000000 1.0
C      1  0.5449030000000  0.4266070000000  0.5244570000000 1.0
C      1  0.5075850000000  0.5665810000000  0.5310510000000 1.0
C      1  0.5299900000000  0.5457290000000  0.4354400000000 1.0
C      1  0.5416910000000  0.5484870000000  0.5626960000000 1.0
C      1  0.4691200000000  0.4624960000000  0.5683760000000 1.0
C      1  0.4215900000000  0.4695650000000  0.4870690000000 1.0
C      1  0.4819030000000  0.5108770000000  0.4256720000000 1.0
C      1  0.5798590000000  0.4928860000000  0.4928670000000 1.0
C      1  0.5219940000000  0.4526350000000  0.4018180000000 1.0
C      1  0.4944800000000  0.5513910000000  0.5768860000000 1.0
C      1  0.5569330000000  0.4446150000000  0.5430970000000 1.0
C      1  0.5381090000000  0.6003190000000  0.5081030000000 1.0
C      1  0.4498730000000  0.5649190000000  0.5067210000000 1.0
C      1  0.5387720000000  0.5172690000000  0.4355680000000 1.0
C      1  0.4824000000000  0.5206760000000  0.5125430000000 1.0
C      1  0.4539540000000  0.5415050000000  0.4291770000000 1.0
C      1  0.5146630000000  0.4342340000000  0.5601830000000 1.0
C      1  0.4557680000000  0.4751660000000  0.4498680000000 1.0
C      1  0.4598890000000  0.5088670000000  0.5586400000000 1.0
C      1  0.4975750000000  0.4296320000000  0.4392080000000 1.0
C      1  0.5194960000000  0.5687040000000  0.4774610000000 1.0
C      1  0.4191860000000  0.5187300000000  0.4862010000000 1.0
C      1  0.4821000000000  0.5399120000000  0.4199370000000 1.0
C      1  0.5469050000000  0.4290590000000  0.4959380000000 1.0
C      1  0.5392110000000  0.4489720000000  0.5654320000000 1.0
C      1  0.5750740000000  0.4643540000000  0.5335410000000 1.0
C      1  0.4805100000000  0.5407140000000  0.4659210000000 1.0
C      1  0.5409690000000  0.5570190000000  0.4597030000000 1.0
C      1  0.5627270000000  0.5157930000000  0.4531660000000 1.0
C      1  0.4357860000000  0.4944050000000  0.4453390000000 1.0
C      1  0.5020560000000  0.4897290000000  0.4178560000000 1.0
C      1  0.5248860000000  0.5112450000000  0.5336980000000 1.0
C      1  0.5136780000000  0.4780030000000  0.4466550000000 1.0
C      1  0.5156250000000  0.4767270000000  0.4916490000000 1.0
C      1  0.5015200000000  0.5288100000000  0.5913340000000 1.0
C      1  0.5642050000000  0.4498810000000  0.4865300000000 1.0
C      1  0.4342540000000  0.4521900000000  0.5326680000000 1.0
C      1  0.4764030000000  0.4905080000000  0.5746120000000 1.0
C      1  0.5745870000000  0.5141420000000  0.5355220000000 1.0
C      1  0.5378910000000  0.4580610000000  0.4444470000000 1.0
C      1  0.5417450000000  0.4741830000000  0.5805150000000 1.0
C      1  0.5203770000000  0.4191410000000  0.5366790000000 1.0
C      1  0.4208020000000  0.4711470000000  0.5154550000000 1.0
C      1  0.5766270000000  0.4674130000000  0.5052370000000 1.0
C      1  0.5515950000000  0.5575890000000  0.5098740000000 1.0
C      1  0.4733560000000  0.4286640000000  0.4544490000000 1.0
C      1  0.4221160000000  0.5209530000000  0.5145510000000 1.0
C      1  0.4763300000000  0.4901460000000  0.4700640000000 1.0
C      1  0.5344240000000  0.5696060000000  0.5446040000000 1.0
C      1  0.4783400000000  0.4754980000000  0.5144550000000 1.0
C      1  0.4392440000000  0.5430790000000  0.5264810000000 1.0
C      1  0.4393720000000  0.5830740000000  0.5584060000000 1.0
C      1  0.5177090000000  0.5066630000000  0.4575810000000 1.0
C      1  0.5318170000000  0.4960910000000  0.4151760000000 1.0
C      1  0.5695670000000  0.5407240000000  0.4954560000000 1.0
C      1  0.4362150000000  0.4459060000000  0.4784250000000 1.0
C      1  0.5410700000000  0.4679580000000  0.4160790000000 1.0
C      1  0.4304500000000  0.5614040000000  0.5481750000000 1.0
C      1  0.5569790000000  0.4946150000000  0.5675460000000 1.0
C      1  0.5214600000000  0.5515190000000  0.5051140000000 1.0
C      1  0.5764080000000  0.4885350000000  0.5482770000000 1.0
C      1  0.5244000000000  0.4218330000000  0.4796150000000 1.0
C      1  0.4718390000000  0.4973840000000  0.4993530000000 1.0
C      1  0.4507770000000  0.4308470000000  0.5234450000000 1.0
C      1  0.4978650000000  0.5623240000000  0.4586510000000 1.0
C      1  0.4888680000000  0.5135110000000  0.4556210000000 1.0
C      1  0.4986760000000  0.4999300000000  0.5902310000000 1.0
C      1  0.4512580000000  0.4282680000000  0.4953910000000 1.0
C      1  0.5599190000000  0.4646930000000  0.4622130000000 1.0
C      1  0.4746490000000  0.4193850000000  0.4809190000000 1.0
C      1  0.4419170000000  0.5631290000000  0.4807950000000 1.0
C      1  0.4970550000000  0.4661150000000  0.4012880000000 1.0
C      1  0.5156830000000  0.5946280000000  0.4945640000000 1.0
C      1  0.5215170000000  0.4846810000000  0.5344330000000 1.0
C      1  0.4374100000000  0.4934010000000  0.5519260000000 1.0
C      1  0.4515840000000  0.4479020000000  0.4548760000000 1.0
C      1  0.4853170000000  0.4390470000000  0.5603840000000 1.0
C      1  0.4954900000000  0.5873230000000  0.5148950000000 1.0
C      1  0.4750410000000  0.4246130000000  0.5371060000000 1.0
C      1  0.4284170000000  0.5412390000000  0.4724630000000 1.0
C      1  0.5003880000000  0.4402210000000  0.4132910000000 1.0
C      1  0.5704730000000  0.4914130000000  0.4657320000000 1.0
C      1  0.5208570000000  0.4844880000000  0.5942520000000 1.0
C      1  0.5127560000000  0.5228370000000  0.5083080000000 1.0
C      1  0.4216240000000  0.4968300000000  0.5284650000000 1.0
C      1  0.4212170000000  0.4941240000000  0.4714660000000 1.0
C      1  0.4497370000000  0.5126020000000  0.4286630000000 1.0
C      1  0.5792810000000  0.5171380000000  0.5078620000000 1.0
C      1  0.4979050000000  0.4700410000000  0.4704920000000 1.0
C      1  0.5504010000000  0.5822810000000  0.5238210000000 1.0
C      1  0.4438290000000  0.4657350000000  0.5554380000000 1.0
C      1  0.5212730000000  0.5464130000000  0.5823180000000 1.0
C      1  0.5054820000000  0.4714180000000  0.5171600000000 1.0
C      1  0.5623950000000  0.5397950000000  0.4682550000000 1.0
C      1  0.4681340000000  0.5306540000000  0.5376870000000 1.0
C      1  0.4837280000000  0.5559970000000  0.5490270000000 1.0
C      1  0.5492450000000  0.5214050000000  0.5515140000000 1.0
C      1  0.4994930000000  0.4146260000000  0.4932780000000 1.0
END
