TITL C-215722-9374-6 -0.0521870402106321 125000 -143.005738546197 0 0 22 (C1) n - 1
REM
REM in /rds/project/t2_vol4/rds-t2-cs072/BORA/CARBON/from-Arr/AIRSS/Generating-Clusters/GAP-ML-2020/Only-C1/SD-CG/HFTN-CG
REM
REM
REM
REM
REM
REM ./C.cell (11c1c37f851c82e70ff6c80c92926a4b)
REM AIRSS Version 0.9.1 bugfix July 2018 build 013d7b7c2542+ Fri, 06 Jul 2018 19:26:36 +0100
REM compiler GCC version 9.3.0
REM options -cpp -mtune=generic -march=x86-64 -g -O0
REM seed -946441756 -839332530 -579126215 -543078232 -420636084 -612033632 -755566351 -1975445026 486781109 -1930641370 527383634 -881874446 -1998506790 1177865677 147239982 -224558234 203416437 183805350 1161785252 715781452 -857272437 -728586534 1416425290 1608270468 -120662455 -605402833 232161720 352884003 -395037548 -1137625962 -729451036 -677577299 1797025349
REM
CELL 1.54180   50.00000   50.00000   50.00000   90.00000   90.00000   90.00000
LATT -1
SFAC C  
C      1  0.4764550000000  0.5005720000000  0.4568230000000 1.0
C      1  0.4691830000000  0.4781360000000  0.4979550000000 1.0
C      1  0.5360730000000  0.5156110000000  0.4866590000000 1.0
C      1  0.4856380000000  0.5258360000000  0.4473700000000 1.0
C      1  0.4946780000000  0.4700340000000  0.4880880000000 1.0
C      1  0.5115190000000  0.5266830000000  0.4459680000000 1.0
C      1  0.5471120000000  0.4929320000000  0.5303710000000 1.0
C      1  0.5290410000000  0.4444820000000  0.5193730000000 1.0
C      1  0.4846070000000  0.4829830000000  0.5442510000000 1.0
C      1  0.5077220000000  0.4810640000000  0.5548370000000 1.0
C      1  0.4453330000000  0.5174230000000  0.4923040000000 1.0
C      1  0.4605240000000  0.5193750000000  0.5167670000000 1.0
C      1  0.4803940000000  0.5385830000000  0.5198330000000 1.0
C      1  0.5041380000000  0.5445420000000  0.5113090000000 1.0
C      1  0.4671750000000  0.4896200000000  0.5242600000000 1.0
C      1  0.5334090000000  0.4855310000000  0.5513010000000 1.0
C      1  0.5480550000000  0.4997010000000  0.5057570000000 1.0
C      1  0.5005100000000  0.4865700000000  0.4654630000000 1.0
C      1  0.5226780000000  0.5053650000000  0.4628230000000 1.0
C      1  0.5255730000000  0.5412950000000  0.4964320000000 1.0
C      1  0.5130620000000  0.4565340000000  0.5039500000000 1.0
C      1  0.4571230000000  0.4971280000000  0.4781060000000 1.0
END
