TITL C-2114526-3908-28 -0.136287563697687 125000 -1146.2971244818 0 0 162 (C1) n - 1
REM
REM in /nfs/bkarasulu/CARBON/AIRSS/Generating-Clusters/GAP-ML-2020/Only-C1/SD-CG/HFTN-CG
REM
REM
REM
REM
REM
REM ./C.cell (11c1c37f851c82e70ff6c80c92926a4b)
REM
REM compiler GCC version 9.2.1 20190827 (Red Hat 9.2.1-1)
REM options -cpp -mtune=generic -march=x86-64 -g -O0 -fpre-include=/usr/include/finclude/math-vector-fortran.h
REM seed 1674339782 -298585833 371321231 -1048938992 -1296003500 1337641774 -1587670131 -1647746721 -605361316 -1962424626 1115652878 64695428 1619466498 1147501229 -737099236 518355572 1491181544 106187696 -768902605 878655453 1865389566 1948569503 -1165992096 -1768149304 1311730325 309640472 1546189615 2091271995 1059519010 579929420 144679218 824667432 1039802352
REM
CELL 1.54180   50.00000   50.00000   50.00000   90.00000   90.00000   90.00000
LATT -1
SFAC C  
C      1  0.5521200000000  0.4646910000000  0.5457900000000 1.0
C      1  0.5219160000000  0.5183800000000  0.4448730000000 1.0
C      1  0.5515100000000  0.4843840000000  0.4739200000000 1.0
C      1  0.5168530000000  0.4612140000000  0.6071030000000 1.0
C      1  0.4461680000000  0.5133820000000  0.4715390000000 1.0
C      1  0.4652500000000  0.5018120000000  0.5454880000000 1.0
C      1  0.5406900000000  0.4818220000000  0.5243180000000 1.0
C      1  0.4051900000000  0.5524850000000  0.4785440000000 1.0
C      1  0.5334250000000  0.4827680000000  0.4954470000000 1.0
C      1  0.5127450000000  0.4458450000000  0.5824580000000 1.0
C      1  0.4776830000000  0.5320140000000  0.5006280000000 1.0
C      1  0.4846820000000  0.5351780000000  0.4715590000000 1.0
C      1  0.4214880000000  0.4820800000000  0.4201720000000 1.0
C      1  0.4531740000000  0.5422840000000  0.5753110000000 1.0
C      1  0.5526560000000  0.5770250000000  0.5429500000000 1.0
C      1  0.4354300000000  0.4880850000000  0.4693940000000 1.0
C      1  0.4018280000000  0.5318810000000  0.4590750000000 1.0
C      1  0.4574000000000  0.4500100000000  0.5236970000000 1.0
C      1  0.4644220000000  0.5943180000000  0.5031600000000 1.0
C      1  0.5331720000000  0.4925760000000  0.4067590000000 1.0
C      1  0.5495950000000  0.5091830000000  0.4585810000000 1.0
C      1  0.4807870000000  0.4871410000000  0.4821520000000 1.0
C      1  0.5588150000000  0.5569430000000  0.5633540000000 1.0
C      1  0.4639970000000  0.4547300000000  0.4209640000000 1.0
C      1  0.4130210000000  0.4578730000000  0.5409160000000 1.0
C      1  0.4770980000000  0.5940500000000  0.5309730000000 1.0
C      1  0.4926140000000  0.5416830000000  0.5456920000000 1.0
C      1  0.4943240000000  0.4798950000000  0.6044040000000 1.0
C      1  0.5647020000000  0.4721990000000  0.5939160000000 1.0
C      1  0.5283460000000  0.5910270000000  0.5346080000000 1.0
C      1  0.5580640000000  0.4568140000000  0.4286350000000 1.0
C      1  0.5691430000000  0.4998940000000  0.5851760000000 1.0
C      1  0.4656800000000  0.5693420000000  0.5707600000000 1.0
C      1  0.4229080000000  0.5478620000000  0.5408120000000 1.0
C      1  0.4975870000000  0.5010810000000  0.4429030000000 1.0
C      1  0.5072770000000  0.4489130000000  0.5186160000000 1.0
C      1  0.4241730000000  0.4420770000000  0.4471770000000 1.0
C      1  0.5085570000000  0.4144820000000  0.4455520000000 1.0
C      1  0.4579940000000  0.5299380000000  0.4073540000000 1.0
C      1  0.5537200000000  0.5073950000000  0.5270150000000 1.0
C      1  0.3905030000000  0.5113390000000  0.5010110000000 1.0
C      1  0.5095810000000  0.4328290000000  0.4221810000000 1.0
C      1  0.6062090000000  0.5145600000000  0.4677430000000 1.0
C      1  0.5255650000000  0.4712290000000  0.5626540000000 1.0
C      1  0.5251530000000  0.5255360000000  0.4124620000000 1.0
C      1  0.5857650000000  0.4587530000000  0.5014200000000 1.0
C      1  0.4267180000000  0.5726640000000  0.4813560000000 1.0
C      1  0.4059940000000  0.4795240000000  0.4675310000000 1.0
C      1  0.5935870000000  0.4757350000000  0.5235410000000 1.0
C      1  0.5287710000000  0.4091400000000  0.5015050000000 1.0
C      1  0.4676670000000  0.5220480000000  0.5888430000000 1.0
C      1  0.4974900000000  0.4657530000000  0.4712490000000 1.0
C      1  0.4346310000000  0.5728100000000  0.5333450000000 1.0
C      1  0.6194890000000  0.5113810000000  0.4953060000000 1.0
C      1  0.5919570000000  0.4931440000000  0.4565170000000 1.0
C      1  0.5115400000000  0.5508940000000  0.5854380000000 1.0
C      1  0.5281180000000  0.5372200000000  0.4874920000000 1.0
C      1  0.5547850000000  0.4188520000000  0.4907610000000 1.0
C      1  0.5961650000000  0.5388330000000  0.4573740000000 1.0
C      1  0.6453680000000  0.5050490000000  0.4974570000000 1.0
C      1  0.5975500000000  0.5065140000000  0.5171110000000 1.0
C      1  0.4721690000000  0.4700270000000  0.5882180000000 1.0
C      1  0.5116940000000  0.5385670000000  0.4638930000000 1.0
C      1  0.5754470000000  0.5731720000000  0.4966960000000 1.0
C      1  0.5609590000000  0.5578970000000  0.4450990000000 1.0
C      1  0.5739010000000  0.5665770000000  0.5254090000000 1.0
C      1  0.5292460000000  0.4236530000000  0.5273600000000 1.0
C      1  0.4467270000000  0.5801370000000  0.4621440000000 1.0
C      1  0.5194740000000  0.4116230000000  0.5521300000000 1.0
C      1  0.4393490000000  0.4141510000000  0.4800500000000 1.0
C      1  0.3993470000000  0.5385130000000  0.5028410000000 1.0
C      1  0.4701240000000  0.5929100000000  0.4744020000000 1.0
C      1  0.4941700000000  0.4572430000000  0.4193470000000 1.0
C      1  0.5700480000000  0.4496070000000  0.4538230000000 1.0
C      1  0.4034150000000  0.4559670000000  0.4873190000000 1.0
C      1  0.4951170000000  0.5668410000000  0.5658220000000 1.0
C      1  0.4919690000000  0.5055760000000  0.5054320000000 1.0
C      1  0.5434960000000  0.4665340000000  0.6096990000000 1.0
C      1  0.4524760000000  0.4728800000000  0.5089840000000 1.0
C      1  0.4123650000000  0.5071560000000  0.4229410000000 1.0
C      1  0.5793010000000  0.4702910000000  0.4729790000000 1.0
C      1  0.4487480000000  0.4776780000000  0.4115570000000 1.0
C      1  0.3937270000000  0.5061590000000  0.4729030000000 1.0
C      1  0.5831590000000  0.4730470000000  0.5509910000000 1.0
C      1  0.5577810000000  0.5297120000000  0.4818420000000 1.0
C      1  0.5548450000000  0.5921840000000  0.4929820000000 1.0
C      1  0.5019080000000  0.5231380000000  0.3952070000000 1.0
C      1  0.5702000000000  0.4354670000000  0.5092200000000 1.0
C      1  0.5110230000000  0.4724220000000  0.5366470000000 1.0
C      1  0.5198690000000  0.5115390000000  0.5005790000000 1.0
C      1  0.4958510000000  0.5635410000000  0.4134050000000 1.0
C      1  0.3986550000000  0.4627280000000  0.5147060000000 1.0
C      1  0.4555620000000  0.4732790000000  0.4820510000000 1.0
C      1  0.4753990000000  0.5104690000000  0.4607390000000 1.0
C      1  0.4572810000000  0.4944900000000  0.5748930000000 1.0
C      1  0.4525660000000  0.5689150000000  0.4362180000000 1.0
C      1  0.5554640000000  0.4355210000000  0.5350840000000 1.0
C      1  0.5232560000000  0.5572590000000  0.4165030000000 1.0
C      1  0.4477890000000  0.4162250000000  0.5494740000000 1.0
C      1  0.4943580000000  0.5294300000000  0.5962370000000 1.0
C      1  0.4402930000000  0.5455260000000  0.4238440000000 1.0
C      1  0.5303640000000  0.5209200000000  0.5272250000000 1.0
C      1  0.4110530000000  0.4660540000000  0.4413050000000 1.0
C      1  0.5171280000000  0.5588200000000  0.5047610000000 1.0
C      1  0.4815630000000  0.4368000000000  0.5188290000000 1.0
C      1  0.4542070000000  0.4001730000000  0.5250040000000 1.0
C      1  0.5380900000000  0.4369170000000  0.4242140000000 1.0
C      1  0.5580800000000  0.4254040000000  0.4636320000000 1.0
C      1  0.4102810000000  0.4863570000000  0.5485530000000 1.0
C      1  0.4275810000000  0.5033840000000  0.5657840000000 1.0
C      1  0.5777200000000  0.5349280000000  0.4356290000000 1.0
C      1  0.4514310000000  0.4356420000000  0.4392210000000 1.0
C      1  0.5588950000000  0.4318320000000  0.5653600000000 1.0
C      1  0.4187590000000  0.4347430000000  0.4739230000000 1.0
C      1  0.5155480000000  0.4603480000000  0.4912960000000 1.0
C      1  0.5320940000000  0.4249690000000  0.5736490000000 1.0
C      1  0.4892020000000  0.4088520000000  0.4664320000000 1.0
C      1  0.5712660000000  0.5045750000000  0.4372680000000 1.0
C      1  0.4570540000000  0.5820930000000  0.5475810000000 1.0
C      1  0.5938420000000  0.5207190000000  0.5451150000000 1.0
C      1  0.5013210000000  0.4035940000000  0.4937140000000 1.0
C      1  0.4826730000000  0.5421260000000  0.4008610000000 1.0
C      1  0.5755140000000  0.4539820000000  0.5743740000000 1.0
C      1  0.4926440000000  0.4068390000000  0.5483740000000 1.0
C      1  0.5372280000000  0.4179070000000  0.4462330000000 1.0
C      1  0.4919350000000  0.5910860000000  0.4537680000000 1.0
C      1  0.4896000000000  0.4981020000000  0.3929010000000 1.0
C      1  0.4401900000000  0.3977440000000  0.5025010000000 1.0
C      1  0.4485550000000  0.5216330000000  0.5020390000000 1.0
C      1  0.5060350000000  0.5042290000000  0.5965140000000 1.0
C      1  0.5866450000000  0.4996020000000  0.5629260000000 1.0
C      1  0.4822650000000  0.4437940000000  0.5788240000000 1.0
C      1  0.5747760000000  0.5540260000000  0.4725250000000 1.0
C      1  0.4155240000000  0.5317360000000  0.4329580000000 1.0
C      1  0.4490160000000  0.4977650000000  0.5207180000000 1.0
C      1  0.4722000000000  0.4206580000000  0.5637220000000 1.0
C      1  0.4831730000000  0.4068560000000  0.5196660000000 1.0
C      1  0.5211400000000  0.5902270000000  0.4542600000000 1.0
C      1  0.5275140000000  0.5874480000000  0.5057610000000 1.0
C      1  0.4623110000000  0.5008650000000  0.4017760000000 1.0
C      1  0.4925800000000  0.4962550000000  0.5342900000000 1.0
C      1  0.4241140000000  0.5358520000000  0.5157750000000 1.0
C      1  0.4615860000000  0.4178280000000  0.4606250000000 1.0
C      1  0.5812770000000  0.5468110000000  0.5462740000000 1.0
C      1  0.5709470000000  0.5151090000000  0.5051490000000 1.0
C      1  0.5028890000000  0.4732790000000  0.4447280000000 1.0
C      1  0.3950390000000  0.4908220000000  0.5217180000000 1.0
C      1  0.5401220000000  0.5438530000000  0.5814970000000 1.0
C      1  0.5458590000000  0.5159990000000  0.5840560000000 1.0
C      1  0.5230650000000  0.5010810000000  0.5727110000000 1.0
C      1  0.4669560000000  0.5307250000000  0.5509910000000 1.0
C      1  0.4281940000000  0.5323860000000  0.5648400000000 1.0
C      1  0.5080310000000  0.4784560000000  0.4005810000000 1.0
C      1  0.5374440000000  0.5712150000000  0.4364040000000 1.0
C      1  0.5565130000000  0.4843390000000  0.4195690000000 1.0
C      1  0.4364990000000  0.4411700000000  0.5413630000000 1.0
C      1  0.4925130000000  0.5503930000000  0.5173720000000 1.0
C      1  0.5020810000000  0.5895120000000  0.5461120000000 1.0
C      1  0.4385540000000  0.5814880000000  0.5062460000000 1.0
C      1  0.4798320000000  0.5775780000000  0.4315540000000 1.0
C      1  0.5103940000000  0.5167890000000  0.5475350000000 1.0
C      1  0.5337520000000  0.5986970000000  0.4776990000000 1.0
END
