TITL C-21803-2742-10 0.0452950452175554 125000 -557.424549619917 0 0 81 (C1) n - 1
REM
REM in /rds/project/t2_vol4/rds-t2-cs072/BORA/CARBON/from-Arr/AIRSS/Generating-Clusters/GAP-ML-2020/Only-C1/SD-CG/HFTN-CG
REM
REM
REM
REM
REM
REM ./C.cell (11c1c37f851c82e70ff6c80c92926a4b)
REM AIRSS Version 0.9.1 bugfix July 2018 build 013d7b7c2542+ Fri, 06 Jul 2018 19:26:36 +0100
REM compiler GCC version 9.3.0
REM options -cpp -mtune=generic -march=x86-64 -g -O0
REM seed -1451389586 -2136936348 213131805 -1207539634 -1231287523 -540519556 -1573608441 402349909 -620729102 -1629537732 -1087799350 -1547098421 798706573 75640685 -913947211 726283648 2140117036 -656294815 441851537 -1714108268 -1418967714 724831779 1684805156 233492546 -2033776135 289778535 -1109334329 -1436076630 -1159942956 -1589833677 1169255248 1331580947 -975703559
REM
CELL 1.54180   50.00000   50.00000   50.00000   90.00000   90.00000   90.00000
LATT -1
SFAC C  
C      1  0.4616440000000  0.5564050000000  0.5118610000000 1.0
C      1  0.4881030000000  0.4903810000000  0.4295260000000 1.0
C      1  0.4840070000000  0.4432580000000  0.4795270000000 1.0
C      1  0.4862660000000  0.5045740000000  0.5737950000000 1.0
C      1  0.5297760000000  0.4524340000000  0.5600120000000 1.0
C      1  0.4422530000000  0.5347960000000  0.4465160000000 1.0
C      1  0.4239420000000  0.5136250000000  0.4576270000000 1.0
C      1  0.5696760000000  0.4751580000000  0.4814080000000 1.0
C      1  0.4843300000000  0.4524320000000  0.5266720000000 1.0
C      1  0.4560060000000  0.4557220000000  0.5346240000000 1.0
C      1  0.5311390000000  0.4305220000000  0.5174270000000 1.0
C      1  0.5520950000000  0.4532920000000  0.4761250000000 1.0
C      1  0.5315490000000  0.4536480000000  0.4980830000000 1.0
C      1  0.4579200000000  0.5623390000000  0.4848460000000 1.0
C      1  0.4596000000000  0.4584070000000  0.4799530000000 1.0
C      1  0.4829610000000  0.4771610000000  0.5670010000000 1.0
C      1  0.4616960000000  0.5116970000000  0.4892150000000 1.0
C      1  0.4372500000000  0.4896670000000  0.5460990000000 1.0
C      1  0.4384470000000  0.5168740000000  0.5530380000000 1.0
C      1  0.5682300000000  0.4611950000000  0.5335720000000 1.0
C      1  0.4568450000000  0.4717580000000  0.5576650000000 1.0
C      1  0.5351020000000  0.5002250000000  0.5600020000000 1.0
C      1  0.5318130000000  0.5598280000000  0.4784280000000 1.0
C      1  0.4930820000000  0.5367780000000  0.4234790000000 1.0
C      1  0.5319260000000  0.4732560000000  0.4424610000000 1.0
C      1  0.5061140000000  0.5691990000000  0.4863570000000 1.0
C      1  0.5574840000000  0.5198140000000  0.5477480000000 1.0
C      1  0.4271970000000  0.4863150000000  0.4666370000000 1.0
C      1  0.5159550000000  0.4852740000000  0.4676040000000 1.0
C      1  0.4983640000000  0.5018120000000  0.5219370000000 1.0
C      1  0.5671460000000  0.4970360000000  0.4628060000000 1.0
C      1  0.4823900000000  0.5650240000000  0.5291580000000 1.0
C      1  0.4305420000000  0.5241990000000  0.5268590000000 1.0
C      1  0.5123170000000  0.5155420000000  0.5723840000000 1.0
C      1  0.5609570000000  0.5454480000000  0.5583510000000 1.0
C      1  0.5331090000000  0.5081120000000  0.4240170000000 1.0
C      1  0.5679050000000  0.5129590000000  0.5215660000000 1.0
C      1  0.4643340000000  0.5358840000000  0.4293490000000 1.0
C      1  0.5465030000000  0.4747800000000  0.5699300000000 1.0
C      1  0.5297370000000  0.5004270000000  0.4887660000000 1.0
C      1  0.5175640000000  0.5267760000000  0.4402080000000 1.0
C      1  0.5152800000000  0.4361130000000  0.4424050000000 1.0
C      1  0.4883850000000  0.4290300000000  0.5075780000000 1.0
C      1  0.4151440000000  0.5141430000000  0.5045770000000 1.0
C      1  0.5091360000000  0.4138540000000  0.5163630000000 1.0
C      1  0.5063110000000  0.5732040000000  0.5151310000000 1.0
C      1  0.4200090000000  0.4867920000000  0.4963200000000 1.0
C      1  0.5075210000000  0.5164560000000  0.4995210000000 1.0
C      1  0.4840240000000  0.5545380000000  0.4769500000000 1.0
C      1  0.5153140000000  0.4853790000000  0.4206720000000 1.0
C      1  0.5377650000000  0.4801980000000  0.5117010000000 1.0
C      1  0.4991610000000  0.5061520000000  0.4553800000000 1.0
C      1  0.5321710000000  0.5654350000000  0.5245000000000 1.0
C      1  0.5528240000000  0.4932710000000  0.4385660000000 1.0
C      1  0.4868300000000  0.5215630000000  0.4783970000000 1.0
C      1  0.4369190000000  0.5499440000000  0.4714570000000 1.0
C      1  0.4895780000000  0.4430420000000  0.4496050000000 1.0
C      1  0.5038350000000  0.4634000000000  0.5504890000000 1.0
C      1  0.5628210000000  0.5317180000000  0.5009920000000 1.0
C      1  0.4849920000000  0.5472090000000  0.5522510000000 1.0
C      1  0.4613830000000  0.4819140000000  0.4986140000000 1.0
C      1  0.5478370000000  0.5560730000000  0.5024480000000 1.0
C      1  0.5200930000000  0.4869850000000  0.5362730000000 1.0
C      1  0.5049770000000  0.4646630000000  0.4870560000000 1.0
C      1  0.5669390000000  0.4824920000000  0.5125210000000 1.0
C      1  0.4675610000000  0.5236630000000  0.5604010000000 1.0
C      1  0.4179810000000  0.5304110000000  0.4811810000000 1.0
C      1  0.4568920000000  0.5278000000000  0.5145850000000 1.0
C      1  0.5452200000000  0.4417420000000  0.5389420000000 1.0
C      1  0.4481380000000  0.4675920000000  0.4566470000000 1.0
C      1  0.4783250000000  0.5150980000000  0.4155690000000 1.0
C      1  0.5396960000000  0.4465070000000  0.4498710000000 1.0
C      1  0.5361180000000  0.5393490000000  0.4601460000000 1.0
C      1  0.4726180000000  0.4660150000000  0.4402440000000 1.0
C      1  0.4884750000000  0.4766200000000  0.5087720000000 1.0
C      1  0.5352690000000  0.5528470000000  0.5503290000000 1.0
C      1  0.5109000000000  0.5423840000000  0.5630540000000 1.0
C      1  0.5721160000000  0.4692120000000  0.5601920000000 1.0
C      1  0.4765590000000  0.5179820000000  0.5330770000000 1.0
C      1  0.4390080000000  0.4760800000000  0.5186290000000 1.0
C      1  0.5526000000000  0.5191000000000  0.4759540000000 1.0
END
