TITL C-215739-9267-2 -85.6039088781163 125000 -982.555583025262 0 0 140 (C1) n - 1
REM
REM in /rds/project/t2_vol4/rds-t2-cs072/BORA/CARBON/from-Arr/AIRSS/Generating-Clusters/GAP-ML-2020/Only-C1/SD-CG/HFTN-CG
REM
REM
REM
REM
REM
REM ./C.cell (11c1c37f851c82e70ff6c80c92926a4b)
REM AIRSS Version 0.9.1 bugfix July 2018 build 013d7b7c2542+ Fri, 06 Jul 2018 19:26:36 +0100
REM compiler GCC version 9.3.0
REM options -cpp -mtune=generic -march=x86-64 -g -O0
REM seed -740718272 1584062166 1859853250 2107493130 308964972 455232680 1909099313 570448754 -2026340781 -742777074 -667456446 622915753 829458023 -1563173096 1273281874 -1103814374 2098794187 415231341 -570715769 -1935107986 -1273314540 -936157669 1925220718 -1841924665 -884821351 -1826670081 -121665985 1119165761 1044946836 2143539165 -1462165115 -1716619819 -1687936926
REM
CELL 1.54180   50.00000   50.00000   50.00000   90.00000   90.00000   90.00000
LATT -1
SFAC C  
C      1  0.4538340000000  0.4314030000000  0.5516220000000 1.0
C      1  0.5201960000000  0.5066170000000  0.4605000000000 1.0
C      1  0.4521090000000  0.5783700000000  0.4675000000000 1.0
C      1  0.5734820000000  0.4494560000000  0.5450620000000 1.0
C      1  0.5129430000000  0.5680050000000  0.4373010000000 1.0
C      1  0.4369660000000  0.5523410000000  0.5494130000000 1.0
C      1  0.4766200000000  0.5914800000000  0.4731350000000 1.0
C      1  0.4331000000000  0.5090350000000  0.5394000000000 1.0
C      1  0.5437280000000  0.5039050000000  0.5876920000000 1.0
C      1  0.4903430000000  0.4403350000000  0.4886760000000 1.0
C      1  0.4770360000000  0.4647570000000  0.4970140000000 1.0
C      1  0.4774760000000  0.4475960000000  0.5585590000000 1.0
C      1  0.4709140000000  0.5059370000000  0.4504780000000 1.0
C      1  0.4105970000000  0.4790060000000  0.4636840000000 1.0
C      1  0.5053610000000  0.4864540000000  0.6047290000000 1.0
C      1  0.4940330000000  0.5467200000000  0.5275440000000 1.0
C      1  0.5982700000000  0.5360280000000  0.4838300000000 1.0
C      1  0.5513690000000  0.5267040000000  0.5730710000000 1.0
C      1  0.5822940000000  0.4388300000000  0.4401340000000 1.0
C      1  0.5624700000000  0.5224790000000  0.4965630000000 1.0
C      1  0.5638810000000  0.5618240000000  0.5450770000000 1.0
C      1  0.4220820000000  0.4689890000000  0.5609560000000 1.0
C      1  0.4465030000000  0.5657260000000  0.4430520000000 1.0
C      1  0.4467010000000  0.5089620000000  0.5676150000000 1.0
C      1  0.5270940000000  0.5417120000000  0.5640470000000 1.0
C      1  0.5245040000000  0.5916910000000  0.5491750000000 1.0
C      1  0.4577670000000  0.4149250000000  0.5293660000000 1.0
C      1  0.4537240000000  0.5794500000000  0.5134180000000 1.0
C      1  0.5723270000000  0.5366340000000  0.5561810000000 1.0
C      1  0.4829240000000  0.4785460000000  0.5492430000000 1.0
C      1  0.5519970000000  0.4587060000000  0.5614520000000 1.0
C      1  0.4065880000000  0.4999710000000  0.4445320000000 1.0
C      1  0.4786900000000  0.4877420000000  0.5973280000000 1.0
C      1  0.4791060000000  0.5900900000000  0.5030210000000 1.0
C      1  0.4564080000000  0.5028520000000  0.5181810000000 1.0
C      1  0.4366720000000  0.4894660000000  0.4177510000000 1.0
C      1  0.5409610000000  0.4131170000000  0.4977460000000 1.0
C      1  0.4385870000000  0.4817510000000  0.5797640000000 1.0
C      1  0.4441550000000  0.4963750000000  0.4903630000000 1.0
C      1  0.5046820000000  0.4429410000000  0.5861280000000 1.0
C      1  0.5042640000000  0.5276980000000  0.4096780000000 1.0
C      1  0.4932070000000  0.6058590000000  0.5241490000000 1.0
C      1  0.5169170000000  0.5107300000000  0.5962420000000 1.0
C      1  0.4126030000000  0.4918370000000  0.4899420000000 1.0
C      1  0.4995090000000  0.5663870000000  0.5033580000000 1.0
C      1  0.4565990000000  0.5158020000000  0.4718300000000 1.0
C      1  0.5846580000000  0.5213520000000  0.5361120000000 1.0
C      1  0.5211700000000  0.5971660000000  0.4738680000000 1.0
C      1  0.5829160000000  0.4472910000000  0.4878600000000 1.0
C      1  0.4240730000000  0.5364000000000  0.5302650000000 1.0
C      1  0.5609790000000  0.4555780000000  0.4337550000000 1.0
C      1  0.4582080000000  0.4689890000000  0.5970450000000 1.0
C      1  0.4700990000000  0.4781140000000  0.5236070000000 1.0
C      1  0.4656040000000  0.4274300000000  0.4417890000000 1.0
C      1  0.4491210000000  0.4158300000000  0.4845250000000 1.0
C      1  0.5024830000000  0.5882790000000  0.4569090000000 1.0
C      1  0.4144530000000  0.4855310000000  0.5390680000000 1.0
C      1  0.6022920000000  0.4930760000000  0.4710770000000 1.0
C      1  0.4772310000000  0.5472730000000  0.5739430000000 1.0
C      1  0.4918880000000  0.4184580000000  0.4443350000000 1.0
C      1  0.4419620000000  0.4647830000000  0.4307330000000 1.0
C      1  0.5385700000000  0.4613850000000  0.5134680000000 1.0
C      1  0.4205530000000  0.5432350000000  0.5027040000000 1.0
C      1  0.4286190000000  0.4442900000000  0.5486120000000 1.0
C      1  0.5928730000000  0.4364470000000  0.4633740000000 1.0
C      1  0.4992180000000  0.4826930000000  0.4085810000000 1.0
C      1  0.6162770000000  0.5155190000000  0.4769880000000 1.0
C      1  0.4947950000000  0.5527550000000  0.4211950000000 1.0
C      1  0.5425090000000  0.4871670000000  0.4702100000000 1.0
C      1  0.4952040000000  0.5924450000000  0.5495800000000 1.0
C      1  0.5079500000000  0.4127310000000  0.5363090000000 1.0
C      1  0.5744070000000  0.4944760000000  0.5368130000000 1.0
C      1  0.5618650000000  0.4799530000000  0.4483570000000 1.0
C      1  0.5058900000000  0.4356140000000  0.5545490000000 1.0
C      1  0.4984410000000  0.4032750000000  0.4675270000000 1.0
C      1  0.4833630000000  0.4074010000000  0.5198660000000 1.0
C      1  0.4103940000000  0.4968480000000  0.4174430000000 1.0
C      1  0.5391290000000  0.5695230000000  0.5571160000000 1.0
C      1  0.4678110000000  0.5375250000000  0.4877370000000 1.0
C      1  0.4474010000000  0.5353000000000  0.4182400000000 1.0
C      1  0.5032030000000  0.5089060000000  0.5026300000000 1.0
C      1  0.5500370000000  0.5322590000000  0.4280340000000 1.0
C      1  0.5245000000000  0.4672880000000  0.4863830000000 1.0
C      1  0.4911820000000  0.4663600000000  0.4326840000000 1.0
C      1  0.4336990000000  0.4591250000000  0.4584990000000 1.0
C      1  0.4537720000000  0.5722400000000  0.5401810000000 1.0
C      1  0.5263630000000  0.5852280000000  0.4992210000000 1.0
C      1  0.4983180000000  0.4829320000000  0.4869320000000 1.0
C      1  0.5000930000000  0.5283400000000  0.5782670000000 1.0
C      1  0.4768880000000  0.5015100000000  0.5709590000000 1.0
C      1  0.4793510000000  0.4108430000000  0.4902010000000 1.0
C      1  0.5157800000000  0.5276220000000  0.4812220000000 1.0
C      1  0.4662240000000  0.4523180000000  0.4286760000000 1.0
C      1  0.5211130000000  0.4635800000000  0.5964010000000 1.0
C      1  0.4778950000000  0.5244970000000  0.5127810000000 1.0
C      1  0.4807680000000  0.5668830000000  0.5512840000000 1.0
C      1  0.4201810000000  0.4439990000000  0.5211890000000 1.0
C      1  0.5150100000000  0.4427870000000  0.4716950000000 1.0
C      1  0.4943850000000  0.4906300000000  0.4568880000000 1.0
C      1  0.5485650000000  0.4916510000000  0.5195130000000 1.0
C      1  0.5103740000000  0.4821520000000  0.5429260000000 1.0
C      1  0.5395970000000  0.5565490000000  0.4409940000000 1.0
C      1  0.5600450000000  0.4363170000000  0.5034550000000 1.0
C      1  0.5495970000000  0.5678020000000  0.4968380000000 1.0
C      1  0.4505060000000  0.5378600000000  0.5709500000000 1.0
C      1  0.4591890000000  0.5091070000000  0.4184460000000 1.0
C      1  0.5461070000000  0.4736800000000  0.5849420000000 1.0
C      1  0.5835530000000  0.5373970000000  0.5104600000000 1.0
C      1  0.5813610000000  0.5446280000000  0.4612580000000 1.0
C      1  0.5355870000000  0.4113560000000  0.5262270000000 1.0
C      1  0.4522950000000  0.4702330000000  0.4816670000000 1.0
C      1  0.5863460000000  0.4701290000000  0.5289240000000 1.0
C      1  0.5617000000000  0.4267250000000  0.5313290000000 1.0
C      1  0.5268240000000  0.4850530000000  0.4107140000000 1.0
C      1  0.4376620000000  0.4225380000000  0.5094480000000 1.0
C      1  0.4279750000000  0.5434640000000  0.4389970000000 1.0
C      1  0.5238500000000  0.4137320000000  0.4761880000000 1.0
C      1  0.5835520000000  0.4980430000000  0.4491120000000 1.0
C      1  0.5259690000000  0.4575900000000  0.5422380000000 1.0
C      1  0.5607530000000  0.4948320000000  0.4931310000000 1.0
C      1  0.5210000000000  0.5044450000000  0.5274120000000 1.0
C      1  0.5864120000000  0.4744440000000  0.4965450000000 1.0
C      1  0.4099650000000  0.4719120000000  0.5147190000000 1.0
C      1  0.4945170000000  0.5483630000000  0.4804830000000 1.0
C      1  0.4763130000000  0.4491950000000  0.5881960000000 1.0
C      1  0.5342230000000  0.4580920000000  0.4245110000000 1.0
C      1  0.5425660000000  0.5402000000000  0.4868500000000 1.0
C      1  0.4438060000000  0.5615460000000  0.4931430000000 1.0
C      1  0.4437260000000  0.4287350000000  0.4601560000000 1.0
C      1  0.5698680000000  0.5625080000000  0.5171340000000 1.0
C      1  0.4109430000000  0.5267390000000  0.4559100000000 1.0
C      1  0.4090000000000  0.5239080000000  0.4847630000000 1.0
C      1  0.5560100000000  0.5582680000000  0.4660410000000 1.0
C      1  0.4659960000000  0.5564580000000  0.4228580000000 1.0
C      1  0.4853340000000  0.5071030000000  0.4050050000000 1.0
C      1  0.5178010000000  0.5324750000000  0.5373210000000 1.0
C      1  0.5750050000000  0.5249450000000  0.4414790000000 1.0
C      1  0.5308520000000  0.5154530000000  0.4134210000000 1.0
C      1  0.5218710000000  0.6026410000000  0.5226020000000 1.0
C      1  0.5106270000000  0.4450130000000  0.4405000000000 1.0
END
