TITL C-211923-621-4 0.0670432116804738 125000 -359.084228549904 0 0 54 (C1) n - 1
REM
REM in /rds/project/t2_vol4/rds-t2-cs072/BORA/CARBON/from-Arr/AIRSS/Generating-Clusters/GAP-ML-2020/Only-C1/SD-CG/HFTN-CG
REM
REM
REM
REM
REM
REM ./C.cell (11c1c37f851c82e70ff6c80c92926a4b)
REM AIRSS Version 0.9.1 bugfix July 2018 build 013d7b7c2542+ Fri, 06 Jul 2018 19:26:36 +0100
REM compiler GCC version 9.3.0
REM options -cpp -mtune=generic -march=x86-64 -g -O0
REM seed 339158249 -1021058837 -87377475 517020866 -751550282 -1254322698 101946494 -1122880063 -896849901 1008755908 -221154554 -1375973238 -2126191038 1613094075 989193696 -4104856 -1859209042 -1296019461 -804845229 688828729 -204647447 301669857 2084812901 -155826836 -680794928 727811855 75549729 -1654976066 -1928263273 2031625573 -1992755617 1281567092 736798368
REM
CELL 1.54180   50.00000   50.00000   50.00000   90.00000   90.00000   90.00000
LATT -1
SFAC C  
C      1  0.4981960000000  0.5725550000000  0.5275190000000 1.0
C      1  0.4171190000000  0.5254050000000  0.5019120000000 1.0
C      1  0.5099870000000  0.5554850000000  0.4823950000000 1.0
C      1  0.4511940000000  0.4966670000000  0.5548300000000 1.0
C      1  0.5312130000000  0.4740620000000  0.5339560000000 1.0
C      1  0.5412020000000  0.4903560000000  0.4915470000000 1.0
C      1  0.4685910000000  0.4349680000000  0.4858120000000 1.0
C      1  0.4902970000000  0.5086280000000  0.4415630000000 1.0
C      1  0.4454340000000  0.4658750000000  0.4693580000000 1.0
C      1  0.4490410000000  0.4532600000000  0.4954900000000 1.0
C      1  0.5365310000000  0.5165400000000  0.4490720000000 1.0
C      1  0.4951910000000  0.5511610000000  0.5460600000000 1.0
C      1  0.5128780000000  0.4547870000000  0.4709740000000 1.0
C      1  0.5400420000000  0.4628240000000  0.4586940000000 1.0
C      1  0.5313930000000  0.4855870000000  0.4433310000000 1.0
C      1  0.5034660000000  0.4409200000000  0.4985610000000 1.0
C      1  0.5052600000000  0.5522100000000  0.4562010000000 1.0
C      1  0.5570660000000  0.4673600000000  0.4817800000000 1.0
C      1  0.5101750000000  0.5298090000000  0.4415610000000 1.0
C      1  0.4867360000000  0.4192460000000  0.4986730000000 1.0
C      1  0.5372500000000  0.5171150000000  0.5582150000000 1.0
C      1  0.5602260000000  0.5322890000000  0.4627970000000 1.0
C      1  0.5601090000000  0.5378730000000  0.4907760000000 1.0
C      1  0.5031680000000  0.4836530000000  0.4384430000000 1.0
C      1  0.4559140000000  0.4792420000000  0.5093140000000 1.0
C      1  0.4770850000000  0.4840060000000  0.5541100000000 1.0
C      1  0.5686240000000  0.5306630000000  0.5161990000000 1.0
C      1  0.5250810000000  0.4886220000000  0.5591880000000 1.0
C      1  0.4921620000000  0.4593720000000  0.4509600000000 1.0
C      1  0.4986290000000  0.5038270000000  0.4833230000000 1.0
C      1  0.5128640000000  0.4786120000000  0.4894360000000 1.0
C      1  0.5293820000000  0.5358340000000  0.4944630000000 1.0
C      1  0.4673030000000  0.4496690000000  0.4590110000000 1.0
C      1  0.5593120000000  0.5151700000000  0.5361540000000 1.0
C      1  0.5196640000000  0.5211500000000  0.5189090000000 1.0
C      1  0.4827260000000  0.4848110000000  0.5240100000000 1.0
C      1  0.4915320000000  0.5625720000000  0.5028620000000 1.0
C      1  0.5536690000000  0.4551220000000  0.5274360000000 1.0
C      1  0.5002870000000  0.4823780000000  0.5684940000000 1.0
C      1  0.4275520000000  0.5171500000000  0.5252440000000 1.0
C      1  0.5401980000000  0.4989070000000  0.5193610000000 1.0
C      1  0.5269690000000  0.5125610000000  0.4763680000000 1.0
C      1  0.4467440000000  0.5253550000000  0.5467010000000 1.0
C      1  0.5642580000000  0.4527220000000  0.5040090000000 1.0
C      1  0.4745980000000  0.5089180000000  0.4670310000000 1.0
C      1  0.4680340000000  0.5407240000000  0.5363890000000 1.0
C      1  0.5184030000000  0.5343070000000  0.5452730000000 1.0
C      1  0.4366420000000  0.4899530000000  0.5297620000000 1.0
C      1  0.4514540000000  0.4929650000000  0.4788640000000 1.0
C      1  0.4744180000000  0.5379620000000  0.5072810000000 1.0
C      1  0.5061230000000  0.4668410000000  0.5156550000000 1.0
C      1  0.4602870000000  0.5312420000000  0.4813810000000 1.0
C      1  0.4931510000000  0.5127250000000  0.5105430000000 1.0
C      1  0.4351710000000  0.5179840000000  0.4827470000000 1.0
END
