TITL C-2109094-7590-27 59.0703461415294 125000 -1151.30389151959 0 0 164 (C1) n - 1
REM
REM in /nfs/bkarasulu/CARBON/AIRSS/Generating-Clusters/GAP-ML-2020/Only-C1/SD-CG/HFTN-CG
REM
REM
REM
REM
REM
REM ./C.cell (11c1c37f851c82e70ff6c80c92926a4b)
REM
REM compiler GCC version 9.2.1 20190827 (Red Hat 9.2.1-1)
REM options -cpp -mtune=generic -march=x86-64 -g -O0 -fpre-include=/usr/include/finclude/math-vector-fortran.h
REM seed -331610164 -442033791 743831092 -64396913 1445816695 104871819 -528452565 -1851924601 695752814 -1380970999 -852378692 -1255056985 1792090661 -1293457416 482388299 -1355923459 -1417294368 93102828 -2104097804 -1301821426 750862178 -1776314286 -1360464287 -861706280 -1066471566 -1381270164 -38645726 -679950776 1915877552 550812309 2035486967 -498753670 -148891477
REM
CELL 1.54180   50.00000   50.00000   50.00000   90.00000   90.00000   90.00000
LATT -1
SFAC C  
C      1  0.4117570000000  0.5544030000000  0.5494850000000 1.0
C      1  0.5016550000000  0.6109150000000  0.5171540000000 1.0
C      1  0.5369530000000  0.5829030000000  0.5050640000000 1.0
C      1  0.4552390000000  0.4990010000000  0.4122840000000 1.0
C      1  0.4525400000000  0.5524150000000  0.5742580000000 1.0
C      1  0.4303530000000  0.5127970000000  0.5467090000000 1.0
C      1  0.5635490000000  0.5653650000000  0.4209170000000 1.0
C      1  0.4850650000000  0.4277680000000  0.5483570000000 1.0
C      1  0.5424120000000  0.4691660000000  0.5037700000000 1.0
C      1  0.5863160000000  0.4317140000000  0.4787200000000 1.0
C      1  0.5261760000000  0.5623360000000  0.5904710000000 1.0
C      1  0.4564920000000  0.4282850000000  0.5389320000000 1.0
C      1  0.5051300000000  0.5160800000000  0.6154020000000 1.0
C      1  0.5007530000000  0.4866070000000  0.6102410000000 1.0
C      1  0.5481850000000  0.5306450000000  0.5165540000000 1.0
C      1  0.4799580000000  0.4638610000000  0.3908600000000 1.0
C      1  0.4880330000000  0.4390580000000  0.4334800000000 1.0
C      1  0.4795330000000  0.4545690000000  0.4981960000000 1.0
C      1  0.5206590000000  0.4630130000000  0.4641130000000 1.0
C      1  0.5281870000000  0.4897220000000  0.5910910000000 1.0
C      1  0.5309560000000  0.5166280000000  0.6029520000000 1.0
C      1  0.4654520000000  0.5536580000000  0.4863140000000 1.0
C      1  0.4565020000000  0.5133750000000  0.4385420000000 1.0
C      1  0.4489490000000  0.5362360000000  0.5035910000000 1.0
C      1  0.5982560000000  0.5201700000000  0.4832650000000 1.0
C      1  0.4759890000000  0.4919090000000  0.3953620000000 1.0
C      1  0.4661810000000  0.5394160000000  0.5297270000000 1.0
C      1  0.5038990000000  0.4571470000000  0.3789780000000 1.0
C      1  0.4991380000000  0.5094820000000  0.3951480000000 1.0
C      1  0.4364700000000  0.4946380000000  0.5254030000000 1.0
C      1  0.4761660000000  0.4256780000000  0.5932620000000 1.0
C      1  0.5391580000000  0.4167890000000  0.5545740000000 1.0
C      1  0.4774270000000  0.3960930000000  0.4811920000000 1.0
C      1  0.4773120000000  0.5104720000000  0.4622010000000 1.0
C      1  0.5064770000000  0.5351340000000  0.4981740000000 1.0
C      1  0.6007820000000  0.5074140000000  0.5096340000000 1.0
C      1  0.4150540000000  0.4768720000000  0.4582960000000 1.0
C      1  0.5204530000000  0.4663540000000  0.5231830000000 1.0
C      1  0.5352660000000  0.5933180000000  0.5526710000000 1.0
C      1  0.5381330000000  0.5860960000000  0.4595980000000 1.0
C      1  0.3913440000000  0.4864030000000  0.4939750000000 1.0
C      1  0.4382490000000  0.4198010000000  0.4938610000000 1.0
C      1  0.4221720000000  0.5501200000000  0.5028980000000 1.0
C      1  0.5415710000000  0.5377750000000  0.5883230000000 1.0
C      1  0.5433370000000  0.4938830000000  0.4890680000000 1.0
C      1  0.3839920000000  0.4841210000000  0.5235390000000 1.0
C      1  0.5108770000000  0.5508540000000  0.5431840000000 1.0
C      1  0.5208480000000  0.5612590000000  0.4636670000000 1.0
C      1  0.5203220000000  0.4912290000000  0.5625050000000 1.0
C      1  0.4204730000000  0.4742940000000  0.4892580000000 1.0
C      1  0.4777920000000  0.4007030000000  0.5095470000000 1.0
C      1  0.5780120000000  0.4572170000000  0.5468510000000 1.0
C      1  0.5009840000000  0.5065800000000  0.5452040000000 1.0
C      1  0.4150870000000  0.4477630000000  0.5349730000000 1.0
C      1  0.5490350000000  0.4026450000000  0.5107340000000 1.0
C      1  0.4790990000000  0.6031470000000  0.4988890000000 1.0
C      1  0.3881960000000  0.5133040000000  0.5263720000000 1.0
C      1  0.5251240000000  0.4960140000000  0.3983610000000 1.0
C      1  0.5178110000000  0.6055760000000  0.4712660000000 1.0
C      1  0.5846090000000  0.4926890000000  0.4380100000000 1.0
C      1  0.4055350000000  0.5259620000000  0.5455230000000 1.0
C      1  0.4696320000000  0.4470820000000  0.4114590000000 1.0
C      1  0.5584270000000  0.4199320000000  0.4414880000000 1.0
C      1  0.4910970000000  0.5749980000000  0.5509890000000 1.0
C      1  0.4963150000000  0.5318200000000  0.5279460000000 1.0
C      1  0.4502480000000  0.5736780000000  0.4645620000000 1.0
C      1  0.4548070000000  0.4126140000000  0.4704620000000 1.0
C      1  0.5927370000000  0.4540660000000  0.4629850000000 1.0
C      1  0.5231140000000  0.4135030000000  0.5766770000000 1.0
C      1  0.5519900000000  0.4758230000000  0.5829280000000 1.0
C      1  0.5257960000000  0.3952270000000  0.4639450000000 1.0
C      1  0.4270420000000  0.5605510000000  0.5721970000000 1.0
C      1  0.4937330000000  0.5590930000000  0.4502740000000 1.0
C      1  0.5708770000000  0.5398750000000  0.4292020000000 1.0
C      1  0.5655550000000  0.5379730000000  0.4568380000000 1.0
C      1  0.5487500000000  0.3991170000000  0.4822700000000 1.0
C      1  0.4662710000000  0.4931630000000  0.4835580000000 1.0
C      1  0.5850430000000  0.5442200000000  0.4773490000000 1.0
C      1  0.5936990000000  0.4575200000000  0.5219150000000 1.0
C      1  0.5704720000000  0.4178350000000  0.5217780000000 1.0
C      1  0.4262430000000  0.4639750000000  0.4329860000000 1.0
C      1  0.4300610000000  0.4896370000000  0.4207540000000 1.0
C      1  0.5365660000000  0.5345060000000  0.4639370000000 1.0
C      1  0.5909510000000  0.5479810000000  0.5321470000000 1.0
C      1  0.4998910000000  0.4168670000000  0.5234980000000 1.0
C      1  0.5057700000000  0.4431230000000  0.5058350000000 1.0
C      1  0.4909690000000  0.4563690000000  0.5561080000000 1.0
C      1  0.4521190000000  0.4087490000000  0.5169100000000 1.0
C      1  0.5916810000000  0.5208090000000  0.5340030000000 1.0
C      1  0.5120570000000  0.5642180000000  0.4943700000000 1.0
C      1  0.4585980000000  0.4777080000000  0.5297730000000 1.0
C      1  0.5357870000000  0.4465320000000  0.4123160000000 1.0
C      1  0.4944200000000  0.5344880000000  0.4045260000000 1.0
C      1  0.5345240000000  0.5848690000000  0.5781880000000 1.0
C      1  0.5343420000000  0.5223010000000  0.4938970000000 1.0
C      1  0.5276140000000  0.4067270000000  0.5296190000000 1.0
C      1  0.5731080000000  0.5108150000000  0.5550220000000 1.0
C      1  0.3912230000000  0.5167890000000  0.4977250000000 1.0
C      1  0.5788820000000  0.5692860000000  0.5222220000000 1.0
C      1  0.5783120000000  0.5671560000000  0.4930100000000 1.0
C      1  0.5986700000000  0.4992850000000  0.4630320000000 1.0
C      1  0.4441470000000  0.5842580000000  0.5256390000000 1.0
C      1  0.4774680000000  0.5836690000000  0.4550040000000 1.0
C      1  0.5615550000000  0.4445320000000  0.4269570000000 1.0
C      1  0.4185530000000  0.5323260000000  0.4576790000000 1.0
C      1  0.4940350000000  0.4661460000000  0.4524480000000 1.0
C      1  0.4492230000000  0.6013840000000  0.5033860000000 1.0
C      1  0.4753570000000  0.5041090000000  0.5614720000000 1.0
C      1  0.4366800000000  0.5531460000000  0.4475070000000 1.0
C      1  0.6036750000000  0.4754110000000  0.4772730000000 1.0
C      1  0.4604070000000  0.4257190000000  0.4458730000000 1.0
C      1  0.4955970000000  0.4175060000000  0.5758780000000 1.0
C      1  0.4675620000000  0.4754180000000  0.5578400000000 1.0
C      1  0.4913400000000  0.5395830000000  0.6178110000000 1.0
C      1  0.4398240000000  0.5012680000000  0.4966340000000 1.0
C      1  0.4286500000000  0.4479190000000  0.5050080000000 1.0
C      1  0.5509540000000  0.5846090000000  0.4328190000000 1.0
C      1  0.4205270000000  0.5675780000000  0.5256830000000 1.0
C      1  0.4793470000000  0.4841680000000  0.5089290000000 1.0
C      1  0.5683460000000  0.4135650000000  0.4672240000000 1.0
C      1  0.4057650000000  0.5363050000000  0.4835800000000 1.0
C      1  0.4485340000000  0.4584100000000  0.5737490000000 1.0
C      1  0.4644910000000  0.4505920000000  0.5966800000000 1.0
C      1  0.4984310000000  0.4967820000000  0.4482130000000 1.0
C      1  0.5041640000000  0.4905100000000  0.5198840000000 1.0
C      1  0.5261330000000  0.5096930000000  0.4461200000000 1.0
C      1  0.4456270000000  0.4429540000000  0.4275990000000 1.0
C      1  0.5500600000000  0.5762340000000  0.5314690000000 1.0
C      1  0.4699450000000  0.5694890000000  0.5301590000000 1.0
C      1  0.5410220000000  0.5470330000000  0.5398900000000 1.0
C      1  0.6032890000000  0.4791350000000  0.5057010000000 1.0
C      1  0.5320140000000  0.4097910000000  0.4396740000000 1.0
C      1  0.4831820000000  0.5491720000000  0.4236150000000 1.0
C      1  0.4363300000000  0.5924140000000  0.4811370000000 1.0
C      1  0.4804930000000  0.4700460000000  0.6092210000000 1.0
C      1  0.4786130000000  0.5664820000000  0.5774950000000 1.0
C      1  0.5253080000000  0.4668340000000  0.3941500000000 1.0
C      1  0.4562840000000  0.4507510000000  0.5171580000000 1.0
C      1  0.5640300000000  0.4310390000000  0.5462690000000 1.0
C      1  0.4551160000000  0.5414340000000  0.4303040000000 1.0
C      1  0.5805350000000  0.4633740000000  0.4385550000000 1.0
C      1  0.5883360000000  0.4335860000000  0.5068750000000 1.0
C      1  0.5689780000000  0.5119640000000  0.4225290000000 1.0
C      1  0.4351180000000  0.4407230000000  0.5551050000000 1.0
C      1  0.5160280000000  0.4280750000000  0.4244990000000 1.0
C      1  0.5346310000000  0.4874870000000  0.4636050000000 1.0
C      1  0.4897750000000  0.6037620000000  0.4701960000000 1.0
C      1  0.5408070000000  0.5069580000000  0.4191430000000 1.0
C      1  0.4970680000000  0.5585710000000  0.5979220000000 1.0
C      1  0.5171350000000  0.4650850000000  0.5516870000000 1.0
C      1  0.5559510000000  0.5815000000000  0.4840770000000 1.0
C      1  0.5280250000000  0.4490240000000  0.4868990000000 1.0
C      1  0.4254350000000  0.5060720000000  0.4463900000000 1.0
C      1  0.5703430000000  0.4811480000000  0.5630620000000 1.0
C      1  0.3914950000000  0.4614100000000  0.5366040000000 1.0
C      1  0.4827000000000  0.5730320000000  0.5024760000000 1.0
C      1  0.5004200000000  0.3875730000000  0.4698780000000 1.0
C      1  0.5232020000000  0.6087570000000  0.4987480000000 1.0
C      1  0.3875190000000  0.4751960000000  0.4681320000000 1.0
C      1  0.5552760000000  0.5327330000000  0.5632430000000 1.0
C      1  0.4853800000000  0.5366890000000  0.4733780000000 1.0
C      1  0.4552180000000  0.5257880000000  0.5556120000000 1.0
C      1  0.5073950000000  0.5991140000000  0.5428680000000 1.0
C      1  0.4723210000000  0.4658410000000  0.4725550000000 1.0
END
