TITL C-21794-4648-8 -7.62715068087275 125000 -316.782364785873 0 0 47 (C1) n - 1
REM
REM in /rds/project/t2_vol4/rds-t2-cs072/BORA/CARBON/from-Arr/AIRSS/Generating-Clusters/GAP-ML-2020/Only-C1/SD-CG/HFTN-CG
REM
REM
REM
REM
REM
REM ./C.cell (11c1c37f851c82e70ff6c80c92926a4b)
REM AIRSS Version 0.9.1 bugfix July 2018 build 013d7b7c2542+ Fri, 06 Jul 2018 19:26:36 +0100
REM compiler GCC version 9.3.0
REM options -cpp -mtune=generic -march=x86-64 -g -O0
REM seed 1660077141 -1112222273 908309562 643058589 -1628671465 -1099545995 1920653918 910080866 -1043011314 -30368069 -893531236 -668522925 -1168481352 -1642327011 -426172802 -2119729270 -2025929684 -211145778 -1523152424 -874383224 959873644 -1039876639 2062997636 -8093540 1689188971 -336544069 1851939769 1031210816 591122258 20637426 353628084 -2103960544 -271440277
REM
CELL 1.54180   50.00000   50.00000   50.00000   90.00000   90.00000   90.00000
LATT -1
SFAC C  
C      1  0.4310000000000  0.4638390000000  0.4956140000000 1.0
C      1  0.4922450000000  0.5342120000000  0.4467520000000 1.0
C      1  0.4275520000000  0.4882630000000  0.4991010000000 1.0
C      1  0.5339860000000  0.5317810000000  0.5081650000000 1.0
C      1  0.4735700000000  0.4843150000000  0.5622480000000 1.0
C      1  0.4905280000000  0.5515290000000  0.4849970000000 1.0
C      1  0.5367130000000  0.5483980000000  0.5328710000000 1.0
C      1  0.4859570000000  0.5252400000000  0.5275560000000 1.0
C      1  0.5300020000000  0.4435700000000  0.4710290000000 1.0
C      1  0.5126490000000  0.5801530000000  0.5083280000000 1.0
C      1  0.4519710000000  0.4455020000000  0.4998890000000 1.0
C      1  0.5322660000000  0.4703420000000  0.5393350000000 1.0
C      1  0.5362300000000  0.5509610000000  0.4639520000000 1.0
C      1  0.5327030000000  0.5144340000000  0.4328140000000 1.0
C      1  0.4677860000000  0.4308770000000  0.4804650000000 1.0
C      1  0.4605300000000  0.5135090000000  0.4768760000000 1.0
C      1  0.4930990000000  0.4231050000000  0.4935330000000 1.0
C      1  0.5050970000000  0.5045980000000  0.4864180000000 1.0
C      1  0.5210910000000  0.4546250000000  0.5187970000000 1.0
C      1  0.4605560000000  0.4668450000000  0.5443630000000 1.0
C      1  0.4467900000000  0.5092870000000  0.5010550000000 1.0
C      1  0.4534670000000  0.4944300000000  0.5461320000000 1.0
C      1  0.5375260000000  0.5711090000000  0.5135110000000 1.0
C      1  0.5046760000000  0.5097630000000  0.4363310000000 1.0
C      1  0.5308490000000  0.4618830000000  0.4913230000000 1.0
C      1  0.4835860000000  0.4602960000000  0.4405300000000 1.0
C      1  0.5468560000000  0.5326510000000  0.4441620000000 1.0
C      1  0.5235810000000  0.4858400000000  0.5622870000000 1.0
C      1  0.4817760000000  0.4938680000000  0.4731740000000 1.0
C      1  0.4891180000000  0.5775150000000  0.4988150000000 1.0
C      1  0.4899070000000  0.4857400000000  0.4465620000000 1.0
C      1  0.5516850000000  0.4927110000000  0.5333100000000 1.0
C      1  0.4975310000000  0.4978470000000  0.5656870000000 1.0
C      1  0.4602780000000  0.5135040000000  0.5257510000000 1.0
C      1  0.4824220000000  0.4380930000000  0.4557390000000 1.0
C      1  0.4715990000000  0.5362190000000  0.4666430000000 1.0
C      1  0.4686570000000  0.4495840000000  0.5232710000000 1.0
C      1  0.5083030000000  0.4280120000000  0.4693970000000 1.0
C      1  0.5441340000000  0.5538040000000  0.4908950000000 1.0
C      1  0.5425590000000  0.5078240000000  0.5568400000000 1.0
C      1  0.5028410000000  0.5293740000000  0.5030800000000 1.0
C      1  0.4997530000000  0.5234020000000  0.5524500000000 1.0
C      1  0.4958850000000  0.4399830000000  0.5164380000000 1.0
C      1  0.5449380000000  0.5048520000000  0.5087800000000 1.0
C      1  0.5278280000000  0.5326660000000  0.5537890000000 1.0
C      1  0.5085830000000  0.5533320000000  0.4605550000000 1.0
C      1  0.5293420000000  0.4903130000000  0.4903900000000 1.0
END
