TITL C-2114527-8099-28 0.00927885026554741 125000 -80.3081850492209 0 0 13 (C1) n - 1
REM
REM in /nfs/bkarasulu/CARBON/AIRSS/Generating-Clusters/GAP-ML-2020/Only-C1/SD-CG/HFTN-CG
REM
REM
REM
REM
REM
REM ./C.cell (11c1c37f851c82e70ff6c80c92926a4b)
REM
REM compiler GCC version 9.2.1 20190827 (Red Hat 9.2.1-1)
REM options -cpp -mtune=generic -march=x86-64 -g -O0 -fpre-include=/usr/include/finclude/math-vector-fortran.h
REM seed 1851269950 19588804 -2121917872 -534352216 14196194 976737607 -1694873542 -889191427 2097288725 -668126578 -1160838378 145999900 679603534 -1807457043 -2063964592 1682564790 -1321286745 -493060880 -175237040 -880138025 652578145 1387193790 -561833545 277693309 110871360 -739207737 464485733 425540857 -1039122609 -2048299491 120920073 394828183 1184431543
REM
CELL 1.54180   50.00000   50.00000   50.00000   90.00000   90.00000   90.00000
LATT -1
SFAC C  
C      1  0.4957360000000  0.4862050000000  0.4591810000000 1.0
C      1  0.5066810000000  0.4899250000000  0.5467130000000 1.0
C      1  0.5103360000000  0.5135240000000  0.5344570000000 1.0
C      1  0.4741080000000  0.5321190000000  0.5102950000000 1.0
C      1  0.5020420000000  0.5259210000000  0.5112150000000 1.0
C      1  0.5134340000000  0.5175250000000  0.4869080000000 1.0
C      1  0.5374800000000  0.5042850000000  0.4874190000000 1.0
C      1  0.4617140000000  0.4834880000000  0.5205620000000 1.0
C      1  0.4861100000000  0.4836140000000  0.5308150000000 1.0
C      1  0.4967080000000  0.5111780000000  0.4657880000000 1.0
C      1  0.4638800000000  0.5083240000000  0.5102330000000 1.0
C      1  0.5469540000000  0.4815270000000  0.4820390000000 1.0
C      1  0.5048170000000  0.4623640000000  0.4543740000000 1.0
END
