TITL C-21916-2349-7 261.562235638791 125000 -270.362096138295 0 0 41 (C1) n - 1
REM
REM in /rds/project/t2_vol4/rds-t2-cs072/BORA/CARBON/from-Arr/AIRSS/Generating-Clusters/GAP-ML-2020/Only-C1/SD-CG/HFTN-CG
REM
REM
REM
REM
REM
REM ./C.cell (11c1c37f851c82e70ff6c80c92926a4b)
REM AIRSS Version 0.9.1 bugfix July 2018 build 013d7b7c2542+ Fri, 06 Jul 2018 19:26:36 +0100
REM compiler GCC version 9.3.0
REM options -cpp -mtune=generic -march=x86-64 -g -O0
REM seed 876454103 -1637769486 -1371903155 297386007 -1524294638 1001621987 392866985 -1744023631 1727537982 1555537766 1438197479 -1728949768 -1920764307 -1075965771 -2012782111 2128199933 1813944694 -50791560 -1223844115 1903355361 -1753185053 -1773879169 976295211 924805192 -1909275203 904928218 -82339838 401114398 1231367431 -1233527828 -917132209 313013402 -1541556109
REM
CELL 1.54180   50.00000   50.00000   50.00000   90.00000   90.00000   90.00000
LATT -1
SFAC C  
C      1  0.5385710000000  0.5508030000000  0.4954430000000 1.0
C      1  0.4995280000000  0.4362930000000  0.4783220000000 1.0
C      1  0.5272850000000  0.5385000000000  0.4716560000000 1.0
C      1  0.4768250000000  0.5630610000000  0.5273420000000 1.0
C      1  0.5502580000000  0.5301830000000  0.5116960000000 1.0
C      1  0.4783230000000  0.4950870000000  0.5558480000000 1.0
C      1  0.4632910000000  0.5113980000000  0.5363050000000 1.0
C      1  0.4981070000000  0.5437110000000  0.4651060000000 1.0
C      1  0.4945350000000  0.5691290000000  0.5050820000000 1.0
C      1  0.5067160000000  0.4961640000000  0.5577020000000 1.0
C      1  0.5463290000000  0.5050230000000  0.4991080000000 1.0
C      1  0.4677080000000  0.5000860000000  0.4489750000000 1.0
C      1  0.4702880000000  0.5387760000000  0.5381030000000 1.0
C      1  0.5335400000000  0.4876740000000  0.5181460000000 1.0
C      1  0.4837040000000  0.5071450000000  0.4913320000000 1.0
C      1  0.4460770000000  0.4710950000000  0.4797220000000 1.0
C      1  0.4891170000000  0.5657970000000  0.4785530000000 1.0
C      1  0.4943750000000  0.5499850000000  0.5475000000000 1.0
C      1  0.4980540000000  0.4635460000000  0.4638190000000 1.0
C      1  0.4809200000000  0.5187900000000  0.4646770000000 1.0
C      1  0.4773210000000  0.4717370000000  0.4454040000000 1.0
C      1  0.5214960000000  0.5524420000000  0.5391100000000 1.0
C      1  0.4830920000000  0.4312960000000  0.4989170000000 1.0
C      1  0.4855920000000  0.4298270000000  0.5249040000000 1.0
C      1  0.5389510000000  0.5110880000000  0.4708250000000 1.0
C      1  0.5257290000000  0.4443320000000  0.4912370000000 1.0
C      1  0.5147620000000  0.4665030000000  0.5093220000000 1.0
C      1  0.4622080000000  0.5001160000000  0.5106340000000 1.0
C      1  0.4531370000000  0.4598380000000  0.4555570000000 1.0
C      1  0.4417210000000  0.4895160000000  0.4582500000000 1.0
C      1  0.4918020000000  0.4763530000000  0.4904690000000 1.0
C      1  0.5213420000000  0.5653930000000  0.5132590000000 1.0
C      1  0.4994860000000  0.4533500000000  0.5330950000000 1.0
C      1  0.5388780000000  0.5299370000000  0.5378360000000 1.0
C      1  0.5290470000000  0.4676610000000  0.4586450000000 1.0
C      1  0.5008970000000  0.5225140000000  0.5079540000000 1.0
C      1  0.5437490000000  0.4470740000000  0.4711160000000 1.0
C      1  0.5293100000000  0.5029900000000  0.5425090000000 1.0
C      1  0.4930170000000  0.4711280000000  0.5537220000000 1.0
C      1  0.4633730000000  0.4734080000000  0.5008450000000 1.0
C      1  0.5415360000000  0.4912520000000  0.4519530000000 1.0
END
