TITL C-2114524-4667-29 -35.7986982561283 125000 -467.807279654913 0 0 68 (C1) n - 1
REM
REM in /nfs/bkarasulu/CARBON/AIRSS/Generating-Clusters/GAP-ML-2020/Only-C1/SD-CG/HFTN-CG
REM
REM
REM
REM
REM
REM ./C.cell (11c1c37f851c82e70ff6c80c92926a4b)
REM
REM compiler GCC version 9.2.1 20190827 (Red Hat 9.2.1-1)
REM options -cpp -mtune=generic -march=x86-64 -g -O0 -fpre-include=/usr/include/finclude/math-vector-fortran.h
REM seed -1503181039 1717381358 -1364652048 -1575298802 -9081521 524820462 1321476676 1716612450 391045844 1173992815 -578139591 440792639 547034060 451741811 426056826 1445511591 -545142798 85801949 1608322296 -2076374753 1623863728 -513783328 -78587731 -1348840451 1701139110 -90295480 -1326615603 -1616852257 56540641 -1729866016 -635195228 539880357 81089882
REM
CELL 1.54180   50.00000   50.00000   50.00000   90.00000   90.00000   90.00000
LATT -1
SFAC C  
C      1  0.5126840000000  0.4814290000000  0.4904870000000 1.0
C      1  0.5626060000000  0.5257420000000  0.5248660000000 1.0
C      1  0.5715010000000  0.5179480000000  0.4616190000000 1.0
C      1  0.5273960000000  0.5554310000000  0.5270460000000 1.0
C      1  0.4926840000000  0.5307470000000  0.4282810000000 1.0
C      1  0.4743570000000  0.4422060000000  0.5546540000000 1.0
C      1  0.5494690000000  0.5122640000000  0.5728110000000 1.0
C      1  0.5534620000000  0.5588780000000  0.4869130000000 1.0
C      1  0.5560020000000  0.4741680000000  0.5218610000000 1.0
C      1  0.5116380000000  0.4705780000000  0.5695260000000 1.0
C      1  0.5513790000000  0.5501050000000  0.5139550000000 1.0
C      1  0.4844740000000  0.4672210000000  0.5677080000000 1.0
C      1  0.5510110000000  0.4664740000000  0.4574410000000 1.0
C      1  0.5317620000000  0.4922960000000  0.5607060000000 1.0
C      1  0.4462040000000  0.5406900000000  0.5175990000000 1.0
C      1  0.4375020000000  0.4699450000000  0.4980150000000 1.0
C      1  0.5503050000000  0.4978330000000  0.4600130000000 1.0
C      1  0.4860800000000  0.5417080000000  0.5420600000000 1.0
C      1  0.5056810000000  0.5767190000000  0.4899970000000 1.0
C      1  0.5605440000000  0.5240640000000  0.5524930000000 1.0
C      1  0.5092970000000  0.5539850000000  0.4287000000000 1.0
C      1  0.5451450000000  0.4499780000000  0.4790680000000 1.0
C      1  0.4593220000000  0.4790840000000  0.5569870000000 1.0
C      1  0.4956550000000  0.4431620000000  0.4644090000000 1.0
C      1  0.4744920000000  0.5438780000000  0.4689270000000 1.0
C      1  0.5388800000000  0.4305280000000  0.5210020000000 1.0
C      1  0.5086960000000  0.5744680000000  0.5177500000000 1.0
C      1  0.4767630000000  0.5677420000000  0.4839190000000 1.0
C      1  0.4425060000000  0.4469880000000  0.5141090000000 1.0
C      1  0.5484470000000  0.5023010000000  0.5143990000000 1.0
C      1  0.5285730000000  0.5714960000000  0.4732830000000 1.0
C      1  0.4627600000000  0.5646030000000  0.5094090000000 1.0
C      1  0.4681430000000  0.5331110000000  0.4435480000000 1.0
C      1  0.4504660000000  0.5111390000000  0.4496430000000 1.0
C      1  0.5471700000000  0.4694220000000  0.5476130000000 1.0
C      1  0.5693390000000  0.5404450000000  0.4735520000000 1.0
C      1  0.4865250000000  0.4819570000000  0.4392090000000 1.0
C      1  0.4911420000000  0.5231540000000  0.4815590000000 1.0
C      1  0.4528990000000  0.4647050000000  0.4742990000000 1.0
C      1  0.4867640000000  0.4319070000000  0.5308880000000 1.0
C      1  0.5064570000000  0.4829440000000  0.5198920000000 1.0
C      1  0.4842040000000  0.4953460000000  0.4853080000000 1.0
C      1  0.5161980000000  0.4526740000000  0.4816340000000 1.0
C      1  0.4686990000000  0.4351520000000  0.5075590000000 1.0
C      1  0.5211460000000  0.5684050000000  0.4459080000000 1.0
C      1  0.4273660000000  0.4427730000000  0.5369280000000 1.0
C      1  0.5027710000000  0.5039010000000  0.4303540000000 1.0
C      1  0.5159430000000  0.4318510000000  0.5352640000000 1.0
C      1  0.5339180000000  0.5027430000000  0.4871310000000 1.0
C      1  0.5297500000000  0.4666020000000  0.4378990000000 1.0
C      1  0.4713650000000  0.4431580000000  0.4793830000000 1.0
C      1  0.4281460000000  0.5204650000000  0.5051570000000 1.0
C      1  0.4792490000000  0.4876380000000  0.5140340000000 1.0
C      1  0.4473270000000  0.4534920000000  0.5512880000000 1.0
C      1  0.5025770000000  0.4587710000000  0.4421250000000 1.0
C      1  0.5528470000000  0.4503650000000  0.5064520000000 1.0
C      1  0.4361500000000  0.4948380000000  0.5131010000000 1.0
C      1  0.5130180000000  0.5331860000000  0.5385690000000 1.0
C      1  0.4253750000000  0.5161350000000  0.4600090000000 1.0
C      1  0.4126620000000  0.5226010000000  0.4810960000000 1.0
C      1  0.4584370000000  0.4977750000000  0.5334370000000 1.0
C      1  0.5298760000000  0.4950710000000  0.4359260000000 1.0
C      1  0.5168010000000  0.5269250000000  0.4879740000000 1.0
C      1  0.5272300000000  0.4503760000000  0.5544390000000 1.0
C      1  0.4616460000000  0.5271980000000  0.5367290000000 1.0
C      1  0.4830430000000  0.5668060000000  0.5288780000000 1.0
C      1  0.4652690000000  0.4872990000000  0.4589290000000 1.0
C      1  0.5228060000000  0.5050120000000  0.5342740000000 1.0
END
