TITL C-21084-1542-2 -0.149811470293065 125000 -451.45411270391 0 0 66 (C1) n - 1
REM
REM in /rds/project/t2_vol4/rds-t2-cs072/BORA/CARBON/from-Arr/AIRSS/Generating-Clusters/GAP-ML-2020/Only-C1/SD-CG/HFTN-CG
REM
REM
REM
REM
REM
REM ./C.cell (11c1c37f851c82e70ff6c80c92926a4b)
REM AIRSS Version 0.9.1 bugfix July 2018 build 013d7b7c2542+ Fri, 06 Jul 2018 19:26:36 +0100
REM compiler GCC version 9.3.0
REM options -cpp -mtune=generic -march=x86-64 -g -O0
REM seed -1094949545 1521882759 1251181233 544459316 -1512955567 -68830983 -1062915430 1125466304 -554204538 -1097091196 1301760101 -3245651 -2095882269 1717568703 -2005061302 1486371398 -44842242 172155503 1949332180 -902261867 -695562616 -1219935684 189672091 -1389625428 -1519898355 -1883098038 362257231 -571699202 -520679740 1240188110 4436651 -1171163353 91498763
REM
CELL 1.54180   50.00000   50.00000   50.00000   90.00000   90.00000   90.00000
LATT -1
SFAC C  
C      1  0.4857710000000  0.4841850000000  0.4326310000000 1.0
C      1  0.4199690000000  0.5031270000000  0.4845780000000 1.0
C      1  0.5222050000000  0.4542570000000  0.5278790000000 1.0
C      1  0.5262710000000  0.5487620000000  0.5481210000000 1.0
C      1  0.5248080000000  0.5610560000000  0.5031100000000 1.0
C      1  0.5542520000000  0.4439150000000  0.4887400000000 1.0
C      1  0.5498240000000  0.5042470000000  0.4852890000000 1.0
C      1  0.4572280000000  0.5129490000000  0.4454360000000 1.0
C      1  0.4826780000000  0.5525030000000  0.5212700000000 1.0
C      1  0.4825430000000  0.4415880000000  0.5021560000000 1.0
C      1  0.4675670000000  0.4430030000000  0.4773230000000 1.0
C      1  0.5105790000000  0.4721660000000  0.4346450000000 1.0
C      1  0.5738960000000  0.5115620000000  0.5378440000000 1.0
C      1  0.5495940000000  0.4663640000000  0.5291440000000 1.0
C      1  0.5427070000000  0.5378680000000  0.4518640000000 1.0
C      1  0.4653420000000  0.5153640000000  0.5491010000000 1.0
C      1  0.5716630000000  0.5391450000000  0.4962960000000 1.0
C      1  0.4248210000000  0.4957310000000  0.5295330000000 1.0
C      1  0.5074560000000  0.5043370000000  0.5166960000000 1.0
C      1  0.4453390000000  0.4945930000000  0.5489170000000 1.0
C      1  0.4815390000000  0.5449530000000  0.4923880000000 1.0
C      1  0.5531540000000  0.5511480000000  0.5390980000000 1.0
C      1  0.5720440000000  0.5355660000000  0.5502250000000 1.0
C      1  0.5324880000000  0.4999560000000  0.5623490000000 1.0
C      1  0.5156720000000  0.5494640000000  0.4545000000000 1.0
C      1  0.5334660000000  0.4890920000000  0.4680730000000 1.0
C      1  0.4863050000000  0.4375380000000  0.4585860000000 1.0
C      1  0.5591130000000  0.5296220000000  0.4727600000000 1.0
C      1  0.5350530000000  0.5120130000000  0.5142190000000 1.0
C      1  0.4885710000000  0.4941700000000  0.4734580000000 1.0
C      1  0.4407480000000  0.5298930000000  0.4627280000000 1.0
C      1  0.4819620000000  0.5140820000000  0.4305190000000 1.0
C      1  0.5308930000000  0.4913970000000  0.4401140000000 1.0
C      1  0.5824900000000  0.5139240000000  0.5110040000000 1.0
C      1  0.5093170000000  0.5584530000000  0.5271170000000 1.0
C      1  0.5085470000000  0.4848260000000  0.5611670000000 1.0
C      1  0.4863080000000  0.5114500000000  0.4968140000000 1.0
C      1  0.4144440000000  0.5197040000000  0.4642050000000 1.0
C      1  0.4276160000000  0.4750680000000  0.4863260000000 1.0
C      1  0.5047960000000  0.5304720000000  0.4337600000000 1.0
C      1  0.4654170000000  0.4931960000000  0.5047220000000 1.0
C      1  0.5055300000000  0.4586380000000  0.5519930000000 1.0
C      1  0.5103850000000  0.4760130000000  0.4791610000000 1.0
C      1  0.5067560000000  0.5566550000000  0.4807720000000 1.0
C      1  0.4347010000000  0.4525900000000  0.5316850000000 1.0
C      1  0.4408280000000  0.5371730000000  0.5120790000000 1.0
C      1  0.5082940000000  0.4754650000000  0.5098050000000 1.0
C      1  0.4241300000000  0.4704170000000  0.5145790000000 1.0
C      1  0.5312310000000  0.5179920000000  0.4328490000000 1.0
C      1  0.4640420000000  0.4846950000000  0.4543940000000 1.0
C      1  0.5530000000000  0.5559130000000  0.5103220000000 1.0
C      1  0.4486640000000  0.4644360000000  0.4701220000000 1.0
C      1  0.4526890000000  0.4654650000000  0.5500750000000 1.0
C      1  0.5178430000000  0.5252160000000  0.5595050000000 1.0
C      1  0.5284230000000  0.4372020000000  0.4829580000000 1.0
C      1  0.5100380000000  0.4511510000000  0.4587110000000 1.0
C      1  0.5740090000000  0.4908910000000  0.4969310000000 1.0
C      1  0.5111720000000  0.4352900000000  0.5059280000000 1.0
C      1  0.5653600000000  0.4634430000000  0.5052920000000 1.0
C      1  0.4789570000000  0.4596520000000  0.5438240000000 1.0
C      1  0.4520610000000  0.5444310000000  0.4865700000000 1.0
C      1  0.4796870000000  0.4676030000000  0.5154510000000 1.0
C      1  0.4227210000000  0.5159850000000  0.5109980000000 1.0
C      1  0.4948620000000  0.5088240000000  0.5485500000000 1.0
C      1  0.4604710000000  0.5383990000000  0.5330270000000 1.0
C      1  0.5496960000000  0.4937550000000  0.5397170000000 1.0
END
