TITL C-216139-3319-6 -0.160864994413901 125000 -659.225746220442 0 0 95 (C1) n - 1
REM
REM in /rds/project/t2_vol4/rds-t2-cs072/BORA/CARBON/from-Arr/AIRSS/Generating-Clusters/GAP-ML-2020/Only-C1/SD-CG/HFTN-CG
REM
REM
REM
REM
REM
REM ./C.cell (11c1c37f851c82e70ff6c80c92926a4b)
REM AIRSS Version 0.9.1 bugfix July 2018 build 013d7b7c2542+ Fri, 06 Jul 2018 19:26:36 +0100
REM compiler GCC version 9.3.0
REM options -cpp -mtune=generic -march=x86-64 -g -O0
REM seed -832370654 414074288 2043681812 -1231972562 -150388634 -143695255 66577338 86406794 943983764 -2021811177 1154416498 604309488 -838047792 1043526627 387069696 987756283 1371476216 1807439302 618085002 -80097250 -332310440 1694003849 -1738258693 -1316271629 918068520 -1198197750 -2030818803 -688104992 -2038726499 -266559691 1940737782 -613882230 -1551747320
REM
CELL 1.54180   50.00000   50.00000   50.00000   90.00000   90.00000   90.00000
LATT -1
SFAC C  
C      1  0.4680120000000  0.5314620000000  0.5704830000000 1.0
C      1  0.4693990000000  0.5886600000000  0.4947660000000 1.0
C      1  0.5473940000000  0.4494820000000  0.4218220000000 1.0
C      1  0.4809730000000  0.4925220000000  0.4119070000000 1.0
C      1  0.4415780000000  0.5873040000000  0.4999180000000 1.0
C      1  0.5275670000000  0.4701500000000  0.5090620000000 1.0
C      1  0.5711320000000  0.4748230000000  0.5167970000000 1.0
C      1  0.5395850000000  0.4658050000000  0.4812490000000 1.0
C      1  0.4734680000000  0.5017840000000  0.5182930000000 1.0
C      1  0.4322080000000  0.5223970000000  0.5333600000000 1.0
C      1  0.4692820000000  0.5136370000000  0.4277470000000 1.0
C      1  0.4464480000000  0.5377240000000  0.5528320000000 1.0
C      1  0.4242630000000  0.5027160000000  0.4816830000000 1.0
C      1  0.5269340000000  0.4314040000000  0.5634750000000 1.0
C      1  0.5192410000000  0.4250350000000  0.5083270000000 1.0
C      1  0.4486790000000  0.4752840000000  0.5507110000000 1.0
C      1  0.5726520000000  0.4965720000000  0.5347570000000 1.0
C      1  0.4840210000000  0.4263300000000  0.4784860000000 1.0
C      1  0.4953080000000  0.4974290000000  0.5349980000000 1.0
C      1  0.4423200000000  0.4949740000000  0.5280300000000 1.0
C      1  0.5522630000000  0.4732980000000  0.4128780000000 1.0
C      1  0.5260640000000  0.5687570000000  0.5284010000000 1.0
C      1  0.4411840000000  0.4491880000000  0.4677960000000 1.0
C      1  0.4285280000000  0.5310350000000  0.4845990000000 1.0
C      1  0.5744160000000  0.5046470000000  0.4772790000000 1.0
C      1  0.5521680000000  0.5623830000000  0.5222250000000 1.0
C      1  0.4336410000000  0.4569880000000  0.4947320000000 1.0
C      1  0.4821580000000  0.5006710000000  0.4913480000000 1.0
C      1  0.5155090000000  0.5896630000000  0.5127110000000 1.0
C      1  0.4701210000000  0.5587920000000  0.4528370000000 1.0
C      1  0.4778490000000  0.4172530000000  0.5717820000000 1.0
C      1  0.4941790000000  0.4683480000000  0.4167060000000 1.0
C      1  0.5393760000000  0.5246760000000  0.5534020000000 1.0
C      1  0.5363540000000  0.4968320000000  0.4181770000000 1.0
C      1  0.5470360000000  0.4303540000000  0.5090940000000 1.0
C      1  0.5791090000000  0.5258950000000  0.4962500000000 1.0
C      1  0.5324700000000  0.4227830000000  0.4630680000000 1.0
C      1  0.5541200000000  0.4989150000000  0.5568260000000 1.0
C      1  0.5177680000000  0.5418150000000  0.4377810000000 1.0
C      1  0.4879230000000  0.5866480000000  0.5177360000000 1.0
C      1  0.5165170000000  0.5178820000000  0.5310580000000 1.0
C      1  0.5426300000000  0.4517880000000  0.5539130000000 1.0
C      1  0.5287410000000  0.5851500000000  0.4884120000000 1.0
C      1  0.4539380000000  0.4727240000000  0.4591710000000 1.0
C      1  0.4806260000000  0.5810070000000  0.4686130000000 1.0
C      1  0.5410100000000  0.4772540000000  0.5682760000000 1.0
C      1  0.5478530000000  0.4371340000000  0.4818940000000 1.0
C      1  0.4454760000000  0.5177250000000  0.4424530000000 1.0
C      1  0.5131990000000  0.5108690000000  0.4869050000000 1.0
C      1  0.5039340000000  0.4511060000000  0.5161020000000 1.0
C      1  0.5662070000000  0.4802610000000  0.4882420000000 1.0
C      1  0.4583310000000  0.4282560000000  0.4605280000000 1.0
C      1  0.4818410000000  0.4742860000000  0.4775210000000 1.0
C      1  0.5173950000000  0.5559330000000  0.4610290000000 1.0
C      1  0.5050730000000  0.5082170000000  0.5839310000000 1.0
C      1  0.5646010000000  0.5448260000000  0.4788890000000 1.0
C      1  0.5156520000000  0.4828490000000  0.5798460000000 1.0
C      1  0.4502820000000  0.4481830000000  0.5406610000000 1.0
C      1  0.4544160000000  0.5606440000000  0.5388910000000 1.0
C      1  0.5597890000000  0.5406760000000  0.5378020000000 1.0
C      1  0.4275400000000  0.4838640000000  0.5030850000000 1.0
C      1  0.4770420000000  0.5257520000000  0.4758020000000 1.0
C      1  0.4370170000000  0.5664230000000  0.5168370000000 1.0
C      1  0.5034440000000  0.5388060000000  0.4879740000000 1.0
C      1  0.4499160000000  0.5383920000000  0.4632870000000 1.0
C      1  0.4987670000000  0.4686490000000  0.5393720000000 1.0
C      1  0.4678790000000  0.4803720000000  0.5718840000000 1.0
C      1  0.5004660000000  0.4346810000000  0.5717550000000 1.0
C      1  0.5286340000000  0.4365000000000  0.4377190000000 1.0
C      1  0.5102620000000  0.4724120000000  0.4636660000000 1.0
C      1  0.5514850000000  0.5661090000000  0.4936670000000 1.0
C      1  0.5152530000000  0.5316780000000  0.5707450000000 1.0
C      1  0.4599070000000  0.4285780000000  0.5571140000000 1.0
C      1  0.4801350000000  0.4490750000000  0.4980850000000 1.0
C      1  0.4262760000000  0.5401420000000  0.5109590000000 1.0
C      1  0.5766350000000  0.5226800000000  0.5241500000000 1.0
C      1  0.5097860000000  0.5822470000000  0.4670480000000 1.0
C      1  0.5052950000000  0.5447220000000  0.5193800000000 1.0
C      1  0.4884690000000  0.5168310000000  0.4497080000000 1.0
C      1  0.5254790000000  0.5004410000000  0.5100960000000 1.0
C      1  0.4532790000000  0.4464740000000  0.5120890000000 1.0
C      1  0.4941920000000  0.4647010000000  0.5698500000000 1.0
C      1  0.5025050000000  0.4505980000000  0.4391260000000 1.0
C      1  0.4360480000000  0.4953750000000  0.4566090000000 1.0
C      1  0.4909590000000  0.5470580000000  0.5631220000000 1.0
C      1  0.5600950000000  0.5233990000000  0.4590730000000 1.0
C      1  0.5512920000000  0.4545300000000  0.5255010000000 1.0
C      1  0.4762150000000  0.5061150000000  0.5807450000000 1.0
C      1  0.4893080000000  0.5425410000000  0.4363820000000 1.0
C      1  0.4820770000000  0.4320580000000  0.4492890000000 1.0
C      1  0.5142500000000  0.5017590000000  0.4579000000000 1.0
C      1  0.5107890000000  0.4169090000000  0.4819530000000 1.0
C      1  0.5363610000000  0.5165040000000  0.4411240000000 1.0
C      1  0.4833570000000  0.5620640000000  0.5369770000000 1.0
C      1  0.5093730000000  0.4903580000000  0.4094550000000 1.0
END
