TITL C-21903-2290-3 -37.5027929772569 125000 -641.562623234881 0 0 94 (C1) n - 1
REM
REM in /rds/project/t2_vol4/rds-t2-cs072/BORA/CARBON/from-Arr/AIRSS/Generating-Clusters/GAP-ML-2020/Only-C1/SD-CG/HFTN-CG
REM
REM
REM
REM
REM
REM ./C.cell (11c1c37f851c82e70ff6c80c92926a4b)
REM AIRSS Version 0.9.1 bugfix July 2018 build 013d7b7c2542+ Fri, 06 Jul 2018 19:26:36 +0100
REM compiler GCC version 9.3.0
REM options -cpp -mtune=generic -march=x86-64 -g -O0
REM seed 829197966 2072456327 -1432092217 807585366 -1120368501 377848745 671579294 381156956 -1306231453 -732333880 1337418036 -1278891303 -1110111209 823252813 446649359 1710751789 -2119563517 1537628116 -1170995416 -1760810092 -27536044 1258324616 443107633 -1782562165 -1979323362 593168490 -587208291 1168366919 -1410538562 -458277443 1962070200 1465433410 1189811174
REM
CELL 1.54180   50.00000   50.00000   50.00000   90.00000   90.00000   90.00000
LATT -1
SFAC C  
C      1  0.4778990000000  0.4973430000000  0.5822170000000 1.0
C      1  0.4829350000000  0.5363620000000  0.4841170000000 1.0
C      1  0.4748560000000  0.5854890000000  0.4978060000000 1.0
C      1  0.5009600000000  0.4475820000000  0.5590750000000 1.0
C      1  0.5063890000000  0.4828530000000  0.4981510000000 1.0
C      1  0.4657450000000  0.4309340000000  0.4725420000000 1.0
C      1  0.5287330000000  0.5455620000000  0.4350490000000 1.0
C      1  0.4918600000000  0.5439340000000  0.5396420000000 1.0
C      1  0.4390810000000  0.5134840000000  0.5499080000000 1.0
C      1  0.5427490000000  0.4916900000000  0.5550350000000 1.0
C      1  0.4621470000000  0.4753210000000  0.5846390000000 1.0
C      1  0.5482910000000  0.5649250000000  0.4986230000000 1.0
C      1  0.4869910000000  0.4136900000000  0.5293460000000 1.0
C      1  0.4694160000000  0.5231430000000  0.5901790000000 1.0
C      1  0.5690940000000  0.5389710000000  0.5100750000000 1.0
C      1  0.4633640000000  0.5588180000000  0.4946910000000 1.0
C      1  0.5193510000000  0.5201460000000  0.4218940000000 1.0
C      1  0.5739930000000  0.5321730000000  0.4587790000000 1.0
C      1  0.5084350000000  0.5579880000000  0.4505210000000 1.0
C      1  0.5302140000000  0.4469830000000  0.5542290000000 1.0
C      1  0.4643140000000  0.4640220000000  0.5047890000000 1.0
C      1  0.5598880000000  0.5432190000000  0.4818700000000 1.0
C      1  0.5244450000000  0.5104270000000  0.5658980000000 1.0
C      1  0.4631520000000  0.4856670000000  0.4267720000000 1.0
C      1  0.4918290000000  0.5158930000000  0.5313630000000 1.0
C      1  0.5484790000000  0.5106660000000  0.4217180000000 1.0
C      1  0.4258970000000  0.4623940000000  0.4967220000000 1.0
C      1  0.5828750000000  0.4969950000000  0.4934160000000 1.0
C      1  0.4566900000000  0.4440930000000  0.5504890000000 1.0
C      1  0.4670200000000  0.5143110000000  0.5145270000000 1.0
C      1  0.5026520000000  0.4119630000000  0.5069990000000 1.0
C      1  0.4682910000000  0.5106540000000  0.4853150000000 1.0
C      1  0.4443410000000  0.4628420000000  0.5679090000000 1.0
C      1  0.5494310000000  0.4195330000000  0.4882230000000 1.0
C      1  0.5558510000000  0.4369120000000  0.4681260000000 1.0
C      1  0.5193350000000  0.5620500000000  0.4989430000000 1.0
C      1  0.4164220000000  0.4740050000000  0.4475450000000 1.0
C      1  0.5301110000000  0.4501650000000  0.4593780000000 1.0
C      1  0.5311000000000  0.4226380000000  0.5081830000000 1.0
C      1  0.5829440000000  0.5053560000000  0.4662180000000 1.0
C      1  0.5327180000000  0.4988440000000  0.4631130000000 1.0
C      1  0.5492140000000  0.4699490000000  0.5086540000000 1.0
C      1  0.5754620000000  0.4695790000000  0.4951410000000 1.0
C      1  0.5105810000000  0.5760100000000  0.4734090000000 1.0
C      1  0.4625630000000  0.5296820000000  0.4430570000000 1.0
C      1  0.4951400000000  0.5184710000000  0.4069140000000 1.0
C      1  0.4788930000000  0.4845920000000  0.4896120000000 1.0
C      1  0.5296190000000  0.4755910000000  0.4813530000000 1.0
C      1  0.4833360000000  0.5444140000000  0.4557040000000 1.0
C      1  0.5279980000000  0.5402540000000  0.5673350000000 1.0
C      1  0.5452680000000  0.4963230000000  0.5238970000000 1.0
C      1  0.5054330000000  0.4326160000000  0.4596440000000 1.0
C      1  0.4458760000000  0.5121270000000  0.4630430000000 1.0
C      1  0.5129370000000  0.5319740000000  0.4934640000000 1.0
C      1  0.4471570000000  0.5541780000000  0.5181430000000 1.0
C      1  0.4913790000000  0.4190580000000  0.4814070000000 1.0
C      1  0.5073890000000  0.4640970000000  0.5204310000000 1.0
C      1  0.4920940000000  0.5946360000000  0.4787630000000 1.0
C      1  0.5107110000000  0.5002280000000  0.4433390000000 1.0
C      1  0.4864160000000  0.5459360000000  0.5855790000000 1.0
C      1  0.4926670000000  0.4719720000000  0.5444970000000 1.0
C      1  0.5148530000000  0.5093790000000  0.5126720000000 1.0
C      1  0.5748290000000  0.4586460000000  0.4692230000000 1.0
C      1  0.4705550000000  0.5517150000000  0.5595270000000 1.0
C      1  0.4717710000000  0.5129350000000  0.4214060000000 1.0
C      1  0.4398100000000  0.5259730000000  0.5232480000000 1.0
C      1  0.4398750000000  0.4883180000000  0.4426990000000 1.0
C      1  0.4806800000000  0.4415810000000  0.4481250000000 1.0
C      1  0.4137920000000  0.4778890000000  0.4747190000000 1.0
C      1  0.4645760000000  0.4681580000000  0.5340050000000 1.0
C      1  0.5550860000000  0.5589450000000  0.5255680000000 1.0
C      1  0.4201650000000  0.5063060000000  0.4800990000000 1.0
C      1  0.4602910000000  0.5697780000000  0.5385620000000 1.0
C      1  0.5325360000000  0.4635670000000  0.4337560000000 1.0
C      1  0.4231380000000  0.4816990000000  0.5195270000000 1.0
C      1  0.4821820000000  0.5840760000000  0.5254320000000 1.0
C      1  0.4512150000000  0.5297180000000  0.5685790000000 1.0
C      1  0.5343380000000  0.5240840000000  0.4764960000000 1.0
C      1  0.4805840000000  0.4282860000000  0.5507490000000 1.0
C      1  0.5700050000000  0.5113970000000  0.5141420000000 1.0
C      1  0.5563940000000  0.5344390000000  0.4361820000000 1.0
C      1  0.5078420000000  0.4745220000000  0.4289520000000 1.0
C      1  0.5128530000000  0.5498510000000  0.5889190000000 1.0
C      1  0.5328510000000  0.4482740000000  0.5234670000000 1.0
C      1  0.4485970000000  0.4446300000000  0.4913220000000 1.0
C      1  0.5073510000000  0.5664770000000  0.5273840000000 1.0
C      1  0.4210560000000  0.5079950000000  0.5084350000000 1.0
C      1  0.5441030000000  0.4663590000000  0.5659260000000 1.0
C      1  0.4821390000000  0.4637560000000  0.4298070000000 1.0
C      1  0.4385100000000  0.4840370000000  0.5447140000000 1.0
C      1  0.5760160000000  0.4810430000000  0.4513130000000 1.0
C      1  0.4970820000000  0.4993580000000  0.5580270000000 1.0
C      1  0.5324980000000  0.5591540000000  0.5433640000000 1.0
C      1  0.5520060000000  0.4859250000000  0.4362320000000 1.0
END
