TITL C-215732-9236-4 -0.133015740110907 125000 -278.180658403446 0 0 42 (C1) n - 1
REM
REM in /rds/project/t2_vol4/rds-t2-cs072/BORA/CARBON/from-Arr/AIRSS/Generating-Clusters/GAP-ML-2020/Only-C1/SD-CG/HFTN-CG
REM
REM
REM
REM
REM
REM ./C.cell (11c1c37f851c82e70ff6c80c92926a4b)
REM AIRSS Version 0.9.1 bugfix July 2018 build 013d7b7c2542+ Fri, 06 Jul 2018 19:26:36 +0100
REM compiler GCC version 9.3.0
REM options -cpp -mtune=generic -march=x86-64 -g -O0
REM seed 348513493 1882144333 -1500863253 1157665325 -6271712 582138860 1132784041 484174592 -2063884316 -412711831 -1026949801 93016843 2030485540 1111463609 911893333 202958239 624643960 -280797203 -251452847 1373177108 2123167874 859758149 -1210646601 1852539207 -1962683462 865417933 1093475679 -1535045433 108716319 1663157262 -236843022 -2074703689 1892129559
REM
CELL 1.54180   50.00000   50.00000   50.00000   90.00000   90.00000   90.00000
LATT -1
SFAC C  
C      1  0.4465660000000  0.5261060000000  0.5047950000000 1.0
C      1  0.5530420000000  0.5404510000000  0.4964410000000 1.0
C      1  0.5395780000000  0.4732620000000  0.4862280000000 1.0
C      1  0.5399470000000  0.5427480000000  0.4686800000000 1.0
C      1  0.5024310000000  0.4523670000000  0.5021150000000 1.0
C      1  0.5077160000000  0.4809190000000  0.5407950000000 1.0
C      1  0.5415000000000  0.5172240000000  0.4565420000000 1.0
C      1  0.5169110000000  0.5080720000000  0.4463420000000 1.0
C      1  0.4625940000000  0.5324040000000  0.4811480000000 1.0
C      1  0.5508550000000  0.4992160000000  0.4779100000000 1.0
C      1  0.4832730000000  0.4913910000000  0.5541220000000 1.0
C      1  0.5001310000000  0.4875990000000  0.4355490000000 1.0
C      1  0.5054040000000  0.4602590000000  0.4296040000000 1.0
C      1  0.4423970000000  0.4899470000000  0.4760930000000 1.0
C      1  0.4565740000000  0.5271150000000  0.5319080000000 1.0
C      1  0.4615420000000  0.4984800000000  0.5371580000000 1.0
C      1  0.5174140000000  0.4951190000000  0.4908710000000 1.0
C      1  0.5445930000000  0.4695120000000  0.5145790000000 1.0
C      1  0.4677650000000  0.5468420000000  0.5467900000000 1.0
C      1  0.5007380000000  0.5084980000000  0.4721790000000 1.0
C      1  0.4791550000000  0.4944590000000  0.5091120000000 1.0
C      1  0.5194260000000  0.4595940000000  0.5246910000000 1.0
C      1  0.5592460000000  0.5127840000000  0.5015540000000 1.0
C      1  0.5044140000000  0.5302820000000  0.5160280000000 1.0
C      1  0.5504760000000  0.4995040000000  0.5518360000000 1.0
C      1  0.5248930000000  0.4985940000000  0.5588840000000 1.0
C      1  0.5152320000000  0.5522700000000  0.4801450000000 1.0
C      1  0.4527160000000  0.4575880000000  0.5184310000000 1.0
C      1  0.5063420000000  0.5007090000000  0.5160490000000 1.0
C      1  0.5100330000000  0.4482730000000  0.4524420000000 1.0
C      1  0.4997390000000  0.5144100000000  0.5618930000000 1.0
C      1  0.5178700000000  0.4542340000000  0.4778160000000 1.0
C      1  0.4928550000000  0.5360730000000  0.5434350000000 1.0
C      1  0.4755870000000  0.4633460000000  0.5011490000000 1.0
C      1  0.4569140000000  0.5102850000000  0.4626080000000 1.0
C      1  0.4409040000000  0.4816300000000  0.5240780000000 1.0
C      1  0.4794940000000  0.4920490000000  0.4579000000000 1.0
C      1  0.4353430000000  0.4990420000000  0.5013920000000 1.0
C      1  0.5273290000000  0.5478050000000  0.5065500000000 1.0
C      1  0.4922230000000  0.5333890000000  0.4863640000000 1.0
C      1  0.4648150000000  0.4709130000000  0.4735220000000 1.0
C      1  0.5540210000000  0.4952360000000  0.5242740000000 1.0
END
