TITL C-21802-2083-2 -0.206995376684868 125000 -715.131955507687 0 0 103 (C1) n - 1
REM
REM in /rds/project/t2_vol4/rds-t2-cs072/BORA/CARBON/from-Arr/AIRSS/Generating-Clusters/GAP-ML-2020/Only-C1/SD-CG/HFTN-CG
REM
REM
REM
REM
REM
REM ./C.cell (11c1c37f851c82e70ff6c80c92926a4b)
REM AIRSS Version 0.9.1 bugfix July 2018 build 013d7b7c2542+ Fri, 06 Jul 2018 19:26:36 +0100
REM compiler GCC version 9.3.0
REM options -cpp -mtune=generic -march=x86-64 -g -O0
REM seed 1675840883 1031041592 1050818870 -613115324 1528125517 1765323671 -1587086401 314685883 1905967809 733633025 -951191660 -410886617 -86807949 2081195447 -658966420 1782945385 -1825359535 116374751 964202849 -1591312691 1580333061 -721247315 1347442634 -230550342 1743670845 645340021 -2107499135 356548366 1705199977 -720148279 -291747881 2086785041 -1152121874
REM
CELL 1.54180   50.00000   50.00000   50.00000   90.00000   90.00000   90.00000
LATT -1
SFAC C  
C      1  0.5420500000000  0.5614450000000  0.5484860000000 1.0
C      1  0.4452650000000  0.5553320000000  0.4798520000000 1.0
C      1  0.4892880000000  0.5374850000000  0.5033290000000 1.0
C      1  0.4864880000000  0.5043230000000  0.4484570000000 1.0
C      1  0.5491200000000  0.4494050000000  0.5288350000000 1.0
C      1  0.4607190000000  0.5554340000000  0.4325350000000 1.0
C      1  0.4804050000000  0.4910890000000  0.5396860000000 1.0
C      1  0.5013780000000  0.5303410000000  0.4577240000000 1.0
C      1  0.5322230000000  0.5844070000000  0.5105000000000 1.0
C      1  0.4816090000000  0.5182920000000  0.4094220000000 1.0
C      1  0.4505350000000  0.4428410000000  0.5279610000000 1.0
C      1  0.4683720000000  0.4944660000000  0.5123210000000 1.0
C      1  0.5162340000000  0.4234380000000  0.5528770000000 1.0
C      1  0.4747050000000  0.4232030000000  0.4902650000000 1.0
C      1  0.5771800000000  0.4454840000000  0.5169190000000 1.0
C      1  0.5602880000000  0.4860550000000  0.4642130000000 1.0
C      1  0.5513070000000  0.5576770000000  0.4454830000000 1.0
C      1  0.4597670000000  0.5684720000000  0.4581270000000 1.0
C      1  0.5510350000000  0.5634310000000  0.5200490000000 1.0
C      1  0.5370980000000  0.5372490000000  0.5604370000000 1.0
C      1  0.4727600000000  0.4535490000000  0.5674850000000 1.0
C      1  0.5735010000000  0.4674450000000  0.5333600000000 1.0
C      1  0.4970830000000  0.4589200000000  0.5822150000000 1.0
C      1  0.5082340000000  0.4339510000000  0.4564870000000 1.0
C      1  0.5179710000000  0.4628240000000  0.4606810000000 1.0
C      1  0.5299980000000  0.4961170000000  0.4257450000000 1.0
C      1  0.5141160000000  0.4385050000000  0.5756550000000 1.0
C      1  0.5253670000000  0.5284430000000  0.5848400000000 1.0
C      1  0.5596000000000  0.5340190000000  0.4542380000000 1.0
C      1  0.4626090000000  0.5224620000000  0.5050360000000 1.0
C      1  0.4905620000000  0.5956930000000  0.4912970000000 1.0
C      1  0.4854440000000  0.5924360000000  0.5185690000000 1.0
C      1  0.5154420000000  0.5725720000000  0.5537610000000 1.0
C      1  0.4245330000000  0.5114550000000  0.5271600000000 1.0
C      1  0.4657800000000  0.4663900000000  0.4332500000000 1.0
C      1  0.5557960000000  0.4338430000000  0.4722290000000 1.0
C      1  0.5117870000000  0.5266290000000  0.5151930000000 1.0
C      1  0.4675550000000  0.5631470000000  0.5526020000000 1.0
C      1  0.5590690000000  0.4926180000000  0.5361040000000 1.0
C      1  0.5283380000000  0.4196720000000  0.4710250000000 1.0
C      1  0.4563530000000  0.4938220000000  0.4418630000000 1.0
C      1  0.4426480000000  0.5359030000000  0.5243560000000 1.0
C      1  0.4833080000000  0.5096380000000  0.5826010000000 1.0
C      1  0.5334220000000  0.4595780000000  0.5039750000000 1.0
C      1  0.5085880000000  0.5467380000000  0.4331640000000 1.0
C      1  0.5706380000000  0.4407020000000  0.4484190000000 1.0
C      1  0.4166030000000  0.5103490000000  0.5532310000000 1.0
C      1  0.5719750000000  0.5315110000000  0.4802390000000 1.0
C      1  0.5173500000000  0.5208400000000  0.5431980000000 1.0
C      1  0.5026740000000  0.4870930000000  0.5883350000000 1.0
C      1  0.5141450000000  0.4537330000000  0.4314760000000 1.0
C      1  0.4315860000000  0.4797590000000  0.4862750000000 1.0
C      1  0.4588590000000  0.4774820000000  0.5582020000000 1.0
C      1  0.4556390000000  0.5009510000000  0.5768930000000 1.0
C      1  0.5075690000000  0.4789020000000  0.5379460000000 1.0
C      1  0.4463410000000  0.5621610000000  0.5083670000000 1.0
C      1  0.4481780000000  0.5427600000000  0.5523510000000 1.0
C      1  0.4845550000000  0.5790020000000  0.4682670000000 1.0
C      1  0.5447990000000  0.4113140000000  0.5120850000000 1.0
C      1  0.5401650000000  0.4232250000000  0.5372970000000 1.0
C      1  0.4401860000000  0.4672150000000  0.5367140000000 1.0
C      1  0.4542160000000  0.5123300000000  0.4184970000000 1.0
C      1  0.4450510000000  0.5257000000000  0.4803420000000 1.0
C      1  0.4379490000000  0.5207760000000  0.5683550000000 1.0
C      1  0.4594870000000  0.4429640000000  0.4485590000000 1.0
C      1  0.5277260000000  0.5083150000000  0.4997560000000 1.0
C      1  0.5141820000000  0.4786160000000  0.5101600000000 1.0
C      1  0.4895680000000  0.5151340000000  0.5523350000000 1.0
C      1  0.4360130000000  0.4864920000000  0.5144670000000 1.0
C      1  0.5644040000000  0.4655130000000  0.4394710000000 1.0
C      1  0.5312570000000  0.4944710000000  0.5509250000000 1.0
C      1  0.4424920000000  0.5357480000000  0.4270770000000 1.0
C      1  0.4857010000000  0.5456920000000  0.4174570000000 1.0
C      1  0.5214350000000  0.4093050000000  0.4959710000000 1.0
C      1  0.5198040000000  0.5936800000000  0.4860620000000 1.0
C      1  0.5431970000000  0.4624860000000  0.4765250000000 1.0
C      1  0.5136000000000  0.5850770000000  0.4592150000000 1.0
C      1  0.5724260000000  0.5033560000000  0.4857700000000 1.0
C      1  0.4927820000000  0.5598370000000  0.5668080000000 1.0
C      1  0.5667310000000  0.4257800000000  0.4989250000000 1.0
C      1  0.4941440000000  0.5484170000000  0.4779370000000 1.0
C      1  0.4514480000000  0.4361880000000  0.5007400000000 1.0
C      1  0.5264850000000  0.5676020000000  0.4415610000000 1.0
C      1  0.5213440000000  0.5106840000000  0.4704960000000 1.0
C      1  0.4808170000000  0.4292490000000  0.4630020000000 1.0
C      1  0.4394810000000  0.5002800000000  0.4670940000000 1.0
C      1  0.4927350000000  0.4201960000000  0.5360170000000 1.0
C      1  0.5008760000000  0.4866410000000  0.4685430000000 1.0
C      1  0.4999470000000  0.4974640000000  0.4214030000000 1.0
C      1  0.4954010000000  0.4148100000000  0.5077460000000 1.0
C      1  0.4327070000000  0.4397490000000  0.4563440000000 1.0
C      1  0.4706390000000  0.4348150000000  0.5459830000000 1.0
C      1  0.5435550000000  0.5074240000000  0.4507180000000 1.0
C      1  0.5111100000000  0.5879640000000  0.5306600000000 1.0
C      1  0.4977260000000  0.5366730000000  0.5851860000000 1.0
C      1  0.5637960000000  0.5403710000000  0.5068320000000 1.0
C      1  0.4896110000000  0.4810630000000  0.4947790000000 1.0
C      1  0.5573590000000  0.5099050000000  0.5115670000000 1.0
C      1  0.4638010000000  0.5765540000000  0.5269940000000 1.0
C      1  0.5270160000000  0.4996000000000  0.5811200000000 1.0
C      1  0.4363830000000  0.4518960000000  0.4810450000000 1.0
C      1  0.5381680000000  0.4692270000000  0.4264100000000 1.0
C      1  0.4912430000000  0.4687170000000  0.4214800000000 1.0
END
