TITL C-21683-8481-1 -0.101856713392566 125000 -664.386947909952 0 0 95 (C1) n - 1
REM
REM in /rds/project/t2_vol4/rds-t2-cs072/BORA/CARBON/from-Arr/AIRSS/Generating-Clusters/GAP-ML-2020/Only-C1/SD-CG/HFTN-CG
REM
REM
REM
REM
REM
REM ./C.cell (11c1c37f851c82e70ff6c80c92926a4b)
REM AIRSS Version 0.9.1 bugfix July 2018 build 013d7b7c2542+ Fri, 06 Jul 2018 19:26:36 +0100
REM compiler GCC version 9.3.0
REM options -cpp -mtune=generic -march=x86-64 -g -O0
REM seed 1487105316 294717098 1994075148 -933464007 -1274695202 -2139382885 -945857574 34656489 30526745 1105214373 -464880642 -214849165 -2147155176 690706443 -999832147 178681125 -1424910844 -611475054 61165249 388971472 1527092218 -449512350 -1349936014 -725097867 2043383304 -1957371235 631847118 -206127261 -64147400 1260510080 542532830 1675935429 -1510347946
REM
CELL 1.54180   50.00000   50.00000   50.00000   90.00000   90.00000   90.00000
LATT -1
SFAC C  
C      1  0.4881190000000  0.5822250000000  0.4631670000000 1.0
C      1  0.4475750000000  0.5654100000000  0.4888150000000 1.0
C      1  0.5628560000000  0.4453760000000  0.5092990000000 1.0
C      1  0.5194230000000  0.5327560000000  0.4635500000000 1.0
C      1  0.5165380000000  0.4858910000000  0.5783250000000 1.0
C      1  0.4323870000000  0.5251110000000  0.5052120000000 1.0
C      1  0.4523320000000  0.4580560000000  0.5034500000000 1.0
C      1  0.4307960000000  0.5429990000000  0.4835900000000 1.0
C      1  0.5463360000000  0.5360790000000  0.5282540000000 1.0
C      1  0.4427840000000  0.4583440000000  0.4603640000000 1.0
C      1  0.4868840000000  0.5789230000000  0.5116140000000 1.0
C      1  0.4620390000000  0.4417330000000  0.5270690000000 1.0
C      1  0.4917620000000  0.4982260000000  0.4707110000000 1.0
C      1  0.5687660000000  0.5350060000000  0.4730260000000 1.0
C      1  0.5044690000000  0.4526680000000  0.4254390000000 1.0
C      1  0.4640230000000  0.4888580000000  0.4237910000000 1.0
C      1  0.5349630000000  0.4932690000000  0.5387190000000 1.0
C      1  0.5017360000000  0.4279280000000  0.4426170000000 1.0
C      1  0.4672000000000  0.5591080000000  0.5645270000000 1.0
C      1  0.5633760000000  0.4843630000000  0.5359630000000 1.0
C      1  0.5212470000000  0.5595580000000  0.5622760000000 1.0
C      1  0.4575190000000  0.5451900000000  0.5859730000000 1.0
C      1  0.4665790000000  0.4503290000000  0.4777160000000 1.0
C      1  0.4954790000000  0.5242740000000  0.4190560000000 1.0
C      1  0.5258110000000  0.4246320000000  0.4594840000000 1.0
C      1  0.4789890000000  0.4570090000000  0.5705650000000 1.0
C      1  0.5300260000000  0.4616230000000  0.4320600000000 1.0
C      1  0.5061310000000  0.5501310000000  0.4277940000000 1.0
C      1  0.4601390000000  0.5618510000000  0.4410400000000 1.0
C      1  0.4514390000000  0.4862600000000  0.5441110000000 1.0
C      1  0.5408810000000  0.5636220000000  0.5170830000000 1.0
C      1  0.5373960000000  0.4286240000000  0.5099400000000 1.0
C      1  0.4763760000000  0.4221050000000  0.4737430000000 1.0
C      1  0.4616260000000  0.5665930000000  0.5137360000000 1.0
C      1  0.4612830000000  0.4840400000000  0.5154990000000 1.0
C      1  0.5618000000000  0.4884890000000  0.4497070000000 1.0
C      1  0.4931080000000  0.5701830000000  0.5611580000000 1.0
C      1  0.5454890000000  0.4429320000000  0.5539740000000 1.0
C      1  0.4943920000000  0.5421590000000  0.4760030000000 1.0
C      1  0.5297140000000  0.5488950000000  0.4425210000000 1.0
C      1  0.5026360000000  0.5714820000000  0.4868670000000 1.0
C      1  0.4576490000000  0.5475850000000  0.5369770000000 1.0
C      1  0.4341950000000  0.5302240000000  0.5322150000000 1.0
C      1  0.4675710000000  0.5175780000000  0.4234280000000 1.0
C      1  0.4241970000000  0.5124480000000  0.5742180000000 1.0
C      1  0.4879370000000  0.4844570000000  0.5764980000000 1.0
C      1  0.4702950000000  0.5041190000000  0.5618170000000 1.0
C      1  0.5336350000000  0.4905970000000  0.4376120000000 1.0
C      1  0.5281280000000  0.4944290000000  0.4923540000000 1.0
C      1  0.5440630000000  0.4447190000000  0.4498050000000 1.0
C      1  0.5632990000000  0.4563600000000  0.5356910000000 1.0
C      1  0.4313040000000  0.4708050000000  0.4830430000000 1.0
C      1  0.5100210000000  0.4996830000000  0.4189100000000 1.0
C      1  0.4963680000000  0.5154080000000  0.5180730000000 1.0
C      1  0.5805240000000  0.5412180000000  0.4966230000000 1.0
C      1  0.4388930000000  0.4980250000000  0.4691450000000 1.0
C      1  0.4874990000000  0.5690090000000  0.4367590000000 1.0
C      1  0.5814000000000  0.4896130000000  0.4919610000000 1.0
C      1  0.4836190000000  0.5187260000000  0.4902550000000 1.0
C      1  0.5790120000000  0.4998820000000  0.5178940000000 1.0
C      1  0.4802880000000  0.4120260000000  0.4478740000000 1.0
C      1  0.5326660000000  0.4223550000000  0.5389460000000 1.0
C      1  0.4588520000000  0.4573720000000  0.5507820000000 1.0
C      1  0.4594910000000  0.5762050000000  0.4661580000000 1.0
C      1  0.4941840000000  0.4153090000000  0.4953680000000 1.0
C      1  0.4920070000000  0.4856080000000  0.5201540000000 1.0
C      1  0.4893750000000  0.4707530000000  0.4763180000000 1.0
C      1  0.5046830000000  0.4217270000000  0.5464040000000 1.0
C      1  0.4792420000000  0.5250030000000  0.5407300000000 1.0
C      1  0.5137540000000  0.4499610000000  0.5165270000000 1.0
C      1  0.4499530000000  0.5203960000000  0.5791470000000 1.0
C      1  0.5350170000000  0.5350640000000  0.5583780000000 1.0
C      1  0.5299930000000  0.5072400000000  0.5645450000000 1.0
C      1  0.5442390000000  0.5517260000000  0.4680450000000 1.0
C      1  0.5272790000000  0.5128920000000  0.5165590000000 1.0
C      1  0.4994990000000  0.5835390000000  0.5360810000000 1.0
C      1  0.4892000000000  0.4288760000000  0.5217110000000 1.0
C      1  0.4345280000000  0.5263150000000  0.4604340000000 1.0
C      1  0.5730170000000  0.5064260000000  0.4688780000000 1.0
C      1  0.5738060000000  0.4617790000000  0.4879050000000 1.0
C      1  0.4289410000000  0.5065150000000  0.5476230000000 1.0
C      1  0.5266590000000  0.5758180000000  0.5375890000000 1.0
C      1  0.5219620000000  0.4166230000000  0.4872760000000 1.0
C      1  0.5081700000000  0.4727600000000  0.4979170000000 1.0
C      1  0.5139300000000  0.4709950000000  0.5375150000000 1.0
C      1  0.5732980000000  0.5276370000000  0.5191590000000 1.0
C      1  0.4909330000000  0.4776120000000  0.4188170000000 1.0
C      1  0.5247640000000  0.4570340000000  0.5694900000000 1.0
C      1  0.5201650000000  0.5038200000000  0.4648480000000 1.0
C      1  0.5639960000000  0.4618360000000  0.4609380000000 1.0
C      1  0.4543280000000  0.5070630000000  0.4958920000000 1.0
C      1  0.4456400000000  0.4815090000000  0.4441070000000 1.0
C      1  0.5010460000000  0.4397490000000  0.5680680000000 1.0
C      1  0.5325550000000  0.5678940000000  0.4902370000000 1.0
C      1  0.4505070000000  0.5353710000000  0.4384910000000 1.0
END
