TITL C-211922-1629-3 12.9100684803841 125000 -436.724314444678 0 0 62 (C1) n - 1
REM
REM in /rds/project/t2_vol4/rds-t2-cs072/BORA/CARBON/from-Arr/AIRSS/Generating-Clusters/GAP-ML-2020/Only-C1/SD-CG/HFTN-CG
REM
REM
REM
REM
REM
REM ./C.cell (11c1c37f851c82e70ff6c80c92926a4b)
REM AIRSS Version 0.9.1 bugfix July 2018 build 013d7b7c2542+ Fri, 06 Jul 2018 19:26:36 +0100
REM compiler GCC version 9.3.0
REM options -cpp -mtune=generic -march=x86-64 -g -O0
REM seed 603576097 983324353 676667846 -959982318 411583642 1697950486 824353509 1676860030 1540882678 -798602260 729909066 -920712763 1717228488 -322168958 -2022029507 -1629719527 1280005708 26981668 -2060013094 -152047396 102081956 1319729607 -807539372 -1468361992 1528921014 173944477 -1867396673 749169932 1956706098 1796486403 1886583691 1678826194 -583828907
REM
CELL 1.54180   50.00000   50.00000   50.00000   90.00000   90.00000   90.00000
LATT -1
SFAC C  
C      1  0.5440420000000  0.5216840000000  0.4505470000000 1.0
C      1  0.5166940000000  0.4352200000000  0.5051800000000 1.0
C      1  0.5192610000000  0.5614400000000  0.5214560000000 1.0
C      1  0.5502130000000  0.5292880000000  0.5417830000000 1.0
C      1  0.5133830000000  0.4689200000000  0.4412480000000 1.0
C      1  0.4988790000000  0.5237680000000  0.4400820000000 1.0
C      1  0.4963330000000  0.4918500000000  0.5682790000000 1.0
C      1  0.5782290000000  0.5058760000000  0.5098110000000 1.0
C      1  0.5242010000000  0.4489000000000  0.4595250000000 1.0
C      1  0.5372080000000  0.4738650000000  0.5586310000000 1.0
C      1  0.5054890000000  0.4349170000000  0.4772070000000 1.0
C      1  0.5172670000000  0.4539420000000  0.5521730000000 1.0
C      1  0.5030890000000  0.4399120000000  0.5301310000000 1.0
C      1  0.4874790000000  0.4789940000000  0.4525140000000 1.0
C      1  0.5072740000000  0.4982600000000  0.4993230000000 1.0
C      1  0.5245240000000  0.4966130000000  0.5690970000000 1.0
C      1  0.4600660000000  0.5163000000000  0.5432080000000 1.0
C      1  0.4358860000000  0.4873560000000  0.4548030000000 1.0
C      1  0.5627960000000  0.5062150000000  0.4655500000000 1.0
C      1  0.4920570000000  0.4647670000000  0.5617030000000 1.0
C      1  0.4880010000000  0.4868050000000  0.4827440000000 1.0
C      1  0.5587370000000  0.4790580000000  0.5419530000000 1.0
C      1  0.4441220000000  0.5459810000000  0.4544150000000 1.0
C      1  0.5051900000000  0.5450080000000  0.4598540000000 1.0
C      1  0.5195340000000  0.5009330000000  0.5207820000000 1.0
C      1  0.4574170000000  0.5486040000000  0.4786600000000 1.0
C      1  0.5758380000000  0.4790840000000  0.5002290000000 1.0
C      1  0.4380280000000  0.4950120000000  0.4819680000000 1.0
C      1  0.4959920000000  0.5636750000000  0.5035010000000 1.0
C      1  0.4798810000000  0.4328800000000  0.4680630000000 1.0
C      1  0.4860400000000  0.5552450000000  0.4786620000000 1.0
C      1  0.4580500000000  0.5406710000000  0.5262490000000 1.0
C      1  0.5663960000000  0.5066710000000  0.5356020000000 1.0
C      1  0.4550090000000  0.4660200000000  0.5311290000000 1.0
C      1  0.5014080000000  0.5569570000000  0.5439380000000 1.0
C      1  0.5471250000000  0.4546750000000  0.4747970000000 1.0
C      1  0.4198650000000  0.5021300000000  0.5246020000000 1.0
C      1  0.5043410000000  0.5355180000000  0.5605680000000 1.0
C      1  0.4772430000000  0.5041090000000  0.4396210000000 1.0
C      1  0.5621420000000  0.4621850000000  0.5185160000000 1.0
C      1  0.4378070000000  0.5334250000000  0.4330100000000 1.0
C      1  0.5698030000000  0.5225810000000  0.4884660000000 1.0
C      1  0.4767220000000  0.4510300000000  0.5407600000000 1.0
C      1  0.4494040000000  0.5074050000000  0.4377660000000 1.0
C      1  0.4270090000000  0.5141450000000  0.4999870000000 1.0
C      1  0.5647680000000  0.4781050000000  0.4741440000000 1.0
C      1  0.5262750000000  0.4852460000000  0.4233370000000 1.0
C      1  0.4648410000000  0.4916770000000  0.5221860000000 1.0
C      1  0.4791020000000  0.5582720000000  0.5261730000000 1.0
C      1  0.5437310000000  0.4457080000000  0.5023350000000 1.0
C      1  0.5336100000000  0.5424550000000  0.4670010000000 1.0
C      1  0.5238970000000  0.5112360000000  0.4331010000000 1.0
C      1  0.5434990000000  0.5479460000000  0.5193670000000 1.0
C      1  0.5509420000000  0.5434520000000  0.4917850000000 1.0
C      1  0.4447950000000  0.5373390000000  0.5019820000000 1.0
C      1  0.4831050000000  0.5157850000000  0.5616470000000 1.0
C      1  0.4304950000000  0.4781460000000  0.5382770000000 1.0
C      1  0.4318380000000  0.5055380000000  0.5490960000000 1.0
C      1  0.4680600000000  0.4546970000000  0.4556550000000 1.0
C      1  0.4418930000000  0.4608630000000  0.4505910000000 1.0
C      1  0.5303200000000  0.5233290000000  0.5616920000000 1.0
C      1  0.4633520000000  0.4923100000000  0.4935460000000 1.0
END
