TITL C-21788-4460-1 94.054696812504 125000 -693.611579523297 0 0 100 (C1) n - 1
REM
REM in /rds/project/t2_vol4/rds-t2-cs072/BORA/CARBON/from-Arr/AIRSS/Generating-Clusters/GAP-ML-2020/Only-C1/SD-CG/HFTN-CG
REM
REM
REM
REM
REM
REM ./C.cell (11c1c37f851c82e70ff6c80c92926a4b)
REM AIRSS Version 0.9.1 bugfix July 2018 build 013d7b7c2542+ Fri, 06 Jul 2018 19:26:36 +0100
REM compiler GCC version 9.3.0
REM options -cpp -mtune=generic -march=x86-64 -g -O0
REM seed -1652724281 617177386 -724671914 694590520 708815684 81216635 1966702807 -1751438392 -1239905059 1129754465 -1619547993 1157873335 31025086 -119883975 -993860293 1108641756 -1398630902 -414271951 2025929620 1203924652 -521631295 -827812827 147003343 -31847378 1001195335 1967323961 244171389 -405526259 214731552 303160838 1762453962 311964862 -1270488194
REM
CELL 1.54180   50.00000   50.00000   50.00000   90.00000   90.00000   90.00000
LATT -1
SFAC C  
C      1  0.5556490000000  0.5526310000000  0.4890600000000 1.0
C      1  0.5231040000000  0.4370190000000  0.4939450000000 1.0
C      1  0.4674070000000  0.4733680000000  0.4896170000000 1.0
C      1  0.4618020000000  0.5368690000000  0.5051570000000 1.0
C      1  0.4234050000000  0.5608760000000  0.4797700000000 1.0
C      1  0.4885970000000  0.4936560000000  0.4772000000000 1.0
C      1  0.4269130000000  0.4642230000000  0.5090350000000 1.0
C      1  0.4533830000000  0.5387030000000  0.5639520000000 1.0
C      1  0.4417870000000  0.5495820000000  0.5243960000000 1.0
C      1  0.4828220000000  0.4750580000000  0.5829080000000 1.0
C      1  0.4598750000000  0.4310310000000  0.5167840000000 1.0
C      1  0.5380320000000  0.4380870000000  0.4452020000000 1.0
C      1  0.5278110000000  0.4339530000000  0.5431560000000 1.0
C      1  0.5884110000000  0.4853740000000  0.4655810000000 1.0
C      1  0.4795770000000  0.4678470000000  0.4206620000000 1.0
C      1  0.4902990000000  0.5203350000000  0.5956160000000 1.0
C      1  0.5802880000000  0.4525870000000  0.5002600000000 1.0
C      1  0.4904080000000  0.5632720000000  0.5420210000000 1.0
C      1  0.5196680000000  0.5742250000000  0.4868250000000 1.0
C      1  0.4333410000000  0.5381830000000  0.4658240000000 1.0
C      1  0.4964830000000  0.4909970000000  0.4174770000000 1.0
C      1  0.5530230000000  0.5629210000000  0.5156240000000 1.0
C      1  0.5376740000000  0.4874650000000  0.4789320000000 1.0
C      1  0.5093210000000  0.5389030000000  0.5389750000000 1.0
C      1  0.4944480000000  0.4681060000000  0.5222170000000 1.0
C      1  0.5176550000000  0.5280810000000  0.4618470000000 1.0
C      1  0.4266770000000  0.5004270000000  0.5437930000000 1.0
C      1  0.5130190000000  0.4915940000000  0.5444320000000 1.0
C      1  0.4361400000000  0.4691390000000  0.4779940000000 1.0
C      1  0.4698260000000  0.5123600000000  0.4651080000000 1.0
C      1  0.4475310000000  0.5212590000000  0.4856480000000 1.0
C      1  0.4712460000000  0.5188890000000  0.5739080000000 1.0
C      1  0.4201870000000  0.4899880000000  0.5179470000000 1.0
C      1  0.5892010000000  0.4773710000000  0.5118990000000 1.0
C      1  0.4951180000000  0.4450150000000  0.4274380000000 1.0
C      1  0.5155990000000  0.4859320000000  0.5163140000000 1.0
C      1  0.4723620000000  0.5646450000000  0.4221070000000 1.0
C      1  0.4286030000000  0.5121780000000  0.4495180000000 1.0
C      1  0.5000560000000  0.5088390000000  0.5025980000000 1.0
C      1  0.5379260000000  0.4257640000000  0.5164790000000 1.0
C      1  0.5640970000000  0.4380480000000  0.5189200000000 1.0
C      1  0.5541730000000  0.4484080000000  0.5441580000000 1.0
C      1  0.4626820000000  0.5588860000000  0.5462130000000 1.0
C      1  0.4551180000000  0.5032240000000  0.4388190000000 1.0
C      1  0.4713510000000  0.4418680000000  0.4913860000000 1.0
C      1  0.5761280000000  0.4913020000000  0.5333290000000 1.0
C      1  0.5737140000000  0.5366570000000  0.4760330000000 1.0
C      1  0.4510140000000  0.5628920000000  0.4644480000000 1.0
C      1  0.5218410000000  0.4529380000000  0.4270670000000 1.0
C      1  0.4478300000000  0.4545140000000  0.4542930000000 1.0
C      1  0.5289620000000  0.5782560000000  0.5140960000000 1.0
C      1  0.4406730000000  0.4820090000000  0.5612520000000 1.0
C      1  0.5351230000000  0.4853510000000  0.5628560000000 1.0
C      1  0.5290540000000  0.5007810000000  0.5854690000000 1.0
C      1  0.4604600000000  0.4922190000000  0.5779600000000 1.0
C      1  0.4986500000000  0.4333930000000  0.5527020000000 1.0
C      1  0.4748500000000  0.5562370000000  0.4825330000000 1.0
C      1  0.5742080000000  0.5195310000000  0.5248660000000 1.0
C      1  0.5237900000000  0.4822480000000  0.4316430000000 1.0
C      1  0.5794950000000  0.4585920000000  0.4704540000000 1.0
C      1  0.4924330000000  0.5774090000000  0.4935680000000 1.0
C      1  0.4407560000000  0.4469820000000  0.5283190000000 1.0
C      1  0.4556720000000  0.4733410000000  0.4342000000000 1.0
C      1  0.4790430000000  0.4515920000000  0.5663780000000 1.0
C      1  0.5190700000000  0.4286260000000  0.4648890000000 1.0
C      1  0.5844540000000  0.5211730000000  0.4976010000000 1.0
C      1  0.5644910000000  0.5264900000000  0.4501810000000 1.0
C      1  0.5194590000000  0.5433350000000  0.4239970000000 1.0
C      1  0.5139880000000  0.5329570000000  0.5084440000000 1.0
C      1  0.5608050000000  0.4548730000000  0.4486680000000 1.0
C      1  0.4699670000000  0.4826680000000  0.5172180000000 1.0
C      1  0.4877060000000  0.5364500000000  0.4605780000000 1.0
C      1  0.4232370000000  0.5056870000000  0.4946300000000 1.0
C      1  0.5589530000000  0.4755170000000  0.5507800000000 1.0
C      1  0.5945140000000  0.4961420000000  0.4907160000000 1.0
C      1  0.4923180000000  0.4305130000000  0.4515070000000 1.0
C      1  0.4672850000000  0.4349480000000  0.4636130000000 1.0
C      1  0.5360720000000  0.5407920000000  0.5530100000000 1.0
C      1  0.5082640000000  0.5406330000000  0.5895710000000 1.0
C      1  0.4969780000000  0.4404260000000  0.5064220000000 1.0
C      1  0.5382140000000  0.5353250000000  0.4406240000000 1.0
C      1  0.4898450000000  0.5413730000000  0.4279680000000 1.0
C      1  0.5275140000000  0.5448530000000  0.4851040000000 1.0
C      1  0.4509190000000  0.4563320000000  0.5539850000000 1.0
C      1  0.5549520000000  0.4802690000000  0.4349780000000 1.0
C      1  0.5012850000000  0.5799160000000  0.5216340000000 1.0
C      1  0.5158540000000  0.4956460000000  0.4630140000000 1.0
C      1  0.4334910000000  0.5280670000000  0.5461710000000 1.0
C      1  0.4216070000000  0.4927470000000  0.4697040000000 1.0
C      1  0.5332620000000  0.4712310000000  0.4991830000000 1.0
C      1  0.5313230000000  0.5308960000000  0.5795060000000 1.0
C      1  0.4935080000000  0.5144110000000  0.5466680000000 1.0
C      1  0.4767720000000  0.5114500000000  0.5207380000000 1.0
C      1  0.4562370000000  0.5750910000000  0.4387990000000 1.0
C      1  0.4232310000000  0.5639320000000  0.5062280000000 1.0
C      1  0.5580550000000  0.5419030000000  0.5349190000000 1.0
C      1  0.5027680000000  0.4941450000000  0.5939240000000 1.0
C      1  0.4852410000000  0.4248650000000  0.5286670000000 1.0
C      1  0.5725430000000  0.4997340000000  0.4455290000000 1.0
C      1  0.4800260000000  0.5131560000000  0.4226410000000 1.0
END
