TITL C-214935-2162-2 -21.378735301904 125000 -100.418751418004 0 0 16 (C1) n - 1
REM
REM in /rds/project/t2_vol4/rds-t2-cs072/BORA/CARBON/from-Arr/AIRSS/Generating-Clusters/GAP-ML-2020/Only-C1/SD-CG/HFTN-CG
REM
REM
REM
REM
REM
REM ./C.cell (11c1c37f851c82e70ff6c80c92926a4b)
REM AIRSS Version 0.9.1 bugfix July 2018 build 013d7b7c2542+ Fri, 06 Jul 2018 19:26:36 +0100
REM compiler GCC version 9.3.0
REM options -cpp -mtune=generic -march=x86-64 -g -O0
REM seed 323953848 -852805667 1423555192 -1812319274 1008210883 -464053529 920042841 -1691507816 1362375785 -147160651 -380863276 -1150604153 -323212539 830274675 -94344692 1753542670 -1396319836 -1395488445 -437631499 -394727018 -406357326 2004581898 -313895530 -849049671 -176780006 680917476 1517176673 -2100035035 -928428015 -96316004 -142048974 -433946545 1345007925
REM
CELL 1.54180   50.00000   50.00000   50.00000   90.00000   90.00000   90.00000
LATT -1
SFAC C  
C      1  0.5265930000000  0.5029620000000  0.4724150000000 1.0
C      1  0.4616440000000  0.4856060000000  0.5018690000000 1.0
C      1  0.4990810000000  0.4506510000000  0.4903420000000 1.0
C      1  0.5237250000000  0.4651940000000  0.4988450000000 1.0
C      1  0.5306220000000  0.4643000000000  0.5260790000000 1.0
C      1  0.4737960000000  0.5089930000000  0.5013860000000 1.0
C      1  0.5133080000000  0.4731610000000  0.5420000000000 1.0
C      1  0.4859270000000  0.5290200000000  0.4887480000000 1.0
C      1  0.5180680000000  0.5518650000000  0.4621470000000 1.0
C      1  0.4916320000000  0.4815280000000  0.5527370000000 1.0
C      1  0.4796280000000  0.5575610000000  0.4860950000000 1.0
C      1  0.5368130000000  0.4813090000000  0.4801340000000 1.0
C      1  0.4987950000000  0.5676680000000  0.4710870000000 1.0
C      1  0.4806740000000  0.4670280000000  0.4983980000000 1.0
C      1  0.4666980000000  0.4870810000000  0.5548460000000 1.0
C      1  0.5129950000000  0.5260720000000  0.4728720000000 1.0
END
