TITL C-211892-555-6 -96.7503359056611 125000 -518.751318747919 0 0 76 (C1) n - 1
REM
REM in /rds/project/t2_vol4/rds-t2-cs072/BORA/CARBON/from-Arr/AIRSS/Generating-Clusters/GAP-ML-2020/Only-C1/SD-CG/HFTN-CG
REM
REM
REM
REM
REM
REM ./C.cell (11c1c37f851c82e70ff6c80c92926a4b)
REM AIRSS Version 0.9.1 bugfix July 2018 build 013d7b7c2542+ Fri, 06 Jul 2018 19:26:36 +0100
REM compiler GCC version 9.3.0
REM options -cpp -mtune=generic -march=x86-64 -g -O0
REM seed -1451883510 1040388814 -673778730 239451963 -691438397 -672093879 -1234044447 -795353652 1502268675 -1315012463 -142084897 1178581311 1572972940 1673859988 -2099149491 -656623490 -1318370722 -2137556395 -876396395 -250344628 -1173190487 1584423107 54492283 -1258826666 40227559 -638511228 1014608464 -247522434 -1566169331 248805317 1628669847 -208625282 -916378084
REM
CELL 1.54180   50.00000   50.00000   50.00000   90.00000   90.00000   90.00000
LATT -1
SFAC C  
C      1  0.4912590000000  0.5244030000000  0.5110400000000 1.0
C      1  0.4657560000000  0.4678030000000  0.4657790000000 1.0
C      1  0.4834760000000  0.4296840000000  0.4925690000000 1.0
C      1  0.5498080000000  0.4601150000000  0.5249870000000 1.0
C      1  0.5664940000000  0.4715030000000  0.5042690000000 1.0
C      1  0.5323400000000  0.5386190000000  0.5411800000000 1.0
C      1  0.4457230000000  0.5314140000000  0.5544690000000 1.0
C      1  0.5210360000000  0.4723780000000  0.4098490000000 1.0
C      1  0.5404650000000  0.5248810000000  0.4356880000000 1.0
C      1  0.4674550000000  0.5463400000000  0.5663520000000 1.0
C      1  0.4843330000000  0.5043200000000  0.5580180000000 1.0
C      1  0.5666650000000  0.4926010000000  0.4590330000000 1.0
C      1  0.4420560000000  0.4764180000000  0.5449820000000 1.0
C      1  0.4758510000000  0.5009850000000  0.5016860000000 1.0
C      1  0.5042850000000  0.5210710000000  0.4643340000000 1.0
C      1  0.4499820000000  0.4407240000000  0.4591410000000 1.0
C      1  0.5436670000000  0.5613210000000  0.4996270000000 1.0
C      1  0.5110920000000  0.4758980000000  0.4780090000000 1.0
C      1  0.4525210000000  0.5033240000000  0.5195170000000 1.0
C      1  0.4556070000000  0.5041240000000  0.5481720000000 1.0
C      1  0.4404840000000  0.5528990000000  0.5072020000000 1.0
C      1  0.4931540000000  0.4649080000000  0.4537720000000 1.0
C      1  0.5644510000000  0.5171580000000  0.4992380000000 1.0
C      1  0.4902440000000  0.4746130000000  0.5043220000000 1.0
C      1  0.4403810000000  0.5530520000000  0.5348460000000 1.0
C      1  0.5694140000000  0.5184350000000  0.4714420000000 1.0
C      1  0.5523400000000  0.5369610000000  0.4582740000000 1.0
C      1  0.5242340000000  0.4443930000000  0.5237930000000 1.0
C      1  0.4600730000000  0.4972710000000  0.4717500000000 1.0
C      1  0.5217780000000  0.4260470000000  0.5484150000000 1.0
C      1  0.4906190000000  0.5534720000000  0.4980830000000 1.0
C      1  0.5122210000000  0.4308320000000  0.4991460000000 1.0
C      1  0.4630150000000  0.5623670000000  0.4911810000000 1.0
C      1  0.5339920000000  0.5110450000000  0.5009950000000 1.0
C      1  0.5525740000000  0.4981660000000  0.4339550000000 1.0
C      1  0.5449680000000  0.4809830000000  0.4127050000000 1.0
C      1  0.5559910000000  0.5234190000000  0.5531690000000 1.0
C      1  0.4699710000000  0.4555440000000  0.4953730000000 1.0
C      1  0.4693460000000  0.5428890000000  0.4467480000000 1.0
C      1  0.5000780000000  0.4792200000000  0.4278960000000 1.0
C      1  0.5371650000000  0.5143290000000  0.5741330000000 1.0
C      1  0.5023060000000  0.5707600000000  0.5202220000000 1.0
C      1  0.5311480000000  0.5631100000000  0.5233760000000 1.0
C      1  0.4394650000000  0.4530720000000  0.5011930000000 1.0
C      1  0.4835450000000  0.5821150000000  0.5366640000000 1.0
C      1  0.5612310000000  0.4694810000000  0.4763100000000 1.0
C      1  0.4984080000000  0.4354010000000  0.4569650000000 1.0
C      1  0.5217390000000  0.5024720000000  0.4770620000000 1.0
C      1  0.5231250000000  0.4324860000000  0.4729180000000 1.0
C      1  0.4752120000000  0.4227490000000  0.4653470000000 1.0
C      1  0.5012820000000  0.4658340000000  0.5312070000000 1.0
C      1  0.4628000000000  0.5692010000000  0.5480940000000 1.0
C      1  0.4299020000000  0.4410310000000  0.4775340000000 1.0
C      1  0.4523580000000  0.5527270000000  0.4659420000000 1.0
C      1  0.5368760000000  0.5550410000000  0.4739950000000 1.0
C      1  0.5522820000000  0.4774870000000  0.5482100000000 1.0
C      1  0.5684180000000  0.4999580000000  0.5419700000000 1.0
C      1  0.5181990000000  0.5349300000000  0.5682630000000 1.0
C      1  0.5303350000000  0.4886220000000  0.5634130000000 1.0
C      1  0.4905360000000  0.5295290000000  0.5682570000000 1.0
C      1  0.5762470000000  0.4969220000000  0.5148480000000 1.0
C      1  0.4576700000000  0.4565910000000  0.5546000000000 1.0
C      1  0.5078670000000  0.4916090000000  0.5448540000000 1.0
C      1  0.4755200000000  0.5143110000000  0.4523630000000 1.0
C      1  0.4834870000000  0.4496850000000  0.5513920000000 1.0
C      1  0.5359340000000  0.4577440000000  0.4716200000000 1.0
C      1  0.5076430000000  0.5513080000000  0.4705770000000 1.0
C      1  0.5116790000000  0.5284540000000  0.4328300000000 1.0
C      1  0.4330840000000  0.5091370000000  0.4805030000000 1.0
C      1  0.5169840000000  0.5156140000000  0.5236610000000 1.0
C      1  0.4284360000000  0.4730980000000  0.5187420000000 1.0
C      1  0.4996270000000  0.4282280000000  0.5610700000000 1.0
C      1  0.4966800000000  0.5530920000000  0.4423060000000 1.0
C      1  0.4273760000000  0.4986270000000  0.5068130000000 1.0
C      1  0.4926480000000  0.5061930000000  0.4292260000000 1.0
C      1  0.4335850000000  0.5374510000000  0.4825100000000 1.0
END
