TITL C-211908-510-2 0.00336451567375975 125000 -278.495876670366 0 0 42 (C1) n - 1
REM
REM in /rds/project/t2_vol4/rds-t2-cs072/BORA/CARBON/from-Arr/AIRSS/Generating-Clusters/GAP-ML-2020/Only-C1/SD-CG/HFTN-CG
REM
REM
REM
REM
REM
REM ./C.cell (11c1c37f851c82e70ff6c80c92926a4b)
REM AIRSS Version 0.9.1 bugfix July 2018 build 013d7b7c2542+ Fri, 06 Jul 2018 19:26:36 +0100
REM compiler GCC version 9.3.0
REM options -cpp -mtune=generic -march=x86-64 -g -O0
REM seed -1145147532 71102608 1931071990 688834221 2086097619 -1599513874 -1395762431 2022100405 2078826791 1492353903 -1321325541 585120435 -84029493 1248153185 -830427771 177199449 2084314848 29630067 46109425 1424846909 -1742554767 -1201712823 480590889 2003790904 -1396755001 -577167384 -1522495411 157179523 2042889378 349629928 -1104309413 -657367497 -1602411715
REM
CELL 1.54180   50.00000   50.00000   50.00000   90.00000   90.00000   90.00000
LATT -1
SFAC C  
C      1  0.5388600000000  0.4833880000000  0.4555640000000 1.0
C      1  0.5437280000000  0.5283980000000  0.5602620000000 1.0
C      1  0.4903440000000  0.5155730000000  0.4876720000000 1.0
C      1  0.5392250000000  0.4707060000000  0.4813760000000 1.0
C      1  0.5126390000000  0.5245690000000  0.4704760000000 1.0
C      1  0.4781650000000  0.4408230000000  0.5112700000000 1.0
C      1  0.4415080000000  0.5316150000000  0.4757480000000 1.0
C      1  0.4455270000000  0.4579630000000  0.4901570000000 1.0
C      1  0.4483070000000  0.4850000000000  0.4777990000000 1.0
C      1  0.4671990000000  0.5379950000000  0.4810630000000 1.0
C      1  0.5095180000000  0.4672490000000  0.5358490000000 1.0
C      1  0.5570800000000  0.5566730000000  0.5173920000000 1.0
C      1  0.4977830000000  0.4755080000000  0.4239700000000 1.0
C      1  0.4882860000000  0.4848480000000  0.5412680000000 1.0
C      1  0.5270740000000  0.5062910000000  0.5520000000000 1.0
C      1  0.5151100000000  0.4572910000000  0.4872740000000 1.0
C      1  0.4787600000000  0.4721880000000  0.4444100000000 1.0
C      1  0.4787190000000  0.4884210000000  0.4896130000000 1.0
C      1  0.5200440000000  0.4860210000000  0.4352680000000 1.0
C      1  0.5290550000000  0.5194630000000  0.5240110000000 1.0
C      1  0.5535500000000  0.4852360000000  0.5021900000000 1.0
C      1  0.5436770000000  0.5442440000000  0.5378820000000 1.0
C      1  0.4869670000000  0.5297990000000  0.5405960000000 1.0
C      1  0.5272810000000  0.5091610000000  0.4521890000000 1.0
C      1  0.5560750000000  0.4743310000000  0.5280520000000 1.0
C      1  0.5029890000000  0.5284510000000  0.5155050000000 1.0
C      1  0.5489740000000  0.5424220000000  0.4946940000000 1.0
C      1  0.4558350000000  0.4582550000000  0.5171210000000 1.0
C      1  0.4539240000000  0.4831470000000  0.4498240000000 1.0
C      1  0.4517100000000  0.5100990000000  0.5174920000000 1.0
C      1  0.4677980000000  0.4853520000000  0.5202040000000 1.0
C      1  0.5047230000000  0.4509100000000  0.5135400000000 1.0
C      1  0.5348060000000  0.4782530000000  0.5449670000000 1.0
C      1  0.5230120000000  0.5486720000000  0.4831470000000 1.0
C      1  0.4723850000000  0.5541770000000  0.5028990000000 1.0
C      1  0.4694960000000  0.4432600000000  0.4846200000000 1.0
C      1  0.4391610000000  0.5093410000000  0.4912060000000 1.0
C      1  0.4891020000000  0.4637510000000  0.4734300000000 1.0
C      1  0.4969670000000  0.5075540000000  0.5549290000000 1.0
C      1  0.4636040000000  0.5347150000000  0.5261860000000 1.0
C      1  0.5493710000000  0.5136290000000  0.5041660000000 1.0
C      1  0.5016610000000  0.5552580000000  0.5027230000000 1.0
END
