TITL C-21795-4724-7 -2.27622812363516 125000 -557.487249192116 0 0 80 (C1) n - 1
REM
REM in /rds/project/t2_vol4/rds-t2-cs072/BORA/CARBON/from-Arr/AIRSS/Generating-Clusters/GAP-ML-2020/Only-C1/SD-CG/HFTN-CG
REM
REM
REM
REM
REM
REM ./C.cell (11c1c37f851c82e70ff6c80c92926a4b)
REM AIRSS Version 0.9.1 bugfix July 2018 build 013d7b7c2542+ Fri, 06 Jul 2018 19:26:36 +0100
REM compiler GCC version 9.3.0
REM options -cpp -mtune=generic -march=x86-64 -g -O0
REM seed 1290829617 1437704846 1012517714 -912762222 -1286619448 -1225813999 1507632050 -233588319 -971861565 973286791 1003545684 -2140095533 1976764200 -633025105 -221019227 275698909 -1856086922 -752945876 -973396505 316550808 1395007752 -233905241 -105940304 -813231705 -1112364372 -281930421 -640605134 -489274834 -752650926 -2030365714 2120284350 572440402 -1189527765
REM
CELL 1.54180   50.00000   50.00000   50.00000   90.00000   90.00000   90.00000
LATT -1
SFAC C  
C      1  0.4294710000000  0.4980660000000  0.4842350000000 1.0
C      1  0.5072770000000  0.5307550000000  0.5056090000000 1.0
C      1  0.4587020000000  0.5647980000000  0.4884420000000 1.0
C      1  0.5469170000000  0.4464500000000  0.5043240000000 1.0
C      1  0.5275910000000  0.5442710000000  0.5750610000000 1.0
C      1  0.5217800000000  0.4558480000000  0.5448360000000 1.0
C      1  0.5724940000000  0.4986030000000  0.4593000000000 1.0
C      1  0.5133170000000  0.5283790000000  0.5355000000000 1.0
C      1  0.5060420000000  0.5091020000000  0.4152210000000 1.0
C      1  0.5256800000000  0.5170540000000  0.5811450000000 1.0
C      1  0.5233710000000  0.4696390000000  0.5712260000000 1.0
C      1  0.4484340000000  0.4521450000000  0.5373750000000 1.0
C      1  0.5418820000000  0.4923630000000  0.4211750000000 1.0
C      1  0.5318300000000  0.5047800000000  0.5293430000000 1.0
C      1  0.5785870000000  0.5181040000000  0.4797960000000 1.0
C      1  0.5253610000000  0.5737270000000  0.4890730000000 1.0
C      1  0.5665400000000  0.4739160000000  0.5366140000000 1.0
C      1  0.5699360000000  0.4704200000000  0.4660230000000 1.0
C      1  0.5158890000000  0.4812120000000  0.5279160000000 1.0
C      1  0.5175290000000  0.5531810000000  0.5519900000000 1.0
C      1  0.4887210000000  0.4460490000000  0.4292330000000 1.0
C      1  0.4632990000000  0.5449130000000  0.4525600000000 1.0
C      1  0.4799240000000  0.5648990000000  0.4671030000000 1.0
C      1  0.5238310000000  0.4946670000000  0.4803130000000 1.0
C      1  0.5378350000000  0.4646510000000  0.4299610000000 1.0
C      1  0.4738970000000  0.4690110000000  0.5705170000000 1.0
C      1  0.4482070000000  0.5187780000000  0.5656000000000 1.0
C      1  0.5551250000000  0.5097560000000  0.4402160000000 1.0
C      1  0.4754810000000  0.4265330000000  0.4457640000000 1.0
C      1  0.5795510000000  0.4807190000000  0.5120340000000 1.0
C      1  0.4287050000000  0.5270370000000  0.4887570000000 1.0
C      1  0.5475750000000  0.4528220000000  0.5317830000000 1.0
C      1  0.4633590000000  0.4417080000000  0.4657480000000 1.0
C      1  0.4807630000000  0.5212280000000  0.4990940000000 1.0
C      1  0.4969250000000  0.4399860000000  0.5353740000000 1.0
C      1  0.4998490000000  0.5067170000000  0.5767690000000 1.0
C      1  0.4213930000000  0.5194220000000  0.5353390000000 1.0
C      1  0.4799980000000  0.4980000000000  0.4242180000000 1.0
C      1  0.5529090000000  0.5656350000000  0.4853480000000 1.0
C      1  0.4673620000000  0.4402930000000  0.4943930000000 1.0
C      1  0.4889470000000  0.5175340000000  0.5487660000000 1.0
C      1  0.4498880000000  0.4912860000000  0.4665810000000 1.0
C      1  0.5273580000000  0.5032740000000  0.3987970000000 1.0
C      1  0.4460490000000  0.4536660000000  0.5095560000000 1.0
C      1  0.5099930000000  0.5779690000000  0.5122840000000 1.0
C      1  0.4224140000000  0.5267400000000  0.5623230000000 1.0
C      1  0.5686260000000  0.4622390000000  0.4927110000000 1.0
C      1  0.5477220000000  0.5364450000000  0.4483300000000 1.0
C      1  0.4694450000000  0.5368120000000  0.5563110000000 1.0
C      1  0.5287460000000  0.4392910000000  0.4628760000000 1.0
C      1  0.4280360000000  0.4788030000000  0.5051140000000 1.0
C      1  0.5633010000000  0.5438570000000  0.4718610000000 1.0
C      1  0.5406020000000  0.4932970000000  0.5727620000000 1.0
C      1  0.4553930000000  0.4679290000000  0.4524270000000 1.0
C      1  0.4984080000000  0.4854350000000  0.4820700000000 1.0
C      1  0.4927600000000  0.4826440000000  0.5121760000000 1.0
C      1  0.4217260000000  0.4906540000000  0.5298550000000 1.0
C      1  0.4736080000000  0.4478980000000  0.5501230000000 1.0
C      1  0.4435860000000  0.5450450000000  0.4730060000000 1.0
C      1  0.4519070000000  0.5587630000000  0.5161850000000 1.0
C      1  0.4703560000000  0.5594110000000  0.5382100000000 1.0
C      1  0.4783510000000  0.5202600000000  0.4454420000000 1.0
C      1  0.5034600000000  0.5309280000000  0.4334740000000 1.0
C      1  0.5514420000000  0.4549390000000  0.4527880000000 1.0
C      1  0.4983090000000  0.5707610000000  0.5360690000000 1.0
C      1  0.5084880000000  0.5658090000000  0.4654460000000 1.0
C      1  0.5852110000000  0.5066640000000  0.5039400000000 1.0
C      1  0.4777300000000  0.5037690000000  0.5220190000000 1.0
C      1  0.4522220000000  0.4880690000000  0.5668070000000 1.0
C      1  0.5211200000000  0.5477610000000  0.4461910000000 1.0
C      1  0.4350590000000  0.4747240000000  0.5491170000000 1.0
C      1  0.5221050000000  0.4374580000000  0.4912060000000 1.0
C      1  0.4982210000000  0.4786750000000  0.5804150000000 1.0
C      1  0.4774140000000  0.5050400000000  0.4728830000000 1.0
C      1  0.4308110000000  0.5375600000000  0.5148610000000 1.0
C      1  0.5157930000000  0.4469280000000  0.4372130000000 1.0
C      1  0.5294060000000  0.5125530000000  0.4997870000000 1.0
C      1  0.4724680000000  0.4715600000000  0.4303810000000 1.0
C      1  0.4953280000000  0.4357020000000  0.5065910000000 1.0
C      1  0.5548490000000  0.4962090000000  0.5487150000000 1.0
END
