TITL C-21920-2460-12 -0.254540180380862 125000 -484.854463777661 0 0 69 (C1) n - 1
REM
REM in /rds/project/t2_vol4/rds-t2-cs072/BORA/CARBON/from-Arr/AIRSS/Generating-Clusters/GAP-ML-2020/Only-C1/SD-CG/HFTN-CG
REM
REM
REM
REM
REM
REM ./C.cell (11c1c37f851c82e70ff6c80c92926a4b)
REM AIRSS Version 0.9.1 bugfix July 2018 build 013d7b7c2542+ Fri, 06 Jul 2018 19:26:36 +0100
REM compiler GCC version 9.3.0
REM options -cpp -mtune=generic -march=x86-64 -g -O0
REM seed 1711946839 -1026574023 -1554821403 -909779088 1216578542 699414190 -161060092 911048758 175590028 419445904 1069851161 548676704 -966965826 793122443 -25684641 195972274 645741308 1676075725 2054943254 -1732041115 -73847323 -631660490 -1789979267 1295833485 297036247 -440490914 1822196063 418383481 -1083660485 363909165 892722032 626082808 1931542428
REM
CELL 1.54180   50.00000   50.00000   50.00000   90.00000   90.00000   90.00000
LATT -1
SFAC C  
C      1  0.5047900000000  0.5623630000000  0.4729880000000 1.0
C      1  0.5387910000000  0.5534340000000  0.5186700000000 1.0
C      1  0.4907030000000  0.5046970000000  0.4778210000000 1.0
C      1  0.5053930000000  0.4685960000000  0.5027700000000 1.0
C      1  0.5273270000000  0.5427260000000  0.4724670000000 1.0
C      1  0.5750540000000  0.5045500000000  0.5158720000000 1.0
C      1  0.5517140000000  0.4580300000000  0.5191000000000 1.0
C      1  0.5271820000000  0.4413690000000  0.4624900000000 1.0
C      1  0.5110260000000  0.5603600000000  0.5233140000000 1.0
C      1  0.4821470000000  0.5595860000000  0.4555270000000 1.0
C      1  0.5474240000000  0.5370920000000  0.5405960000000 1.0
C      1  0.4772640000000  0.5083430000000  0.5696580000000 1.0
C      1  0.5449090000000  0.4911650000000  0.5527450000000 1.0
C      1  0.5646150000000  0.5161840000000  0.4609870000000 1.0
C      1  0.4410760000000  0.5384190000000  0.4676720000000 1.0
C      1  0.4770700000000  0.4532350000000  0.4607930000000 1.0
C      1  0.4981520000000  0.4385080000000  0.5029130000000 1.0
C      1  0.4590030000000  0.5608710000000  0.4715530000000 1.0
C      1  0.4966940000000  0.4913150000000  0.5198200000000 1.0
C      1  0.4302640000000  0.4622990000000  0.4952920000000 1.0
C      1  0.4506470000000  0.5360940000000  0.5400760000000 1.0
C      1  0.5372270000000  0.4643300000000  0.5432770000000 1.0
C      1  0.5116360000000  0.4809560000000  0.4779890000000 1.0
C      1  0.5076850000000  0.5248970000000  0.4887560000000 1.0
C      1  0.5265840000000  0.5075460000000  0.5680370000000 1.0
C      1  0.5701670000000  0.5315010000000  0.4859790000000 1.0
C      1  0.4532030000000  0.5230940000000  0.4451220000000 1.0
C      1  0.5391300000000  0.5251390000000  0.4507000000000 1.0
C      1  0.5031310000000  0.4968880000000  0.5760470000000 1.0
C      1  0.5472820000000  0.4377600000000  0.4990720000000 1.0
C      1  0.4835910000000  0.4947480000000  0.4242240000000 1.0
C      1  0.4524010000000  0.4456270000000  0.5044600000000 1.0
C      1  0.4322900000000  0.5140720000000  0.5379750000000 1.0
C      1  0.4585110000000  0.4946960000000  0.4372560000000 1.0
C      1  0.5543760000000  0.4476140000000  0.4720260000000 1.0
C      1  0.4957620000000  0.4700240000000  0.5688730000000 1.0
C      1  0.5253330000000  0.5342290000000  0.5581440000000 1.0
C      1  0.5066490000000  0.4622560000000  0.4543730000000 1.0
C      1  0.4327840000000  0.4666010000000  0.4687790000000 1.0
C      1  0.4769800000000  0.4995120000000  0.5021780000000 1.0
C      1  0.4908400000000  0.4408700000000  0.5318000000000 1.0
C      1  0.5016260000000  0.5465500000000  0.5481370000000 1.0
C      1  0.4310560000000  0.4845370000000  0.5394190000000 1.0
C      1  0.4687240000000  0.4798820000000  0.5659510000000 1.0
C      1  0.5189540000000  0.5099940000000  0.5120960000000 1.0
C      1  0.5780050000000  0.4918490000000  0.4586100000000 1.0
C      1  0.4661510000000  0.5657370000000  0.4990010000000 1.0
C      1  0.5213460000000  0.5106350000000  0.4333610000000 1.0
C      1  0.5605870000000  0.5112360000000  0.5389840000000 1.0
C      1  0.4206570000000  0.5121690000000  0.5103060000000 1.0
C      1  0.5603240000000  0.4815030000000  0.5024620000000 1.0
C      1  0.4509300000000  0.4667950000000  0.5491140000000 1.0
C      1  0.5095760000000  0.4541860000000  0.5503570000000 1.0
C      1  0.4627630000000  0.4468540000000  0.5314460000000 1.0
C      1  0.5696420000000  0.4717510000000  0.4751270000000 1.0
C      1  0.5479460000000  0.5475990000000  0.4923300000000 1.0
C      1  0.5338740000000  0.4937260000000  0.4933270000000 1.0
C      1  0.4204460000000  0.4829700000000  0.5124590000000 1.0
C      1  0.4755430000000  0.5336650000000  0.5554510000000 1.0
C      1  0.4541380000000  0.4695210000000  0.4522410000000 1.0
C      1  0.4475700000000  0.5497090000000  0.5141320000000 1.0
C      1  0.5906030000000  0.5228990000000  0.5029640000000 1.0
C      1  0.4767250000000  0.5384520000000  0.4366010000000 1.0
C      1  0.4951230000000  0.5685190000000  0.5004710000000 1.0
C      1  0.4311540000000  0.5337380000000  0.4951400000000 1.0
C      1  0.5215580000000  0.4290630000000  0.4890990000000 1.0
C      1  0.4959820000000  0.5215170000000  0.4252040000000 1.0
C      1  0.4739250000000  0.4406780000000  0.4863440000000 1.0
C      1  0.5082680000000  0.4826750000000  0.4316750000000 1.0
END
