TITL C-21806-2992-5 -427.136711049534 125000 -79.7618875314475 0 0 13 (C1) n - 1
REM
REM in /rds/project/t2_vol4/rds-t2-cs072/BORA/CARBON/from-Arr/AIRSS/Generating-Clusters/GAP-ML-2020/Only-C1/SD-CG/HFTN-CG
REM
REM
REM
REM
REM
REM ./C.cell (11c1c37f851c82e70ff6c80c92926a4b)
REM AIRSS Version 0.9.1 bugfix July 2018 build 013d7b7c2542+ Fri, 06 Jul 2018 19:26:36 +0100
REM compiler GCC version 9.3.0
REM options -cpp -mtune=generic -march=x86-64 -g -O0
REM seed 273220554 9593996 132022968 1799797962 1624640029 -1533254274 493977813 1448925973 490602104 1781370662 50410082 439218731 1883719234 -770317079 156378599 -602121658 -219480003 1428427877 -919729377 -1261550943 -1835634245 -2003321104 199674898 -1556912574 1645635158 -432237625 -730741250 1984635911 1607782039 1408125533 731412348 -1558654804 -1086008624
REM
CELL 1.54180   50.00000   50.00000   50.00000   90.00000   90.00000   90.00000
LATT -1
SFAC C  
C      1  0.5593150000000  0.4968150000000  0.4822260000000 1.0
C      1  0.5311550000000  0.4600040000000  0.5025740000000 1.0
C      1  0.5001420000000  0.5295620000000  0.5181790000000 1.0
C      1  0.4681080000000  0.5068060000000  0.4849230000000 1.0
C      1  0.5362110000000  0.4832620000000  0.4874440000000 1.0
C      1  0.5082390000000  0.4953680000000  0.4788520000000 1.0
C      1  0.4507040000000  0.5033630000000  0.5064950000000 1.0
C      1  0.5031860000000  0.5446370000000  0.4965040000000 1.0
C      1  0.4826240000000  0.4824550000000  0.4809150000000 1.0
C      1  0.4862540000000  0.5205370000000  0.5390070000000 1.0
C      1  0.4952480000000  0.5213810000000  0.4823900000000 1.0
C      1  0.5127340000000  0.4469800000000  0.5136940000000 1.0
C      1  0.4660810000000  0.5088300000000  0.5267980000000 1.0
END
