TITL C-21807-4618-2 -0.0686703395069461 125000 -167.435923239902 0 0 27 (C1) n - 1
REM
REM in /rds/project/t2_vol4/rds-t2-cs072/BORA/CARBON/from-Arr/AIRSS/Generating-Clusters/GAP-ML-2020/Only-C1/SD-CG/HFTN-CG
REM
REM
REM
REM
REM
REM ./C.cell (11c1c37f851c82e70ff6c80c92926a4b)
REM AIRSS Version 0.9.1 bugfix July 2018 build 013d7b7c2542+ Fri, 06 Jul 2018 19:26:36 +0100
REM compiler GCC version 9.3.0
REM options -cpp -mtune=generic -march=x86-64 -g -O0
REM seed 416352702 893350355 2026766940 499016068 496478063 1541291556 -1426017322 1550914822 -516378342 -519393406 1975114186 -717199120 75869557 -1966608186 736121483 -891699781 -615408656 296435933 -1669235952 -742964114 1084789040 -1168819326 1602882848 1755412567 1461836215 -434722687 776500898 1543600606 816663473 -1303562364 544927681 -94132821 50025075
REM
CELL 1.54180   50.00000   50.00000   50.00000   90.00000   90.00000   90.00000
LATT -1
SFAC C  
C      1  0.5333290000000  0.5274370000000  0.4864700000000 1.0
C      1  0.4569390000000  0.4821910000000  0.5429630000000 1.0
C      1  0.4516100000000  0.5345210000000  0.5329240000000 1.0
C      1  0.4876510000000  0.5250070000000  0.4941220000000 1.0
C      1  0.4591380000000  0.4572640000000  0.5288640000000 1.0
C      1  0.5030900000000  0.4516240000000  0.4704220000000 1.0
C      1  0.5097490000000  0.5058170000000  0.4491700000000 1.0
C      1  0.5435020000000  0.5008490000000  0.5316340000000 1.0
C      1  0.4806800000000  0.4488450000000  0.5450970000000 1.0
C      1  0.5015740000000  0.4953150000000  0.4948080000000 1.0
C      1  0.5133720000000  0.5370930000000  0.5051690000000 1.0
C      1  0.5238960000000  0.5206740000000  0.5252270000000 1.0
C      1  0.5217760000000  0.5039450000000  0.4750790000000 1.0
C      1  0.4530090000000  0.5065200000000  0.5311300000000 1.0
C      1  0.4825000000000  0.5385280000000  0.4689740000000 1.0
C      1  0.5016670000000  0.4588760000000  0.4455340000000 1.0
C      1  0.5256120000000  0.5529810000000  0.4814620000000 1.0
C      1  0.5043660000000  0.4827330000000  0.4350260000000 1.0
C      1  0.4969580000000  0.5312820000000  0.4452750000000 1.0
C      1  0.5050630000000  0.5538780000000  0.4614170000000 1.0
C      1  0.5215120000000  0.4789870000000  0.5344090000000 1.0
C      1  0.4650830000000  0.5246020000000  0.5119980000000 1.0
C      1  0.5044530000000  0.4651060000000  0.4940420000000 1.0
C      1  0.4754850000000  0.4715280000000  0.5617670000000 1.0
C      1  0.5472050000000  0.4817760000000  0.5110630000000 1.0
C      1  0.5259670000000  0.4638560000000  0.5121470000000 1.0
C      1  0.5048160000000  0.4987640000000  0.5238050000000 1.0
END
