TITL C-215723-9258-8 -0.233724124044416 125000 -80.3276964857481 0 0 13 (C1) n - 1
REM
REM in /rds/project/t2_vol4/rds-t2-cs072/BORA/CARBON/from-Arr/AIRSS/Generating-Clusters/GAP-ML-2020/Only-C1/SD-CG/HFTN-CG
REM
REM
REM
REM
REM
REM ./C.cell (11c1c37f851c82e70ff6c80c92926a4b)
REM AIRSS Version 0.9.1 bugfix July 2018 build 013d7b7c2542+ Fri, 06 Jul 2018 19:26:36 +0100
REM compiler GCC version 9.3.0
REM options -cpp -mtune=generic -march=x86-64 -g -O0
REM seed 1006318186 928151452 -285728271 -1843638005 557472488 -548543293 1221086360 -2099556048 -845092233 -1914055855 -979834680 92495694 2031193964 -1240949232 -1408732779 -1760526649 591332109 456930472 -738645120 -447516761 1403250937 1470024498 2012651757 -377649795 -981286109 889967193 -1520682452 900721984 1969435466 -241993725 2060615699 35485554 439025273
REM
CELL 1.54180   50.00000   50.00000   50.00000   90.00000   90.00000   90.00000
LATT -1
SFAC C  
C      1  0.5250110000000  0.4712910000000  0.4979920000000 1.0
C      1  0.5080110000000  0.5026450000000  0.5416840000000 1.0
C      1  0.4791970000000  0.4686210000000  0.4693820000000 1.0
C      1  0.5071390000000  0.5209230000000  0.5218220000000 1.0
C      1  0.4590970000000  0.5362080000000  0.5020570000000 1.0
C      1  0.4671510000000  0.5134490000000  0.4879210000000 1.0
C      1  0.5253200000000  0.4927300000000  0.4669970000000 1.0
C      1  0.5053930000000  0.4734590000000  0.4754970000000 1.0
C      1  0.4832380000000  0.5271170000000  0.5090780000000 1.0
C      1  0.5315440000000  0.5239160000000  0.5080070000000 1.0
C      1  0.5112150000000  0.4790420000000  0.5488670000000 1.0
C      1  0.5308990000000  0.5007230000000  0.4938370000000 1.0
C      1  0.4667840000000  0.4898750000000  0.4768600000000 1.0
END
