TITL C-215737-9237-5 -0.0741296902498446 125000 -429.032746301075 0 0 63 (C1) n - 1
REM
REM in /rds/project/t2_vol4/rds-t2-cs072/BORA/CARBON/from-Arr/AIRSS/Generating-Clusters/GAP-ML-2020/Only-C1/SD-CG/HFTN-CG
REM
REM
REM
REM
REM
REM ./C.cell (11c1c37f851c82e70ff6c80c92926a4b)
REM AIRSS Version 0.9.1 bugfix July 2018 build 013d7b7c2542+ Fri, 06 Jul 2018 19:26:36 +0100
REM compiler GCC version 9.3.0
REM options -cpp -mtune=generic -march=x86-64 -g -O0
REM seed 907512196 -872566358 422752215 966332162 198752946 799802487 -946057066 798152766 1724223364 1066931091 -1087084494 1834317553 1293055339 535515131 282108943 2124505957 2039733469 591228365 -1427971418 594070030 -391796454 748706621 379155374 927518809 -2137732253 -1405068542 208621392 -1041319803 1367106842 -2047877072 -719188959 -2143333461 1972615166
REM
CELL 1.54180   50.00000   50.00000   50.00000   90.00000   90.00000   90.00000
LATT -1
SFAC C  
C      1  0.4417040000000  0.5480020000000  0.4882910000000 1.0
C      1  0.4561600000000  0.4932320000000  0.5911730000000 1.0
C      1  0.5174040000000  0.4319520000000  0.4847510000000 1.0
C      1  0.5163890000000  0.5259770000000  0.4981850000000 1.0
C      1  0.4859000000000  0.5046190000000  0.5353070000000 1.0
C      1  0.5005760000000  0.5500400000000  0.4950500000000 1.0
C      1  0.4601410000000  0.4747200000000  0.4952310000000 1.0
C      1  0.5607190000000  0.4952210000000  0.5021160000000 1.0
C      1  0.4437920000000  0.4816640000000  0.5413510000000 1.0
C      1  0.5449760000000  0.5359930000000  0.5098540000000 1.0
C      1  0.4425610000000  0.5531290000000  0.5173210000000 1.0
C      1  0.5369740000000  0.4397860000000  0.4660700000000 1.0
C      1  0.5330350000000  0.5011810000000  0.5427160000000 1.0
C      1  0.4615780000000  0.5691570000000  0.4839730000000 1.0
C      1  0.5137460000000  0.5588030000000  0.5391980000000 1.0
C      1  0.5224200000000  0.5093850000000  0.4738740000000 1.0
C      1  0.5740800000000  0.5106090000000  0.4817280000000 1.0
C      1  0.5034470000000  0.5394800000000  0.5573890000000 1.0
C      1  0.4485720000000  0.5326570000000  0.5358410000000 1.0
C      1  0.5239040000000  0.4460210000000  0.4407320000000 1.0
C      1  0.5369710000000  0.4849020000000  0.4877900000000 1.0
C      1  0.4994810000000  0.5118820000000  0.4180350000000 1.0
C      1  0.4525180000000  0.5218230000000  0.4817760000000 1.0
C      1  0.5509550000000  0.4640170000000  0.4712450000000 1.0
C      1  0.5043140000000  0.5350710000000  0.4319680000000 1.0
C      1  0.5306550000000  0.5414560000000  0.4383910000000 1.0
C      1  0.4815680000000  0.4654350000000  0.4328380000000 1.0
C      1  0.5529300000000  0.5103880000000  0.5245260000000 1.0
C      1  0.5194310000000  0.5165430000000  0.5647230000000 1.0
C      1  0.4583470000000  0.4677010000000  0.4466640000000 1.0
C      1  0.4945070000000  0.4312910000000  0.5272250000000 1.0
C      1  0.4572510000000  0.4790390000000  0.5667130000000 1.0
C      1  0.4646790000000  0.5715550000000  0.5130690000000 1.0
C      1  0.4841990000000  0.5411390000000  0.4508400000000 1.0
C      1  0.5135450000000  0.4779760000000  0.5038620000000 1.0
C      1  0.4855780000000  0.5597030000000  0.4722720000000 1.0
C      1  0.4943710000000  0.4447620000000  0.4734060000000 1.0
C      1  0.5060500000000  0.4718320000000  0.5671880000000 1.0
C      1  0.5389190000000  0.5573300000000  0.5282230000000 1.0
C      1  0.5262790000000  0.4722280000000  0.5478120000000 1.0
C      1  0.5228770000000  0.4581190000000  0.5235720000000 1.0
C      1  0.5177650000000  0.4316300000000  0.5132860000000 1.0
C      1  0.5049460000000  0.4978760000000  0.5801990000000 1.0
C      1  0.4905710000000  0.4739970000000  0.4839590000000 1.0
C      1  0.5439370000000  0.5265760000000  0.4577620000000 1.0
C      1  0.5544860000000  0.4802080000000  0.4476870000000 1.0
C      1  0.4473890000000  0.5014080000000  0.4998580000000 1.0
C      1  0.5654580000000  0.5052950000000  0.4542280000000 1.0
C      1  0.4399160000000  0.5061050000000  0.5271220000000 1.0
C      1  0.4737260000000  0.5177150000000  0.4628570000000 1.0
C      1  0.5016780000000  0.4883900000000  0.4338510000000 1.0
C      1  0.4751510000000  0.4472370000000  0.5373190000000 1.0
C      1  0.4800220000000  0.4618160000000  0.5615630000000 1.0
C      1  0.4897960000000  0.5574040000000  0.5206330000000 1.0
C      1  0.4798710000000  0.5033460000000  0.5898300000000 1.0
C      1  0.4961520000000  0.4973950000000  0.4640600000000 1.0
C      1  0.4961270000000  0.4442050000000  0.4449570000000 1.0
C      1  0.5594880000000  0.5351820000000  0.4837540000000 1.0
C      1  0.4787340000000  0.5328890000000  0.5399090000000 1.0
C      1  0.4476160000000  0.4652820000000  0.4693620000000 1.0
C      1  0.4557740000000  0.4631240000000  0.5230850000000 1.0
C      1  0.5084750000000  0.5040390000000  0.5182800000000 1.0
C      1  0.5294210000000  0.4730580000000  0.4341490000000 1.0
END
