TITL C-21779-2086-1 -0.467775604254408 125000 -769.917045587303 0 0 110 (C1) n - 1
REM
REM in /rds/project/t2_vol4/rds-t2-cs072/BORA/CARBON/from-Arr/AIRSS/Generating-Clusters/GAP-ML-2020/Only-C1/SD-CG/HFTN-CG
REM
REM
REM
REM
REM
REM ./C.cell (11c1c37f851c82e70ff6c80c92926a4b)
REM AIRSS Version 0.9.1 bugfix July 2018 build 013d7b7c2542+ Fri, 06 Jul 2018 19:26:36 +0100
REM compiler GCC version 9.3.0
REM options -cpp -mtune=generic -march=x86-64 -g -O0
REM seed 1743221053 -1603201081 -1618434012 -1524175555 524355048 -1787643731 -17875007 1685514109 749344921 -1484438528 1702398617 119049512 330095899 -618087781 649888526 1056950407 1815133148 1454923759 -672287736 -2020552252 -2099945479 1738942163 1905931793 -275207883 1650014632 661832603 931125441 1782479930 -1011583534 -742942527 -1039239529 -1216030039 -1986456441
REM
CELL 1.54180   50.00000   50.00000   50.00000   90.00000   90.00000   90.00000
LATT -1
SFAC C  
C      1  0.5440400000000  0.5743660000000  0.4707480000000 1.0
C      1  0.5182670000000  0.4755680000000  0.5172520000000 1.0
C      1  0.5683900000000  0.4499990000000  0.5338550000000 1.0
C      1  0.4642300000000  0.5679900000000  0.4713210000000 1.0
C      1  0.4162260000000  0.4562840000000  0.4911120000000 1.0
C      1  0.4548910000000  0.4358120000000  0.5513480000000 1.0
C      1  0.4324040000000  0.4859480000000  0.4318120000000 1.0
C      1  0.4367650000000  0.5261150000000  0.5636500000000 1.0
C      1  0.4683070000000  0.5722160000000  0.5210540000000 1.0
C      1  0.4560130000000  0.4457390000000  0.4309610000000 1.0
C      1  0.5475600000000  0.5205480000000  0.5230570000000 1.0
C      1  0.5071460000000  0.4930090000000  0.4971190000000 1.0
C      1  0.4544730000000  0.5025910000000  0.4243430000000 1.0
C      1  0.5431230000000  0.4361980000000  0.4663090000000 1.0
C      1  0.4633100000000  0.4911500000000  0.4684260000000 1.0
C      1  0.5043760000000  0.4648580000000  0.4098100000000 1.0
C      1  0.5807390000000  0.5501170000000  0.5332130000000 1.0
C      1  0.5775080000000  0.4986670000000  0.5444900000000 1.0
C      1  0.5804150000000  0.4869880000000  0.4962910000000 1.0
C      1  0.5676840000000  0.5305340000000  0.4830940000000 1.0
C      1  0.5007190000000  0.4985800000000  0.5578620000000 1.0
C      1  0.4139990000000  0.4851700000000  0.4862000000000 1.0
C      1  0.4911310000000  0.4581500000000  0.5906270000000 1.0
C      1  0.5389900000000  0.4551780000000  0.5741650000000 1.0
C      1  0.5548330000000  0.5569860000000  0.4490470000000 1.0
C      1  0.5737450000000  0.4811960000000  0.4684980000000 1.0
C      1  0.5000970000000  0.5218680000000  0.5131270000000 1.0
C      1  0.5004760000000  0.5263210000000  0.4662320000000 1.0
C      1  0.4629440000000  0.4226870000000  0.5061810000000 1.0
C      1  0.5103330000000  0.5284730000000  0.4323580000000 1.0
C      1  0.5142050000000  0.5765230000000  0.5358850000000 1.0
C      1  0.5481350000000  0.5260550000000  0.5713070000000 1.0
C      1  0.4926060000000  0.5188050000000  0.4101450000000 1.0
C      1  0.4862670000000  0.4161180000000  0.5212550000000 1.0
C      1  0.5069180000000  0.5449390000000  0.5828880000000 1.0
C      1  0.5212620000000  0.5844960000000  0.5100930000000 1.0
C      1  0.4172670000000  0.4755900000000  0.5317080000000 1.0
C      1  0.4819090000000  0.4593230000000  0.4303820000000 1.0
C      1  0.4908120000000  0.4513670000000  0.4808200000000 1.0
C      1  0.5088130000000  0.4862640000000  0.4500790000000 1.0
C      1  0.4685150000000  0.4303890000000  0.4793010000000 1.0
C      1  0.4337080000000  0.4828930000000  0.4628420000000 1.0
C      1  0.4947770000000  0.4784070000000  0.5360810000000 1.0
C      1  0.4299530000000  0.5387550000000  0.5387320000000 1.0
C      1  0.4271920000000  0.4780280000000  0.5585620000000 1.0
C      1  0.5125330000000  0.4449410000000  0.5809700000000 1.0
C      1  0.5131820000000  0.5366370000000  0.4912870000000 1.0
C      1  0.4691310000000  0.5200160000000  0.4770230000000 1.0
C      1  0.5273270000000  0.4225200000000  0.5424460000000 1.0
C      1  0.5610790000000  0.5676980000000  0.5273440000000 1.0
C      1  0.5233770000000  0.4388190000000  0.4452940000000 1.0
C      1  0.5188360000000  0.4982860000000  0.5826070000000 1.0
C      1  0.5246120000000  0.5015700000000  0.4281200000000 1.0
C      1  0.5709460000000  0.4767310000000  0.5240830000000 1.0
C      1  0.4876640000000  0.5684620000000  0.5419660000000 1.0
C      1  0.5678630000000  0.5314820000000  0.4560290000000 1.0
C      1  0.4219560000000  0.4510140000000  0.5182140000000 1.0
C      1  0.5830790000000  0.5139530000000  0.4996610000000 1.0
C      1  0.5374820000000  0.5631700000000  0.5445440000000 1.0
C      1  0.4693300000000  0.4726320000000  0.5828570000000 1.0
C      1  0.4502330000000  0.4353480000000  0.4577840000000 1.0
C      1  0.4231220000000  0.5026230000000  0.5705330000000 1.0
C      1  0.4184070000000  0.5251810000000  0.5156180000000 1.0
C      1  0.4480200000000  0.4593770000000  0.5675520000000 1.0
C      1  0.4722310000000  0.5156290000000  0.5091080000000 1.0
C      1  0.5146090000000  0.4492650000000  0.5000810000000 1.0
C      1  0.4792580000000  0.4772520000000  0.4905400000000 1.0
C      1  0.4333620000000  0.4606850000000  0.4207770000000 1.0
C      1  0.5525220000000  0.4926660000000  0.4287870000000 1.0
C      1  0.5779920000000  0.5223600000000  0.5274110000000 1.0
C      1  0.4431920000000  0.5585930000000  0.5217110000000 1.0
C      1  0.4498340000000  0.5434310000000  0.4764900000000 1.0
C      1  0.5062680000000  0.4246850000000  0.5611600000000 1.0
C      1  0.5175760000000  0.5850020000000  0.4655280000000 1.0
C      1  0.5477530000000  0.5636440000000  0.4225680000000 1.0
C      1  0.5614000000000  0.5012420000000  0.5676980000000 1.0
C      1  0.4296340000000  0.4514690000000  0.4674100000000 1.0
C      1  0.4809120000000  0.4226170000000  0.5484410000000 1.0
C      1  0.5162650000000  0.4199410000000  0.5158480000000 1.0
C      1  0.5029250000000  0.5895740000000  0.4898910000000 1.0
C      1  0.5071860000000  0.4932720000000  0.4053660000000 1.0
C      1  0.4760610000000  0.4886390000000  0.4421060000000 1.0
C      1  0.4714510000000  0.4863830000000  0.5177800000000 1.0
C      1  0.5065250000000  0.5244620000000  0.5433510000000 1.0
C      1  0.5432360000000  0.4825760000000  0.5793300000000 1.0
C      1  0.5288960000000  0.4516780000000  0.4203590000000 1.0
C      1  0.5346500000000  0.5340940000000  0.5463370000000 1.0
C      1  0.4130040000000  0.4975190000000  0.5120930000000 1.0
C      1  0.5493370000000  0.4402880000000  0.5505270000000 1.0
C      1  0.5016090000000  0.4558810000000  0.4535380000000 1.0
C      1  0.5216690000000  0.5564570000000  0.4281630000000 1.0
C      1  0.4760270000000  0.5677710000000  0.4444670000000 1.0
C      1  0.5425030000000  0.5383770000000  0.4982590000000 1.0
C      1  0.5044470000000  0.5751680000000  0.4428580000000 1.0
C      1  0.4320130000000  0.5449800000000  0.4985590000000 1.0
C      1  0.5612680000000  0.4571070000000  0.4566910000000 1.0
C      1  0.5523400000000  0.4643820000000  0.4295780000000 1.0
C      1  0.4640890000000  0.5521280000000  0.4251770000000 1.0
C      1  0.4430660000000  0.4329660000000  0.5254240000000 1.0
C      1  0.5456890000000  0.5704410000000  0.5009540000000 1.0
C      1  0.4760320000000  0.5803650000000  0.4939330000000 1.0
C      1  0.4878850000000  0.5443090000000  0.5608520000000 1.0
C      1  0.4641440000000  0.5269590000000  0.4131480000000 1.0
C      1  0.5146760000000  0.5017470000000  0.4720280000000 1.0
C      1  0.5689950000000  0.5033790000000  0.4494910000000 1.0
C      1  0.5432550000000  0.4910000000000  0.5217690000000 1.0
C      1  0.5254100000000  0.5260580000000  0.5881340000000 1.0
C      1  0.4770360000000  0.5007990000000  0.5758150000000 1.0
C      1  0.4648860000000  0.5256940000000  0.5708430000000 1.0
C      1  0.5332330000000  0.4293510000000  0.4920500000000 1.0
END
