TITL C-2114532-4476-36 0.19499007758355 125000 -626.262907379546 0 0 90 (C1) n - 1
REM
REM in /nfs/bkarasulu/CARBON/AIRSS/Generating-Clusters/GAP-ML-2020/Only-C1/SD-CG/HFTN-CG
REM
REM
REM
REM
REM
REM ./C.cell (11c1c37f851c82e70ff6c80c92926a4b)
REM
REM compiler GCC version 9.2.1 20190827 (Red Hat 9.2.1-1)
REM options -cpp -mtune=generic -march=x86-64 -g -O0 -fpre-include=/usr/include/finclude/math-vector-fortran.h
REM seed 496035250 -306435648 -1000933998 -207559375 -556130919 1590752255 2129978032 1378256624 -446807803 -820628532 1825692846 -1590373469 -1828966371 -1025811803 -1931752799 1575608099 -1543017074 32201194 617300959 -2014043219 -882385765 822333795 1779878702 -1775897345 606765360 -90930713 -1626328304 2002699039 -1752095986 1392603022 -1377918824 -1959250968 1215052032
REM
CELL 1.54180   50.00000   50.00000   50.00000   90.00000   90.00000   90.00000
LATT -1
SFAC C  
C      1  0.5573300000000  0.5067810000000  0.4424420000000 1.0
C      1  0.5287340000000  0.5428260000000  0.5694130000000 1.0
C      1  0.5897820000000  0.5109900000000  0.5275840000000 1.0
C      1  0.5136240000000  0.4466880000000  0.4412490000000 1.0
C      1  0.4781730000000  0.4904490000000  0.5329010000000 1.0
C      1  0.5126240000000  0.4845700000000  0.4842200000000 1.0
C      1  0.4277050000000  0.5379330000000  0.5359650000000 1.0
C      1  0.4204040000000  0.5153320000000  0.4674690000000 1.0
C      1  0.5302250000000  0.4700060000000  0.4331520000000 1.0
C      1  0.5215770000000  0.4801650000000  0.5119750000000 1.0
C      1  0.4676990000000  0.4986150000000  0.4256960000000 1.0
C      1  0.4185800000000  0.4928460000000  0.5242680000000 1.0
C      1  0.5343560000000  0.4740970000000  0.5639160000000 1.0
C      1  0.5612770000000  0.4362300000000  0.5105020000000 1.0
C      1  0.4936200000000  0.5622630000000  0.4385450000000 1.0
C      1  0.4644330000000  0.4356620000000  0.5211290000000 1.0
C      1  0.4751900000000  0.5143490000000  0.4543790000000 1.0
C      1  0.4907650000000  0.4428400000000  0.5300560000000 1.0
C      1  0.4862690000000  0.4775170000000  0.4225980000000 1.0
C      1  0.5396290000000  0.5202840000000  0.4967510000000 1.0
C      1  0.4372360000000  0.4903890000000  0.4674780000000 1.0
C      1  0.5362120000000  0.4256760000000  0.4803550000000 1.0
C      1  0.5899320000000  0.4854810000000  0.5122430000000 1.0
C      1  0.4445350000000  0.5572740000000  0.5234860000000 1.0
C      1  0.4274880000000  0.4681690000000  0.5104060000000 1.0
C      1  0.5400910000000  0.5493260000000  0.4552690000000 1.0
C      1  0.4709590000000  0.5072750000000  0.5811080000000 1.0
C      1  0.4849130000000  0.4810480000000  0.4880650000000 1.0
C      1  0.4684860000000  0.4391310000000  0.4533990000000 1.0
C      1  0.5433080000000  0.5513240000000  0.5010480000000 1.0
C      1  0.4355510000000  0.5222090000000  0.5576640000000 1.0
C      1  0.5073910000000  0.5228320000000  0.5297650000000 1.0
C      1  0.5789240000000  0.5314750000000  0.5135320000000 1.0
C      1  0.4306300000000  0.4648770000000  0.4816140000000 1.0
C      1  0.5668200000000  0.4689870000000  0.4701700000000 1.0
C      1  0.4407520000000  0.4959730000000  0.4370610000000 1.0
C      1  0.5162130000000  0.5416780000000  0.4397780000000 1.0
C      1  0.5014900000000  0.5263200000000  0.4621720000000 1.0
C      1  0.4725100000000  0.5473600000000  0.4260250000000 1.0
C      1  0.5387620000000  0.4175770000000  0.5087390000000 1.0
C      1  0.4814430000000  0.5229690000000  0.4135420000000 1.0
C      1  0.5120350000000  0.4895670000000  0.4225600000000 1.0
C      1  0.4888070000000  0.5451240000000  0.4809960000000 1.0
C      1  0.5409730000000  0.5563090000000  0.5453910000000 1.0
C      1  0.4635210000000  0.4287090000000  0.4931050000000 1.0
C      1  0.4865520000000  0.4520650000000  0.4347990000000 1.0
C      1  0.4754580000000  0.5540760000000  0.5609940000000 1.0
C      1  0.5189110000000  0.5104550000000  0.4775230000000 1.0
C      1  0.5594230000000  0.5516210000000  0.5240660000000 1.0
C      1  0.5618630000000  0.4501450000000  0.5350030000000 1.0
C      1  0.4307970000000  0.5224880000000  0.4422280000000 1.0
C      1  0.5591650000000  0.4441790000000  0.4828470000000 1.0
C      1  0.4203210000000  0.5312550000000  0.4902120000000 1.0
C      1  0.4547430000000  0.5372580000000  0.4459080000000 1.0
C      1  0.5182250000000  0.4906410000000  0.5813610000000 1.0
C      1  0.4718790000000  0.4818350000000  0.5617310000000 1.0
C      1  0.5262110000000  0.4058110000000  0.5299110000000 1.0
C      1  0.4471330000000  0.4431090000000  0.4740040000000 1.0
C      1  0.4695030000000  0.5275020000000  0.4963120000000 1.0
C      1  0.4461180000000  0.4714090000000  0.5540600000000 1.0
C      1  0.4847520000000  0.4248010000000  0.4721820000000 1.0
C      1  0.5034850000000  0.5577900000000  0.5647360000000 1.0
C      1  0.5132680000000  0.4281070000000  0.4639540000000 1.0
C      1  0.5607590000000  0.5285560000000  0.4581260000000 1.0
C      1  0.4287780000000  0.4942040000000  0.5506850000000 1.0
C      1  0.5370810000000  0.4499730000000  0.5500450000000 1.0
C      1  0.4957140000000  0.5730030000000  0.5202330000000 1.0
C      1  0.4871400000000  0.5706010000000  0.4646270000000 1.0
C      1  0.4661710000000  0.5019420000000  0.4794040000000 1.0
C      1  0.5684370000000  0.5178400000000  0.4861500000000 1.0
C      1  0.5781160000000  0.4892130000000  0.4868630000000 1.0
C      1  0.4818830000000  0.5164140000000  0.5224750000000 1.0
C      1  0.5152220000000  0.5703880000000  0.5411330000000 1.0
C      1  0.4932180000000  0.4711260000000  0.5188720000000 1.0
C      1  0.5806250000000  0.4706780000000  0.5353080000000 1.0
C      1  0.5471540000000  0.4995690000000  0.5518070000000 1.0
C      1  0.5761690000000  0.4960460000000  0.5487600000000 1.0
C      1  0.5333520000000  0.5151590000000  0.5743160000000 1.0
C      1  0.5545120000000  0.4796360000000  0.4457820000000 1.0
C      1  0.5042530000000  0.5695260000000  0.4899050000000 1.0
C      1  0.4441390000000  0.5463120000000  0.4970880000000 1.0
C      1  0.4595290000000  0.5307170000000  0.5713660000000 1.0
C      1  0.5155310000000  0.4308430000000  0.5396450000000 1.0
C      1  0.5327910000000  0.5643750000000  0.4797140000000 1.0
C      1  0.4897650000000  0.4877470000000  0.5848650000000 1.0
C      1  0.4700360000000  0.5651420000000  0.5342440000000 1.0
C      1  0.5306740000000  0.5056390000000  0.5227950000000 1.0
C      1  0.5094890000000  0.5184410000000  0.4191550000000 1.0
C      1  0.4445230000000  0.4547670000000  0.5295410000000 1.0
C      1  0.4161540000000  0.5200960000000  0.5160800000000 1.0
END
