TITL C-21787-3040-2 -370.174544162572 125000 -560.927123024628 0 0 81 (C1) n - 1
REM
REM in /rds/project/t2_vol4/rds-t2-cs072/BORA/CARBON/from-Arr/AIRSS/Generating-Clusters/GAP-ML-2020/Only-C1/SD-CG/HFTN-CG
REM
REM
REM
REM
REM
REM ./C.cell (11c1c37f851c82e70ff6c80c92926a4b)
REM AIRSS Version 0.9.1 bugfix July 2018 build 013d7b7c2542+ Fri, 06 Jul 2018 19:26:36 +0100
REM compiler GCC version 9.3.0
REM options -cpp -mtune=generic -march=x86-64 -g -O0
REM seed 1921159258 1414214326 164228709 -115448017 318270919 2058593067 1748911495 -685997873 -363276859 482635386 -2122809361 269312710 -1001073956 872615537 1139503764 709395829 -1378585409 1958775645 1746208477 -1106799310 -1396358729 1327144929 1965393679 -243077062 -785980316 1913090812 1075729324 -1011815566 241468646 1906687679 230041657 990703457 -1473245318
REM
CELL 1.54180   50.00000   50.00000   50.00000   90.00000   90.00000   90.00000
LATT -1
SFAC C  
C      1  0.4330250000000  0.4867350000000  0.4531390000000 1.0
C      1  0.5182800000000  0.5604020000000  0.5376610000000 1.0
C      1  0.5032850000000  0.5217370000000  0.4458170000000 1.0
C      1  0.5628020000000  0.4558250000000  0.5047340000000 1.0
C      1  0.4388240000000  0.5409800000000  0.4525750000000 1.0
C      1  0.5027250000000  0.4913040000000  0.4439910000000 1.0
C      1  0.4771220000000  0.4916800000000  0.5141480000000 1.0
C      1  0.4248840000000  0.4964990000000  0.5268530000000 1.0
C      1  0.5223420000000  0.5236120000000  0.5078720000000 1.0
C      1  0.4303350000000  0.5143240000000  0.4852280000000 1.0
C      1  0.5393920000000  0.5515370000000  0.5177170000000 1.0
C      1  0.5516590000000  0.5195250000000  0.4437200000000 1.0
C      1  0.4923870000000  0.4795610000000  0.5619610000000 1.0
C      1  0.5697700000000  0.5424450000000  0.4834090000000 1.0
C      1  0.4967250000000  0.5337990000000  0.4986280000000 1.0
C      1  0.4792450000000  0.4240900000000  0.5020260000000 1.0
C      1  0.5279360000000  0.5594200000000  0.4657900000000 1.0
C      1  0.5011050000000  0.4292260000000  0.4840500000000 1.0
C      1  0.4279760000000  0.4714430000000  0.4769470000000 1.0
C      1  0.4755050000000  0.4927680000000  0.4311640000000 1.0
C      1  0.5438880000000  0.4425630000000  0.5463200000000 1.0
C      1  0.4541160000000  0.5407640000000  0.5255260000000 1.0
C      1  0.5197380000000  0.4406830000000  0.5610920000000 1.0
C      1  0.5478860000000  0.4696450000000  0.5575150000000 1.0
C      1  0.4783900000000  0.5782780000000  0.5083140000000 1.0
C      1  0.4956750000000  0.4473640000000  0.4606680000000 1.0
C      1  0.5000000000000  0.4866320000000  0.5306530000000 1.0
C      1  0.4735950000000  0.5510840000000  0.5458070000000 1.0
C      1  0.5150460000000  0.5406550000000  0.5586370000000 1.0
C      1  0.5644740000000  0.4877530000000  0.5439030000000 1.0
C      1  0.5629320000000  0.5362730000000  0.5289430000000 1.0
C      1  0.4874090000000  0.5328410000000  0.5628340000000 1.0
C      1  0.5313470000000  0.5182990000000  0.5562620000000 1.0
C      1  0.5782580000000  0.5282740000000  0.5071380000000 1.0
C      1  0.4914680000000  0.5689110000000  0.5328090000000 1.0
C      1  0.4639180000000  0.5126210000000  0.4809660000000 1.0
C      1  0.5150700000000  0.4507610000000  0.4390870000000 1.0
C      1  0.4371770000000  0.4811680000000  0.5487280000000 1.0
C      1  0.5578470000000  0.5158120000000  0.5477840000000 1.0
C      1  0.4522160000000  0.4338000000000  0.5006290000000 1.0
C      1  0.5498320000000  0.4901680000000  0.4406320000000 1.0
C      1  0.4934370000000  0.5896130000000  0.4880670000000 1.0
C      1  0.5204630000000  0.4681110000000  0.5698480000000 1.0
C      1  0.4560010000000  0.4750640000000  0.4409710000000 1.0
C      1  0.4449090000000  0.4475290000000  0.4761190000000 1.0
C      1  0.4224840000000  0.4909650000000  0.4992610000000 1.0
C      1  0.4495160000000  0.4555560000000  0.5473210000000 1.0
C      1  0.4951010000000  0.4340230000000  0.5502880000000 1.0
C      1  0.5017580000000  0.5743290000000  0.4670780000000 1.0
C      1  0.5727360000000  0.5243630000000  0.4621210000000 1.0
C      1  0.5660750000000  0.4786300000000  0.4613420000000 1.0
C      1  0.4268540000000  0.5153090000000  0.4571040000000 1.0
C      1  0.5470220000000  0.5586020000000  0.4877480000000 1.0
C      1  0.4365370000000  0.5212850000000  0.5382240000000 1.0
C      1  0.5177460000000  0.5088020000000  0.5321160000000 1.0
C      1  0.5515100000000  0.4627610000000  0.4798980000000 1.0
C      1  0.5285660000000  0.5368970000000  0.4470180000000 1.0
C      1  0.4642820000000  0.4513000000000  0.4552330000000 1.0
C      1  0.4426470000000  0.4415820000000  0.5247820000000 1.0
C      1  0.4622460000000  0.5430520000000  0.4368430000000 1.0
C      1  0.4503820000000  0.5048110000000  0.5588650000000 1.0
C      1  0.5188230000000  0.4728810000000  0.5161630000000 1.0
C      1  0.5812440000000  0.4990610000000  0.4728750000000 1.0
C      1  0.5457740000000  0.4371590000000  0.5183690000000 1.0
C      1  0.4760900000000  0.4544070000000  0.5582890000000 1.0
C      1  0.4541470000000  0.5621290000000  0.5028350000000 1.0
C      1  0.5742010000000  0.4792870000000  0.5178290000000 1.0
C      1  0.4773210000000  0.5209840000000  0.4288450000000 1.0
C      1  0.4769310000000  0.5579720000000  0.4597490000000 1.0
C      1  0.5261470000000  0.4756050000000  0.4340310000000 1.0
C      1  0.4978180000000  0.4228810000000  0.5243630000000 1.0
C      1  0.4773670000000  0.5061460000000  0.5671160000000 1.0
C      1  0.5207700000000  0.4273710000000  0.5069130000000 1.0
C      1  0.4750000000000  0.4851220000000  0.4862060000000 1.0
C      1  0.4994730000000  0.4770760000000  0.4714450000000 1.0
C      1  0.5834740000000  0.5007450000000  0.5010910000000 1.0
C      1  0.5246610000000  0.4795060000000  0.4882130000000 1.0
C      1  0.4870830000000  0.5309030000000  0.4705130000000 1.0
C      1  0.4728840000000  0.5208850000000  0.5097530000000 1.0
C      1  0.5348370000000  0.5067540000000  0.4886550000000 1.0
C      1  0.4500780000000  0.5592840000000  0.4748260000000 1.0
END
