TITL C-21915-2299-7 -0.115477291522699 125000 -598.609572863446 0 0 87 (C1) n - 1
REM
REM in /rds/project/t2_vol4/rds-t2-cs072/BORA/CARBON/from-Arr/AIRSS/Generating-Clusters/GAP-ML-2020/Only-C1/SD-CG/HFTN-CG
REM
REM
REM
REM
REM
REM ./C.cell (11c1c37f851c82e70ff6c80c92926a4b)
REM AIRSS Version 0.9.1 bugfix July 2018 build 013d7b7c2542+ Fri, 06 Jul 2018 19:26:36 +0100
REM compiler GCC version 9.3.0
REM options -cpp -mtune=generic -march=x86-64 -g -O0
REM seed 222606404 -55639705 233112810 -1029253939 -42252948 -310337290 5966737 880857632 1044084880 -1124414293 -1783698947 -609571731 -2091162450 1405271438 1180263933 160711250 1122556137 1213319269 1860759523 838825302 698217791 -775740816 1978848798 -256121809 -612608692 1452535907 756058475 -944334959 93392142 80677718 -1727147098 1549043078 608971646
REM
CELL 1.54180   50.00000   50.00000   50.00000   90.00000   90.00000   90.00000
LATT -1
SFAC C  
C      1  0.5267260000000  0.5380190000000  0.5719180000000 1.0
C      1  0.5427550000000  0.5071190000000  0.4346450000000 1.0
C      1  0.5241180000000  0.5686150000000  0.4869680000000 1.0
C      1  0.4922460000000  0.5229190000000  0.5185600000000 1.0
C      1  0.5699410000000  0.5296710000000  0.4903790000000 1.0
C      1  0.4604400000000  0.4351440000000  0.5595110000000 1.0
C      1  0.4389530000000  0.4812310000000  0.5391100000000 1.0
C      1  0.4489100000000  0.4416890000000  0.5118950000000 1.0
C      1  0.5628040000000  0.5255740000000  0.4398160000000 1.0
C      1  0.4624850000000  0.5455340000000  0.5602740000000 1.0
C      1  0.5300660000000  0.4422140000000  0.4983900000000 1.0
C      1  0.4892910000000  0.5162130000000  0.4164550000000 1.0
C      1  0.5134960000000  0.5167210000000  0.4355950000000 1.0
C      1  0.4273100000000  0.4955470000000  0.4589040000000 1.0
C      1  0.4772640000000  0.4277410000000  0.5077850000000 1.0
C      1  0.4495610000000  0.4512590000000  0.5395160000000 1.0
C      1  0.5025450000000  0.4597130000000  0.5634230000000 1.0
C      1  0.5077130000000  0.4872460000000  0.5020590000000 1.0
C      1  0.5030440000000  0.5164710000000  0.4907490000000 1.0
C      1  0.4203800000000  0.5165590000000  0.4774890000000 1.0
C      1  0.5246260000000  0.4389820000000  0.5252800000000 1.0
C      1  0.4327560000000  0.4626530000000  0.4973560000000 1.0
C      1  0.5350060000000  0.5503820000000  0.4660660000000 1.0
C      1  0.4474040000000  0.5539290000000  0.5376110000000 1.0
C      1  0.4711710000000  0.5692860000000  0.4990290000000 1.0
C      1  0.5044860000000  0.4680590000000  0.4625740000000 1.0
C      1  0.4709710000000  0.4946650000000  0.4298460000000 1.0
C      1  0.4862970000000  0.5625760000000  0.5525850000000 1.0
C      1  0.5423480000000  0.4561760000000  0.5411070000000 1.0
C      1  0.4336400000000  0.4692270000000  0.4686670000000 1.0
C      1  0.4881990000000  0.5042830000000  0.5710110000000 1.0
C      1  0.5637320000000  0.4727970000000  0.5298990000000 1.0
C      1  0.4344690000000  0.5407070000000  0.4696650000000 1.0
C      1  0.5700840000000  0.4815120000000  0.5019060000000 1.0
C      1  0.5554260000000  0.5326460000000  0.5672040000000 1.0
C      1  0.5144880000000  0.5118470000000  0.5787420000000 1.0
C      1  0.4705610000000  0.5497790000000  0.4361460000000 1.0
C      1  0.5540210000000  0.4730030000000  0.4756960000000 1.0
C      1  0.4404050000000  0.5354980000000  0.5158140000000 1.0
C      1  0.5537590000000  0.4438810000000  0.4619570000000 1.0
C      1  0.4915920000000  0.4832940000000  0.5493030000000 1.0
C      1  0.4787180000000  0.5401360000000  0.4109070000000 1.0
C      1  0.5605000000000  0.5636270000000  0.5295660000000 1.0
C      1  0.4866320000000  0.4297100000000  0.4814120000000 1.0
C      1  0.4972500000000  0.4297130000000  0.5297420000000 1.0
C      1  0.5428780000000  0.5312800000000  0.5071400000000 1.0
C      1  0.5595190000000  0.5041340000000  0.5696610000000 1.0
C      1  0.4794150000000  0.4765730000000  0.5012670000000 1.0
C      1  0.5494780000000  0.4815200000000  0.4449840000000 1.0
C      1  0.4950500000000  0.5705570000000  0.4808350000000 1.0
C      1  0.5157520000000  0.5459450000000  0.4453950000000 1.0
C      1  0.5098190000000  0.4247410000000  0.4645320000000 1.0
C      1  0.4454580000000  0.5074910000000  0.4397080000000 1.0
C      1  0.4795710000000  0.4573550000000  0.4755340000000 1.0
C      1  0.4822560000000  0.5112800000000  0.4723420000000 1.0
C      1  0.4919560000000  0.5592820000000  0.4534740000000 1.0
C      1  0.5107630000000  0.4464040000000  0.4420190000000 1.0
C      1  0.5297350000000  0.4654090000000  0.5653750000000 1.0
C      1  0.5821670000000  0.5084920000000  0.5043020000000 1.0
C      1  0.4881380000000  0.4354300000000  0.5565150000000 1.0
C      1  0.4950020000000  0.4961840000000  0.4518220000000 1.0
C      1  0.5116240000000  0.5585330000000  0.5611590000000 1.0
C      1  0.5274030000000  0.5271070000000  0.4841770000000 1.0
C      1  0.5704880000000  0.5418600000000  0.5444360000000 1.0
C      1  0.5350070000000  0.4915560000000  0.5759790000000 1.0
C      1  0.4708460000000  0.4735580000000  0.5301920000000 1.0
C      1  0.4683780000000  0.4652760000000  0.4296570000000 1.0
C      1  0.5746060000000  0.4939220000000  0.5475600000000 1.0
C      1  0.5412790000000  0.5621380000000  0.5104630000000 1.0
C      1  0.4891250000000  0.4484880000000  0.4231260000000 1.0
C      1  0.4429780000000  0.5028360000000  0.5556630000000 1.0
C      1  0.4643610000000  0.5001130000000  0.4917090000000 1.0
C      1  0.5359460000000  0.4259930000000  0.4755150000000 1.0
C      1  0.5097540000000  0.5005610000000  0.5285250000000 1.0
C      1  0.4699700000000  0.5702530000000  0.5279830000000 1.0
C      1  0.5248730000000  0.4693710000000  0.4851200000000 1.0
C      1  0.5628720000000  0.5387720000000  0.4636240000000 1.0
C      1  0.4571970000000  0.4595710000000  0.4565600000000 1.0
C      1  0.4466980000000  0.5529620000000  0.4922420000000 1.0
C      1  0.4251690000000  0.4849460000000  0.5143930000000 1.0
C      1  0.4648300000000  0.5170250000000  0.5158610000000 1.0
C      1  0.5414200000000  0.4542370000000  0.4389820000000 1.0
C      1  0.4471290000000  0.5357740000000  0.4448690000000 1.0
C      1  0.4632080000000  0.5176290000000  0.5669740000000 1.0
C      1  0.5348590000000  0.5132740000000  0.5302070000000 1.0
C      1  0.4213690000000  0.5124130000000  0.5051620000000 1.0
C      1  0.5830590000000  0.5161870000000  0.5324200000000 1.0
END
