TITL C-2114521-4255-25 -54.2010759792053 125000 -295.892913381859 0 0 45 (C1) n - 1
REM
REM in /nfs/bkarasulu/CARBON/AIRSS/Generating-Clusters/GAP-ML-2020/Only-C1/SD-CG/HFTN-CG
REM
REM
REM
REM
REM
REM ./C.cell (11c1c37f851c82e70ff6c80c92926a4b)
REM
REM compiler GCC version 9.2.1 20190827 (Red Hat 9.2.1-1)
REM options -cpp -mtune=generic -march=x86-64 -g -O0 -fpre-include=/usr/include/finclude/math-vector-fortran.h
REM seed 1282691211 1038307358 -700879701 -371752453 -886294722 -1311694607 -672569098 1888132228 -1605315427 923651190 1575044998 696819532 -1085406013 1610921675 -8062845 829796722 -159183392 -1186785443 -850755126 1309454894 1948024069 1595502189 -807055104 -1689787289 -322327356 564994453 -1921172824 -267841833 339512123 331001834 143906682 -1176059842 -923215381
REM
CELL 1.54180   50.00000   50.00000   50.00000   90.00000   90.00000   90.00000
LATT -1
SFAC C  
C      1  0.4869030000000  0.5516860000000  0.4812940000000 1.0
C      1  0.4573640000000  0.5561080000000  0.5471270000000 1.0
C      1  0.4738490000000  0.4904210000000  0.5011400000000 1.0
C      1  0.4872540000000  0.5156740000000  0.5132500000000 1.0
C      1  0.5274790000000  0.4901310000000  0.5090890000000 1.0
C      1  0.5246370000000  0.4535290000000  0.4848380000000 1.0
C      1  0.5230180000000  0.5149550000000  0.4385920000000 1.0
C      1  0.5032950000000  0.4709240000000  0.5549860000000 1.0
C      1  0.4707650000000  0.5144020000000  0.4578160000000 1.0
C      1  0.5111900000000  0.5570270000000  0.4964730000000 1.0
C      1  0.5655030000000  0.5122840000000  0.4985870000000 1.0
C      1  0.5105790000000  0.5102190000000  0.4950280000000 1.0
C      1  0.5161740000000  0.4636160000000  0.5113870000000 1.0
C      1  0.5477210000000  0.4690450000000  0.4751570000000 1.0
C      1  0.4877980000000  0.4966810000000  0.4744110000000 1.0
C      1  0.5343620000000  0.5047380000000  0.5339120000000 1.0
C      1  0.4442930000000  0.4891380000000  0.5028730000000 1.0
C      1  0.5013810000000  0.4494400000000  0.4677990000000 1.0
C      1  0.5154860000000  0.4483310000000  0.5381610000000 1.0
C      1  0.5189370000000  0.4859000000000  0.4402530000000 1.0
C      1  0.4728540000000  0.5583720000000  0.5247970000000 1.0
C      1  0.5530610000000  0.4882650000000  0.4953180000000 1.0
C      1  0.5122900000000  0.4980570000000  0.5522260000000 1.0
C      1  0.4826290000000  0.4349460000000  0.4812620000000 1.0
C      1  0.5494510000000  0.5117280000000  0.4514320000000 1.0
C      1  0.5295780000000  0.5342570000000  0.4947400000000 1.0
C      1  0.4697170000000  0.5351450000000  0.5555530000000 1.0
C      1  0.4723150000000  0.5395860000000  0.5032990000000 1.0
C      1  0.4985050000000  0.4275290000000  0.5299870000000 1.0
C      1  0.4451030000000  0.5056520000000  0.4590950000000 1.0
C      1  0.5080290000000  0.5361580000000  0.4410200000000 1.0
C      1  0.4945120000000  0.5207070000000  0.5448880000000 1.0
C      1  0.4503930000000  0.4648980000000  0.5463270000000 1.0
C      1  0.4848990000000  0.5399420000000  0.4558550000000 1.0
C      1  0.4315450000000  0.4956870000000  0.4789730000000 1.0
C      1  0.4386960000000  0.4760830000000  0.5264320000000 1.0
C      1  0.4985040000000  0.4762220000000  0.4566980000000 1.0
C      1  0.5464290000000  0.4818500000000  0.4501170000000 1.0
C      1  0.5520540000000  0.5235270000000  0.4772580000000 1.0
C      1  0.5469410000000  0.5261270000000  0.5202210000000 1.0
C      1  0.4847000000000  0.4667240000000  0.5139520000000 1.0
C      1  0.5016510000000  0.5619040000000  0.5229450000000 1.0
C      1  0.4772630000000  0.4684280000000  0.5428850000000 1.0
C      1  0.5104530000000  0.5469830000000  0.5440360000000 1.0
C      1  0.4804410000000  0.4369690000000  0.5085120000000 1.0
END
