TITL C-21090-1295-6 -0.015571928708616 125000 -521.835316859455 0 0 76 (C1) n - 1
REM
REM in /rds/project/t2_vol4/rds-t2-cs072/BORA/CARBON/from-Arr/AIRSS/Generating-Clusters/GAP-ML-2020/Only-C1/SD-CG/HFTN-CG
REM
REM
REM
REM
REM
REM ./C.cell (11c1c37f851c82e70ff6c80c92926a4b)
REM AIRSS Version 0.9.1 bugfix July 2018 build 013d7b7c2542+ Fri, 06 Jul 2018 19:26:36 +0100
REM compiler GCC version 9.3.0
REM options -cpp -mtune=generic -march=x86-64 -g -O0
REM seed 359374035 1889215826 1493733906 763815575 1233001694 578949939 1476021777 -1956543047 332989805 -1331115042 173072713 472754188 461361506 1722678987 1460381661 514014210 798382343 -811846168 -1317120164 119542809 -1800728552 1276471701 -127149989 -1002437492 -1789571662 -514294111 315370834 1442497105 470063913 -19389620 780655717 680459012 1759339318
REM
CELL 1.54180   50.00000   50.00000   50.00000   90.00000   90.00000   90.00000
LATT -1
SFAC C  
C      1  0.5018020000000  0.5083530000000  0.5650050000000 1.0
C      1  0.4702580000000  0.5042840000000  0.4314690000000 1.0
C      1  0.5583860000000  0.5035780000000  0.4552450000000 1.0
C      1  0.4785150000000  0.4769380000000  0.4301070000000 1.0
C      1  0.4527040000000  0.4554220000000  0.5434660000000 1.0
C      1  0.5056020000000  0.4681350000000  0.4333850000000 1.0
C      1  0.5353850000000  0.5206210000000  0.5057410000000 1.0
C      1  0.5183880000000  0.5251970000000  0.4416340000000 1.0
C      1  0.4265940000000  0.4756670000000  0.4784750000000 1.0
C      1  0.4811220000000  0.5198890000000  0.5069500000000 1.0
C      1  0.4813520000000  0.5123730000000  0.4808690000000 1.0
C      1  0.4744930000000  0.5452760000000  0.4418420000000 1.0
C      1  0.4905790000000  0.5252450000000  0.4327950000000 1.0
C      1  0.5093050000000  0.4547370000000  0.5135270000000 1.0
C      1  0.4847610000000  0.4713600000000  0.5031850000000 1.0
C      1  0.5557350000000  0.5178260000000  0.5290160000000 1.0
C      1  0.4850680000000  0.5321900000000  0.5649220000000 1.0
C      1  0.4295220000000  0.4937680000000  0.5312670000000 1.0
C      1  0.4193020000000  0.5115710000000  0.5115710000000 1.0
C      1  0.4254980000000  0.5397300000000  0.5097940000000 1.0
C      1  0.4645150000000  0.4491890000000  0.4967530000000 1.0
C      1  0.4314430000000  0.5215930000000  0.4666230000000 1.0
C      1  0.4631400000000  0.4763350000000  0.5611930000000 1.0
C      1  0.4688230000000  0.5720130000000  0.5060960000000 1.0
C      1  0.5268920000000  0.4946030000000  0.4963120000000 1.0
C      1  0.5394170000000  0.4850960000000  0.4708620000000 1.0
C      1  0.5026850000000  0.4450120000000  0.4592690000000 1.0
C      1  0.5469460000000  0.4901960000000  0.5707610000000 1.0
C      1  0.5435370000000  0.5329280000000  0.5497060000000 1.0
C      1  0.4966270000000  0.5684960000000  0.5030030000000 1.0
C      1  0.4829710000000  0.5527320000000  0.5475910000000 1.0
C      1  0.4769960000000  0.5618300000000  0.4623840000000 1.0
C      1  0.5360980000000  0.5568920000000  0.5340350000000 1.0
C      1  0.4557020000000  0.5651160000000  0.4814230000000 1.0
C      1  0.5238060000000  0.4797710000000  0.5217050000000 1.0
C      1  0.5331370000000  0.4738940000000  0.4288500000000 1.0
C      1  0.5228940000000  0.5437070000000  0.4649040000000 1.0
C      1  0.5089080000000  0.5264490000000  0.5182230000000 1.0
C      1  0.5475260000000  0.4530890000000  0.4482310000000 1.0
C      1  0.5025060000000  0.5611560000000  0.4755120000000 1.0
C      1  0.5076920000000  0.4589360000000  0.5610590000000 1.0
C      1  0.4343140000000  0.5541200000000  0.5314860000000 1.0
C      1  0.5289440000000  0.4371250000000  0.4671140000000 1.0
C      1  0.4783280000000  0.4949140000000  0.5237810000000 1.0
C      1  0.5490340000000  0.4676250000000  0.5321620000000 1.0
C      1  0.5822980000000  0.4874260000000  0.5057170000000 1.0
C      1  0.4450310000000  0.5052730000000  0.4464600000000 1.0
C      1  0.5391530000000  0.5040350000000  0.4349230000000 1.0
C      1  0.5313170000000  0.5138090000000  0.5684670000000 1.0
C      1  0.5115120000000  0.4748650000000  0.4622540000000 1.0
C      1  0.5684120000000  0.5229600000000  0.4735190000000 1.0
C      1  0.4399560000000  0.4776480000000  0.4538780000000 1.0
C      1  0.5733910000000  0.4918030000000  0.5613720000000 1.0
C      1  0.4197380000000  0.5025280000000  0.4848880000000 1.0
C      1  0.5846760000000  0.5098230000000  0.4904530000000 1.0
C      1  0.5052830000000  0.5007820000000  0.5349930000000 1.0
C      1  0.4748980000000  0.4445140000000  0.4679600000000 1.0
C      1  0.5477290000000  0.5584570000000  0.5081410000000 1.0
C      1  0.5453690000000  0.5403520000000  0.4848920000000 1.0
C      1  0.5635730000000  0.4681840000000  0.4653000000000 1.0
C      1  0.4556180000000  0.4981520000000  0.5441650000000 1.0
C      1  0.4705740000000  0.4406270000000  0.5286370000000 1.0
C      1  0.4600580000000  0.5627060000000  0.5322260000000 1.0
C      1  0.5550460000000  0.4500330000000  0.5084250000000 1.0
C      1  0.5313240000000  0.4412740000000  0.4961100000000 1.0
C      1  0.4976950000000  0.4434500000000  0.5377620000000 1.0
C      1  0.4899200000000  0.4793000000000  0.5699170000000 1.0
C      1  0.4321700000000  0.4662070000000  0.5258230000000 1.0
C      1  0.4620520000000  0.4610010000000  0.4480410000000 1.0
C      1  0.5740730000000  0.4630050000000  0.4918190000000 1.0
C      1  0.5356430000000  0.4660220000000  0.5588360000000 1.0
C      1  0.4978700000000  0.4900470000000  0.4833020000000 1.0
C      1  0.5699400000000  0.4904680000000  0.5333560000000 1.0
C      1  0.4368080000000  0.4589240000000  0.4989410000000 1.0
C      1  0.4344980000000  0.5460590000000  0.4820920000000 1.0
C      1  0.5071260000000  0.5552920000000  0.5280290000000 1.0
END
