TITL C-21074-1303-1 40.0224797565576 125000 -1101.58567435037 0 0 158 (C1) n - 1
REM
REM in /rds/project/t2_vol4/rds-t2-cs072/BORA/CARBON/from-Arr/AIRSS/Generating-Clusters/GAP-ML-2020/Only-C1/SD-CG/HFTN-CG
REM
REM
REM
REM
REM
REM ./C.cell (11c1c37f851c82e70ff6c80c92926a4b)
REM AIRSS Version 0.9.1 bugfix July 2018 build 013d7b7c2542+ Fri, 06 Jul 2018 19:26:36 +0100
REM compiler GCC version 9.3.0
REM options -cpp -mtune=generic -march=x86-64 -g -O0
REM seed -495584925 -1848354861 -359065485 -241678490 -1595549667 -1758025865 -531188023 1282402089 -423028418 2045075672 -571184530 -695069567 296651884 -1244310984 1278563682 44417048 92890336 1786425545 767346256 -1599229966 -2019891423 276487803 1982920149 880131432 1480868304 -2035050806 1325454784 798330412 -771644424 -1667354828 -1709178994 -1520956210 -162170835
REM
CELL 1.54180   50.00000   50.00000   50.00000   90.00000   90.00000   90.00000
LATT -1
SFAC C  
C      1  0.5388090000000  0.4441780000000  0.5710610000000 1.0
C      1  0.6012680000000  0.5243350000000  0.5238800000000 1.0
C      1  0.5050480000000  0.5762360000000  0.4213100000000 1.0
C      1  0.5602480000000  0.5306010000000  0.4226640000000 1.0
C      1  0.4560690000000  0.5646440000000  0.4240430000000 1.0
C      1  0.4916100000000  0.4852580000000  0.4703560000000 1.0
C      1  0.4394000000000  0.4335850000000  0.5623730000000 1.0
C      1  0.4694210000000  0.4899290000000  0.5863460000000 1.0
C      1  0.4006900000000  0.5291420000000  0.4595900000000 1.0
C      1  0.5478060000000  0.4838720000000  0.4076710000000 1.0
C      1  0.3861040000000  0.5091890000000  0.4468720000000 1.0
C      1  0.5538380000000  0.4821270000000  0.5958830000000 1.0
C      1  0.5346220000000  0.4150710000000  0.4704840000000 1.0
C      1  0.5079970000000  0.6002570000000  0.5471500000000 1.0
C      1  0.4795370000000  0.4105370000000  0.5474290000000 1.0
C      1  0.4574610000000  0.5408490000000  0.4083290000000 1.0
C      1  0.4609100000000  0.5016660000000  0.5106880000000 1.0
C      1  0.5272470000000  0.4953320000000  0.5921070000000 1.0
C      1  0.5724230000000  0.5043030000000  0.4848360000000 1.0
C      1  0.4920840000000  0.6081210000000  0.5249190000000 1.0
C      1  0.5840090000000  0.4638090000000  0.4690770000000 1.0
C      1  0.4549580000000  0.4505970000000  0.4345900000000 1.0
C      1  0.4994240000000  0.5349270000000  0.5826490000000 1.0
C      1  0.5722860000000  0.5336290000000  0.4474500000000 1.0
C      1  0.4851730000000  0.5040930000000  0.4106930000000 1.0
C      1  0.4729030000000  0.5197000000000  0.5943970000000 1.0
C      1  0.5132790000000  0.4474290000000  0.4964480000000 1.0
C      1  0.4303130000000  0.5740300000000  0.4949650000000 1.0
C      1  0.5576400000000  0.5494700000000  0.4711120000000 1.0
C      1  0.4620910000000  0.4947350000000  0.4607000000000 1.0
C      1  0.4022850000000  0.5054690000000  0.5008530000000 1.0
C      1  0.5325590000000  0.4886090000000  0.5169400000000 1.0
C      1  0.4832570000000  0.4061680000000  0.4692170000000 1.0
C      1  0.5236420000000  0.4674840000000  0.4049760000000 1.0
C      1  0.4725810000000  0.5853180000000  0.4633330000000 1.0
C      1  0.5249060000000  0.4408320000000  0.4153120000000 1.0
C      1  0.5263440000000  0.3993260000000  0.4932290000000 1.0
C      1  0.4947910000000  0.4765730000000  0.4076140000000 1.0
C      1  0.4992310000000  0.5127480000000  0.4811380000000 1.0
C      1  0.5272790000000  0.5138560000000  0.4674140000000 1.0
C      1  0.4286470000000  0.4942560000000  0.4258680000000 1.0
C      1  0.5109900000000  0.5516600000000  0.5166550000000 1.0
C      1  0.5684650000000  0.5716710000000  0.4876720000000 1.0
C      1  0.4266980000000  0.4228110000000  0.5376700000000 1.0
C      1  0.6062410000000  0.5492890000000  0.5138100000000 1.0
C      1  0.5500320000000  0.5232530000000  0.4852850000000 1.0
C      1  0.4431770000000  0.4306720000000  0.4527060000000 1.0
C      1  0.4416880000000  0.5208780000000  0.4245990000000 1.0
C      1  0.5505680000000  0.5746750000000  0.5512590000000 1.0
C      1  0.4448520000000  0.4082160000000  0.5204150000000 1.0
C      1  0.4308880000000  0.5396410000000  0.5266470000000 1.0
C      1  0.4868520000000  0.5389960000000  0.4759830000000 1.0
C      1  0.4799880000000  0.4528990000000  0.4196870000000 1.0
C      1  0.4155950000000  0.5504350000000  0.5041810000000 1.0
C      1  0.5838630000000  0.4749360000000  0.5580610000000 1.0
C      1  0.4192710000000  0.4822560000000  0.4903160000000 1.0
C      1  0.5893840000000  0.4979000000000  0.5089070000000 1.0
C      1  0.4369300000000  0.5630040000000  0.4445820000000 1.0
C      1  0.5717250000000  0.4466470000000  0.4272980000000 1.0
C      1  0.5859840000000  0.4845010000000  0.4456910000000 1.0
C      1  0.5838070000000  0.5094480000000  0.4573810000000 1.0
C      1  0.4010570000000  0.5311650000000  0.4892360000000 1.0
C      1  0.4889610000000  0.4402230000000  0.5785480000000 1.0
C      1  0.4375550000000  0.4086380000000  0.4928540000000 1.0
C      1  0.5103300000000  0.5634620000000  0.5789290000000 1.0
C      1  0.5029420000000  0.4872630000000  0.5191870000000 1.0
C      1  0.6052480000000  0.4605700000000  0.5453650000000 1.0
C      1  0.5348790000000  0.5944170000000  0.5373310000000 1.0
C      1  0.4503490000000  0.5775900000000  0.5152890000000 1.0
C      1  0.5568870000000  0.4175800000000  0.5223760000000 1.0
C      1  0.4515020000000  0.4966830000000  0.5371740000000 1.0
C      1  0.4934790000000  0.4690310000000  0.4965530000000 1.0
C      1  0.4306340000000  0.5113740000000  0.5725880000000 1.0
C      1  0.5249180000000  0.5235760000000  0.5926510000000 1.0
C      1  0.4993310000000  0.4330000000000  0.4254410000000 1.0
C      1  0.4713170000000  0.5136750000000  0.4358970000000 1.0
C      1  0.4985680000000  0.4843210000000  0.5476690000000 1.0
C      1  0.4456580000000  0.5214630000000  0.4704950000000 1.0
C      1  0.4253620000000  0.5140520000000  0.5427740000000 1.0
C      1  0.5166130000000  0.4401540000000  0.4682350000000 1.0
C      1  0.5787390000000  0.5263070000000  0.5458380000000 1.0
C      1  0.4884710000000  0.5384240000000  0.4470460000000 1.0
C      1  0.4406150000000  0.4846460000000  0.5814610000000 1.0
C      1  0.4883320000000  0.5111580000000  0.5097790000000 1.0
C      1  0.4034040000000  0.4888950000000  0.4406920000000 1.0
C      1  0.5239250000000  0.5929460000000  0.4336980000000 1.0
C      1  0.4671830000000  0.5769460000000  0.5685620000000 1.0
C      1  0.5567360000000  0.4571670000000  0.5504120000000 1.0
C      1  0.4550610000000  0.4105070000000  0.4697610000000 1.0
C      1  0.4599710000000  0.4526020000000  0.5228920000000 1.0
C      1  0.5818890000000  0.5626240000000  0.5118550000000 1.0
C      1  0.5077120000000  0.5499980000000  0.4052720000000 1.0
C      1  0.5717490000000  0.4739710000000  0.4225550000000 1.0
C      1  0.4876270000000  0.4650380000000  0.5941980000000 1.0
C      1  0.5138780000000  0.4322990000000  0.5640130000000 1.0
C      1  0.5569330000000  0.4184860000000  0.4535130000000 1.0
C      1  0.5290370000000  0.5593440000000  0.4643410000000 1.0
C      1  0.4433520000000  0.4758760000000  0.4437580000000 1.0
C      1  0.4812750000000  0.5710860000000  0.4378970000000 1.0
C      1  0.5000180000000  0.4218910000000  0.4524780000000 1.0
C      1  0.5193330000000  0.5357110000000  0.4463950000000 1.0
C      1  0.4519620000000  0.5579040000000  0.5756060000000 1.0
C      1  0.4351000000000  0.4615370000000  0.5650830000000 1.0
C      1  0.5750790000000  0.4921560000000  0.5816130000000 1.0
C      1  0.5974770000000  0.4702630000000  0.4976360000000 1.0
C      1  0.5387120000000  0.5622250000000  0.5740350000000 1.0
C      1  0.5573070000000  0.4762690000000  0.4797770000000 1.0
C      1  0.4150350000000  0.4688270000000  0.5192140000000 1.0
C      1  0.5065110000000  0.5593660000000  0.4873350000000 1.0
C      1  0.5091000000000  0.4154500000000  0.5401470000000 1.0
C      1  0.4897140000000  0.5887090000000  0.4866880000000 1.0
C      1  0.5337030000000  0.4048090000000  0.5218480000000 1.0
C      1  0.5630820000000  0.4455530000000  0.5233680000000 1.0
C      1  0.4469330000000  0.5723930000000  0.4701500000000 1.0
C      1  0.4754820000000  0.4988000000000  0.5565120000000 1.0
C      1  0.5350050000000  0.6023210000000  0.5077380000000 1.0
C      1  0.4163040000000  0.4696350000000  0.4620600000000 1.0
C      1  0.4880430000000  0.5256940000000  0.5547270000000 1.0
C      1  0.4596180000000  0.5426130000000  0.4852090000000 1.0
C      1  0.4117890000000  0.4394100000000  0.5183130000000 1.0
C      1  0.5229820000000  0.4904330000000  0.5606730000000 1.0
C      1  0.5357790000000  0.4856750000000  0.4618340000000 1.0
C      1  0.5488850000000  0.4299860000000  0.4261640000000 1.0
C      1  0.5468360000000  0.5119810000000  0.4087120000000 1.0
C      1  0.4197990000000  0.4413090000000  0.4661560000000 1.0
C      1  0.4978120000000  0.4238040000000  0.5115600000000 1.0
C      1  0.5736630000000  0.4962290000000  0.5374440000000 1.0
C      1  0.5142630000000  0.4692990000000  0.4574480000000 1.0
C      1  0.5709740000000  0.5208770000000  0.5740910000000 1.0
C      1  0.5939720000000  0.4534470000000  0.5200490000000 1.0
C      1  0.5426060000000  0.4630900000000  0.5028340000000 1.0
C      1  0.5394460000000  0.5166140000000  0.5104880000000 1.0
C      1  0.5628240000000  0.5522530000000  0.5344950000000 1.0
C      1  0.4658150000000  0.4638050000000  0.4986350000000 1.0
C      1  0.4166260000000  0.4282060000000  0.4915090000000 1.0
C      1  0.4498910000000  0.4864240000000  0.4898710000000 1.0
C      1  0.5348250000000  0.5880320000000  0.4583910000000 1.0
C      1  0.4579750000000  0.5483820000000  0.5178440000000 1.0
C      1  0.4847520000000  0.5325020000000  0.4007450000000 1.0
C      1  0.4983990000000  0.4007840000000  0.4930480000000 1.0
C      1  0.5389420000000  0.4570750000000  0.5961330000000 1.0
C      1  0.4482900000000  0.5312990000000  0.5836440000000 1.0
C      1  0.5448970000000  0.4847900000000  0.5430620000000 1.0
C      1  0.4275480000000  0.5357120000000  0.4468890000000 1.0
C      1  0.4945630000000  0.5841290000000  0.5672570000000 1.0
C      1  0.4670460000000  0.4246330000000  0.5680290000000 1.0
C      1  0.5351410000000  0.5393210000000  0.5252580000000 1.0
C      1  0.4693640000000  0.4246830000000  0.5237570000000 1.0
C      1  0.4399620000000  0.4692790000000  0.5371590000000 1.0
C      1  0.4870220000000  0.5371080000000  0.5272090000000 1.0
C      1  0.5082720000000  0.6092680000000  0.5011010000000 1.0
C      1  0.5136800000000  0.4708830000000  0.6024180000000 1.0
C      1  0.5482730000000  0.5366860000000  0.5833580000000 1.0
C      1  0.5301540000000  0.5349120000000  0.4180540000000 1.0
C      1  0.4051060000000  0.4972150000000  0.5275100000000 1.0
C      1  0.4713990000000  0.5946360000000  0.5110710000000 1.0
C      1  0.5788020000000  0.4382610000000  0.4545580000000 1.0
C      1  0.5494380000000  0.5928040000000  0.4847060000000 1.0
END
