TITL C-21894-2396-2 -343.0997515766 125000 -721.492613747295 0 0 102 (C1) n - 1
REM
REM in /rds/project/t2_vol4/rds-t2-cs072/BORA/CARBON/from-Arr/AIRSS/Generating-Clusters/GAP-ML-2020/Only-C1/SD-CG/HFTN-CG
REM
REM
REM
REM
REM
REM ./C.cell (11c1c37f851c82e70ff6c80c92926a4b)
REM AIRSS Version 0.9.1 bugfix July 2018 build 013d7b7c2542+ Fri, 06 Jul 2018 19:26:36 +0100
REM compiler GCC version 9.3.0
REM options -cpp -mtune=generic -march=x86-64 -g -O0
REM seed -2142412164 -766551955 2085152356 811402478 472309719 -874169742 -2041697804 -264181350 164126702 -490296365 -526390041 -542828453 1017630343 -1886192073 -1776409827 -260165503 1509114296 1032293394 1601424849 1167649047 -1086070066 -96462245 981352282 -111608269 -673626781 -420923372 -102895945 946978560 -2054324683 270349479 191946846 -2008515303 127819966
REM
CELL 1.54180   50.00000   50.00000   50.00000   90.00000   90.00000   90.00000
LATT -1
SFAC C  
C      1  0.4718150000000  0.4404560000000  0.5589890000000 1.0
C      1  0.4915660000000  0.4448870000000  0.4244660000000 1.0
C      1  0.4313310000000  0.5096860000000  0.4527840000000 1.0
C      1  0.5675990000000  0.4712470000000  0.4432010000000 1.0
C      1  0.4459690000000  0.5419990000000  0.5631020000000 1.0
C      1  0.4462400000000  0.5657030000000  0.4832240000000 1.0
C      1  0.4914340000000  0.5359920000000  0.5772130000000 1.0
C      1  0.5174780000000  0.4826400000000  0.4689080000000 1.0
C      1  0.5337870000000  0.5792780000000  0.5028140000000 1.0
C      1  0.5620320000000  0.4600680000000  0.5692640000000 1.0
C      1  0.5546890000000  0.5650000000000  0.5163750000000 1.0
C      1  0.4754900000000  0.4813270000000  0.4106760000000 1.0
C      1  0.5351010000000  0.5206340000000  0.5084910000000 1.0
C      1  0.5128080000000  0.4169730000000  0.5361350000000 1.0
C      1  0.4805540000000  0.4148100000000  0.4883870000000 1.0
C      1  0.5143160000000  0.4639700000000  0.5796930000000 1.0
C      1  0.4220210000000  0.4827680000000  0.5226040000000 1.0
C      1  0.4984730000000  0.4708240000000  0.5282290000000 1.0
C      1  0.5187470000000  0.5665720000000  0.5549080000000 1.0
C      1  0.5286310000000  0.4155180000000  0.4834100000000 1.0
C      1  0.5188500000000  0.5428290000000  0.5679460000000 1.0
C      1  0.4467870000000  0.4738950000000  0.4820930000000 1.0
C      1  0.4434370000000  0.4884870000000  0.5711990000000 1.0
C      1  0.4957410000000  0.5215970000000  0.4188000000000 1.0
C      1  0.4689390000000  0.4243900000000  0.5138370000000 1.0
C      1  0.4354640000000  0.4808060000000  0.4546410000000 1.0
C      1  0.5783450000000  0.5305150000000  0.5161570000000 1.0
C      1  0.5224010000000  0.4892490000000  0.5681500000000 1.0
C      1  0.4509700000000  0.5230260000000  0.4343380000000 1.0
C      1  0.4708770000000  0.5077100000000  0.4184340000000 1.0
C      1  0.4465090000000  0.4487910000000  0.5471540000000 1.0
C      1  0.5343530000000  0.4406010000000  0.4448020000000 1.0
C      1  0.5011900000000  0.5807880000000  0.5400590000000 1.0
C      1  0.4639760000000  0.5665480000000  0.4604590000000 1.0
C      1  0.5652240000000  0.4528280000000  0.5141470000000 1.0
C      1  0.5024520000000  0.4164750000000  0.4700540000000 1.0
C      1  0.4749850000000  0.5750960000000  0.5488600000000 1.0
C      1  0.4479690000000  0.5167760000000  0.5755140000000 1.0
C      1  0.4716750000000  0.5071930000000  0.5172790000000 1.0
C      1  0.4169870000000  0.5089070000000  0.5085170000000 1.0
C      1  0.4452510000000  0.4405870000000  0.5198570000000 1.0
C      1  0.5150670000000  0.5592290000000  0.4341000000000 1.0
C      1  0.4714180000000  0.5544760000000  0.5680370000000 1.0
C      1  0.5255410000000  0.5102210000000  0.4621240000000 1.0
C      1  0.5572090000000  0.5495380000000  0.4722550000000 1.0
C      1  0.4800500000000  0.5075010000000  0.4708280000000 1.0
C      1  0.4636850000000  0.4566140000000  0.4214080000000 1.0
C      1  0.5507970000000  0.4319810000000  0.5259510000000 1.0
C      1  0.5281830000000  0.4725880000000  0.4932240000000 1.0
C      1  0.4766190000000  0.4854850000000  0.5320240000000 1.0
C      1  0.4845620000000  0.4231770000000  0.5391410000000 1.0
C      1  0.5069590000000  0.4571490000000  0.5050640000000 1.0
C      1  0.5357800000000  0.5714400000000  0.4758340000000 1.0
C      1  0.4326710000000  0.4623750000000  0.5054440000000 1.0
C      1  0.4409590000000  0.4630090000000  0.4345590000000 1.0
C      1  0.4347300000000  0.5520790000000  0.5382020000000 1.0
C      1  0.5262920000000  0.4833140000000  0.4174670000000 1.0
C      1  0.4589230000000  0.5801590000000  0.5041920000000 1.0
C      1  0.4905380000000  0.5480410000000  0.4258620000000 1.0
C      1  0.5595130000000  0.5463540000000  0.4430100000000 1.0
C      1  0.4856310000000  0.5875740000000  0.4957540000000 1.0
C      1  0.4529300000000  0.5737200000000  0.5306770000000 1.0
C      1  0.4723790000000  0.4617800000000  0.4752390000000 1.0
C      1  0.5674570000000  0.4820670000000  0.5254370000000 1.0
C      1  0.5076610000000  0.5296160000000  0.5023970000000 1.0
C      1  0.4709150000000  0.4826960000000  0.5814150000000 1.0
C      1  0.5735740000000  0.5527440000000  0.4979060000000 1.0
C      1  0.4861060000000  0.4589970000000  0.5776850000000 1.0
C      1  0.5494330000000  0.5199010000000  0.4789170000000 1.0
C      1  0.5303130000000  0.4160580000000  0.5116120000000 1.0
C      1  0.4859990000000  0.4430590000000  0.4908760000000 1.0
C      1  0.5819180000000  0.5034130000000  0.5089190000000 1.0
C      1  0.5027760000000  0.5241220000000  0.4749950000000 1.0
C      1  0.5735890000000  0.5011390000000  0.4817130000000 1.0
C      1  0.5346510000000  0.4294970000000  0.5502780000000 1.0
C      1  0.5140790000000  0.5747860000000  0.4578620000000 1.0
C      1  0.4319060000000  0.4740390000000  0.5496850000000 1.0
C      1  0.5722680000000  0.4754780000000  0.4693490000000 1.0
C      1  0.4862170000000  0.5297370000000  0.5185660000000 1.0
C      1  0.5370330000000  0.4916550000000  0.5169540000000 1.0
C      1  0.4895970000000  0.4813800000000  0.4646190000000 1.0
C      1  0.4613900000000  0.5018480000000  0.4910080000000 1.0
C      1  0.4209250000000  0.5194350000000  0.4791640000000 1.0
C      1  0.5460060000000  0.4331550000000  0.4699650000000 1.0
C      1  0.5203770000000  0.4834400000000  0.5394050000000 1.0
C      1  0.4882540000000  0.5800490000000  0.4685170000000 1.0
C      1  0.4266120000000  0.5459850000000  0.4900800000000 1.0
C      1  0.5223360000000  0.5120390000000  0.4280710000000 1.0
C      1  0.5524850000000  0.5376100000000  0.5308960000000 1.0
C      1  0.5478510000000  0.5032510000000  0.5673160000000 1.0
C      1  0.5445720000000  0.4643400000000  0.4305140000000 1.0
C      1  0.4758720000000  0.5121700000000  0.5839670000000 1.0
C      1  0.5080190000000  0.5873950000000  0.5131320000000 1.0
C      1  0.5581660000000  0.4551420000000  0.4858810000000 1.0
C      1  0.5661830000000  0.4832300000000  0.5555830000000 1.0
C      1  0.5022940000000  0.4698450000000  0.4122790000000 1.0
C      1  0.5070860000000  0.4312270000000  0.4439000000000 1.0
C      1  0.4217670000000  0.5373440000000  0.5172700000000 1.0
C      1  0.5369280000000  0.5406130000000  0.4294270000000 1.0
C      1  0.4642220000000  0.5494300000000  0.4378440000000 1.0
C      1  0.5371570000000  0.4471660000000  0.5723190000000 1.0
C      1  0.5431070000000  0.5296490000000  0.5587050000000 1.0
END
