TITL C-21791-3098-8 0.00406942106650874 125000 -701.87009017259 0 0 100 (C1) n - 1
REM
REM in /rds/project/t2_vol4/rds-t2-cs072/BORA/CARBON/from-Arr/AIRSS/Generating-Clusters/GAP-ML-2020/Only-C1/SD-CG/HFTN-CG
REM
REM
REM
REM
REM
REM ./C.cell (11c1c37f851c82e70ff6c80c92926a4b)
REM AIRSS Version 0.9.1 bugfix July 2018 build 013d7b7c2542+ Fri, 06 Jul 2018 19:26:36 +0100
REM compiler GCC version 9.3.0
REM options -cpp -mtune=generic -march=x86-64 -g -O0
REM seed 1836325513 1747804196 221259637 -1651668524 2097949744 -717960118 -907216034 -870164538 -954852987 876520292 1722757534 -982880286 -115019657 -1064834476 -557366742 1261645276 -785366666 201362279 -750089465 522178785 -724131686 -2141479281 -135671898 -1519301649 -371629341 -2112449591 1719110746 248594081 -205346098 -1449985188 -1432516643 -886833178 1116680921
REM
CELL 1.54180   50.00000   50.00000   50.00000   90.00000   90.00000   90.00000
LATT -1
SFAC C  
C      1  0.5027820000000  0.5082510000000  0.5061620000000 1.0
C      1  0.4830790000000  0.5486360000000  0.5124040000000 1.0
C      1  0.4895130000000  0.4281050000000  0.4818450000000 1.0
C      1  0.5599440000000  0.4676880000000  0.4839990000000 1.0
C      1  0.5228680000000  0.5429480000000  0.4255760000000 1.0
C      1  0.5630130000000  0.4587390000000  0.5377460000000 1.0
C      1  0.5325860000000  0.5454320000000  0.5239050000000 1.0
C      1  0.4874020000000  0.5757340000000  0.5241520000000 1.0
C      1  0.4365720000000  0.4468280000000  0.5258980000000 1.0
C      1  0.4562950000000  0.5223680000000  0.5738800000000 1.0
C      1  0.5426080000000  0.4442760000000  0.4745110000000 1.0
C      1  0.5012110000000  0.5734070000000  0.5490380000000 1.0
C      1  0.4854910000000  0.4896910000000  0.5385400000000 1.0
C      1  0.5052560000000  0.5886030000000  0.4766020000000 1.0
C      1  0.4191440000000  0.4758380000000  0.4790830000000 1.0
C      1  0.4314960000000  0.5333830000000  0.4820200000000 1.0
C      1  0.4827350000000  0.4943300000000  0.4682220000000 1.0
C      1  0.4362300000000  0.5278270000000  0.5285950000000 1.0
C      1  0.5471110000000  0.5442680000000  0.4948790000000 1.0
C      1  0.4748230000000  0.4766540000000  0.5818830000000 1.0
C      1  0.5039520000000  0.5305850000000  0.5246270000000 1.0
C      1  0.5317930000000  0.5433020000000  0.5694900000000 1.0
C      1  0.5478410000000  0.5212070000000  0.5612900000000 1.0
C      1  0.4267920000000  0.4906900000000  0.4560350000000 1.0
C      1  0.4996600000000  0.5155280000000  0.4768370000000 1.0
C      1  0.4622100000000  0.5811560000000  0.4841280000000 1.0
C      1  0.5745970000000  0.4777460000000  0.4613110000000 1.0
C      1  0.4947600000000  0.5385990000000  0.4179770000000 1.0
C      1  0.4249960000000  0.4734390000000  0.5279170000000 1.0
C      1  0.5611880000000  0.5186260000000  0.5057380000000 1.0
C      1  0.5042390000000  0.4190800000000  0.5307480000000 1.0
C      1  0.4981750000000  0.5139800000000  0.5471190000000 1.0
C      1  0.4426360000000  0.4775710000000  0.4354950000000 1.0
C      1  0.4997070000000  0.4627650000000  0.5396010000000 1.0
C      1  0.4332420000000  0.5189570000000  0.4565120000000 1.0
C      1  0.5248430000000  0.4676480000000  0.4309530000000 1.0
C      1  0.4893340000000  0.5582950000000  0.5711900000000 1.0
C      1  0.5006910000000  0.5142160000000  0.5934130000000 1.0
C      1  0.5426760000000  0.4952440000000  0.5724500000000 1.0
C      1  0.5089570000000  0.4160810000000  0.5018990000000 1.0
C      1  0.5270670000000  0.5095530000000  0.4690680000000 1.0
C      1  0.5420280000000  0.4914090000000  0.4279990000000 1.0
C      1  0.4544860000000  0.4515150000000  0.4384980000000 1.0
C      1  0.4827200000000  0.4468530000000  0.4338480000000 1.0
C      1  0.4770650000000  0.4942490000000  0.5121670000000 1.0
C      1  0.4514110000000  0.5228070000000  0.4338290000000 1.0
C      1  0.4886870000000  0.5425280000000  0.4813630000000 1.0
C      1  0.5892570000000  0.5153090000000  0.4963200000000 1.0
C      1  0.5556910000000  0.4178380000000  0.5117730000000 1.0
C      1  0.5131910000000  0.4626340000000  0.5127230000000 1.0
C      1  0.5009410000000  0.5118410000000  0.4093260000000 1.0
C      1  0.4714810000000  0.5428560000000  0.4331950000000 1.0
C      1  0.5257680000000  0.4470470000000  0.4516750000000 1.0
C      1  0.4830910000000  0.4370380000000  0.5406350000000 1.0
C      1  0.4594410000000  0.4240910000000  0.4813700000000 1.0
C      1  0.5263460000000  0.4284680000000  0.5468100000000 1.0
C      1  0.4449680000000  0.4369520000000  0.4600420000000 1.0
C      1  0.4798050000000  0.5836380000000  0.4616360000000 1.0
C      1  0.5891490000000  0.5331260000000  0.4720660000000 1.0
C      1  0.4646900000000  0.5482640000000  0.5713130000000 1.0
C      1  0.5315470000000  0.5553540000000  0.4493560000000 1.0
C      1  0.4386420000000  0.4345910000000  0.5005060000000 1.0
C      1  0.4573550000000  0.4971750000000  0.4219470000000 1.0
C      1  0.5305690000000  0.5781000000000  0.4680920000000 1.0
C      1  0.5083880000000  0.5405690000000  0.5851040000000 1.0
C      1  0.4836690000000  0.4905340000000  0.4121090000000 1.0
C      1  0.5795390000000  0.5600840000000  0.4771500000000 1.0
C      1  0.5187050000000  0.4925030000000  0.5890640000000 1.0
C      1  0.5562720000000  0.5711990000000  0.4844330000000 1.0
C      1  0.4772770000000  0.5563950000000  0.4573690000000 1.0
C      1  0.5275950000000  0.5624220000000  0.5484730000000 1.0
C      1  0.5685400000000  0.5223170000000  0.4555880000000 1.0
C      1  0.5283490000000  0.5143730000000  0.4180120000000 1.0
C      1  0.4533710000000  0.4664420000000  0.5652120000000 1.0
C      1  0.5362870000000  0.4223520000000  0.4931390000000 1.0
C      1  0.4995220000000  0.4339200000000  0.4531320000000 1.0
C      1  0.5235000000000  0.4882440000000  0.5089830000000 1.0
C      1  0.5519700000000  0.4315990000000  0.5347030000000 1.0
C      1  0.5208750000000  0.4550400000000  0.5610900000000 1.0
C      1  0.4565130000000  0.4440070000000  0.5465920000000 1.0
C      1  0.5661110000000  0.4961240000000  0.4436790000000 1.0
C      1  0.4533720000000  0.5489730000000  0.5177510000000 1.0
C      1  0.5428700000000  0.5332810000000  0.4646120000000 1.0
C      1  0.4388550000000  0.5131210000000  0.5531870000000 1.0
C      1  0.4739330000000  0.5045430000000  0.5882150000000 1.0
C      1  0.4441140000000  0.5584690000000  0.4926080000000 1.0
C      1  0.4349360000000  0.4851330000000  0.5521730000000 1.0
C      1  0.4857360000000  0.5887390000000  0.4999020000000 1.0
C      1  0.4752830000000  0.4781830000000  0.4888760000000 1.0
C      1  0.4259810000000  0.4485210000000  0.4786970000000 1.0
C      1  0.4244320000000  0.5168970000000  0.5052180000000 1.0
C      1  0.4935370000000  0.4570210000000  0.4927610000000 1.0
C      1  0.5938460000000  0.4907900000000  0.5080560000000 1.0
C      1  0.5465500000000  0.4699860000000  0.5590730000000 1.0
C      1  0.4182700000000  0.4891210000000  0.5046050000000 1.0
C      1  0.5436820000000  0.4952670000000  0.4907440000000 1.0
C      1  0.5761400000000  0.4700700000000  0.5130920000000 1.0
C      1  0.5524770000000  0.5266560000000  0.5336480000000 1.0
C      1  0.4976760000000  0.4671430000000  0.4208570000000 1.0
C      1  0.5039810000000  0.4690010000000  0.5828660000000 1.0
END
