TITL C-2109098-3686-14 -0.197948832449384 125000 -516.620209098348 0 0 74 (C1) n - 1
REM
REM in /nfs/bkarasulu/CARBON/AIRSS/Generating-Clusters/GAP-ML-2020/Only-C1/SD-CG/HFTN-CG
REM
REM
REM
REM
REM
REM ./C.cell (11c1c37f851c82e70ff6c80c92926a4b)
REM
REM compiler GCC version 9.2.1 20190827 (Red Hat 9.2.1-1)
REM options -cpp -mtune=generic -march=x86-64 -g -O0 -fpre-include=/usr/include/finclude/math-vector-fortran.h
REM seed -201422966 -1607164455 -1513668795 1034880255 98985909 -380848904 1171410060 1395212732 -701258115 328029525 -1885251857 -425840969 455983912 -1885297217 355055071 -1456022343 -1286594121 2114035187 -1011960814 -610111694 1340354730 -1479223126 -1679248957 788133104 -97855023 1983597319 -1290865744 1058459054 -1144303469 -22644320 471521334 -818043778 -1378263424
REM
CELL 1.54180   50.00000   50.00000   50.00000   90.00000   90.00000   90.00000
LATT -1
SFAC C  
C      1  0.5700000000000  0.5106020000000  0.5170230000000 1.0
C      1  0.4336590000000  0.4656930000000  0.5102710000000 1.0
C      1  0.4883260000000  0.5708570000000  0.5234570000000 1.0
C      1  0.5241220000000  0.4785710000000  0.4912170000000 1.0
C      1  0.4941680000000  0.5139890000000  0.5127940000000 1.0
C      1  0.4584980000000  0.5095190000000  0.4403480000000 1.0
C      1  0.4684570000000  0.4828930000000  0.4477120000000 1.0
C      1  0.4936420000000  0.4737980000000  0.4323460000000 1.0
C      1  0.5113940000000  0.4788970000000  0.5751640000000 1.0
C      1  0.4944440000000  0.4268330000000  0.5098570000000 1.0
C      1  0.5299650000000  0.4825950000000  0.5212410000000 1.0
C      1  0.4783430000000  0.5515110000000  0.4446780000000 1.0
C      1  0.4960810000000  0.4688990000000  0.4897160000000 1.0
C      1  0.4439620000000  0.5246370000000  0.4605610000000 1.0
C      1  0.4636470000000  0.5426040000000  0.5554280000000 1.0
C      1  0.4546280000000  0.4733960000000  0.5561410000000 1.0
C      1  0.4623310000000  0.4429350000000  0.4791800000000 1.0
C      1  0.4333350000000  0.5099520000000  0.5348040000000 1.0
C      1  0.4873960000000  0.4685300000000  0.5174050000000 1.0
C      1  0.4503900000000  0.4633910000000  0.4637080000000 1.0
C      1  0.5084200000000  0.5216350000000  0.5574780000000 1.0
C      1  0.5543640000000  0.4746390000000  0.4575290000000 1.0
C      1  0.4651620000000  0.4973680000000  0.5682200000000 1.0
C      1  0.5363270000000  0.5593250000000  0.5197590000000 1.0
C      1  0.5397330000000  0.4841230000000  0.5726530000000 1.0
C      1  0.4640800000000  0.5583250000000  0.5335250000000 1.0
C      1  0.5468960000000  0.5316140000000  0.4777880000000 1.0
C      1  0.4345280000000  0.4783500000000  0.4843930000000 1.0
C      1  0.4916900000000  0.4384330000000  0.4824590000000 1.0
C      1  0.5348260000000  0.5556410000000  0.4916560000000 1.0
C      1  0.4355730000000  0.4809920000000  0.5349110000000 1.0
C      1  0.5107480000000  0.5669580000000  0.4791150000000 1.0
C      1  0.5146810000000  0.4931580000000  0.4272550000000 1.0
C      1  0.4934060000000  0.5021310000000  0.5733840000000 1.0
C      1  0.4507490000000  0.4433090000000  0.5060200000000 1.0
C      1  0.4474810000000  0.5509310000000  0.5111260000000 1.0
C      1  0.5168130000000  0.5091620000000  0.5292270000000 1.0
C      1  0.5706970000000  0.4685300000000  0.5012840000000 1.0
C      1  0.5470540000000  0.5339920000000  0.4481350000000 1.0
C      1  0.5133630000000  0.4399230000000  0.4620710000000 1.0
C      1  0.5132950000000  0.4599190000000  0.5327180000000 1.0
C      1  0.5434330000000  0.4901870000000  0.4360650000000 1.0
C      1  0.4788060000000  0.5269920000000  0.4299300000000 1.0
C      1  0.5218390000000  0.5415870000000  0.4377460000000 1.0
C      1  0.5001260000000  0.4580620000000  0.5592500000000 1.0
C      1  0.4872400000000  0.5717250000000  0.4950890000000 1.0
C      1  0.4725670000000  0.4517890000000  0.5529930000000 1.0
C      1  0.4724930000000  0.4414220000000  0.5243830000000 1.0
C      1  0.4575700000000  0.4942650000000  0.4929300000000 1.0
C      1  0.5605430000000  0.4835520000000  0.5248450000000 1.0
C      1  0.5565240000000  0.4941840000000  0.5548340000000 1.0
C      1  0.5206090000000  0.5471270000000  0.5563240000000 1.0
C      1  0.4354840000000  0.5123720000000  0.4850210000000 1.0
C      1  0.4326660000000  0.5262890000000  0.5108230000000 1.0
C      1  0.5024640000000  0.4492660000000  0.4395800000000 1.0
C      1  0.5581280000000  0.5131650000000  0.4346080000000 1.0
C      1  0.5384950000000  0.4548640000000  0.4725960000000 1.0
C      1  0.5469480000000  0.5442280000000  0.5425260000000 1.0
C      1  0.5192000000000  0.4336790000000  0.5205850000000 1.0
C      1  0.5442310000000  0.4281900000000  0.5125230000000 1.0
C      1  0.5692990000000  0.4868820000000  0.4791020000000 1.0
C      1  0.4610690000000  0.5614440000000  0.4880670000000 1.0
C      1  0.5126340000000  0.5662960000000  0.5357030000000 1.0
C      1  0.4501590000000  0.5191580000000  0.5566870000000 1.0
C      1  0.5235140000000  0.5061880000000  0.4784730000000 1.0
C      1  0.5060700000000  0.5202210000000  0.4256280000000 1.0
C      1  0.5048290000000  0.5591810000000  0.4520630000000 1.0
C      1  0.4806510000000  0.4902570000000  0.4755520000000 1.0
C      1  0.4741190000000  0.4947770000000  0.5193670000000 1.0
C      1  0.4566800000000  0.5502120000000  0.4627670000000 1.0
C      1  0.4974450000000  0.5137110000000  0.4842190000000 1.0
C      1  0.5681670000000  0.5141060000000  0.4891130000000 1.0
C      1  0.5630810000000  0.5215430000000  0.5424320000000 1.0
C      1  0.5562450000000  0.4445190000000  0.4944200000000 1.0
END
