TITL C-21707-8240-5 334.124888206081 125000 -257.433627041176 0 0 39 (C1) n - 1
REM
REM in /rds/project/t2_vol4/rds-t2-cs072/BORA/CARBON/from-Arr/AIRSS/Generating-Clusters/GAP-ML-2020/Only-C1/SD-CG/HFTN-CG
REM
REM
REM
REM
REM
REM ./C.cell (11c1c37f851c82e70ff6c80c92926a4b)
REM AIRSS Version 0.9.1 bugfix July 2018 build 013d7b7c2542+ Fri, 06 Jul 2018 19:26:36 +0100
REM compiler GCC version 9.3.0
REM options -cpp -mtune=generic -march=x86-64 -g -O0
REM seed -1865764777 -464590975 -1882404365 2001736462 -464058208 452341018 1596941643 328966031 -776663612 356940435 -1041896214 -1913537458 591990007 -969704540 -2102810352 -1325355546 -1378188923 -1546265781 -1520061756 -1342322899 582040597 -2047946471 -816056928 33379013 1297309951 -1064970704 389417837 -1504507808 -628182426 -682112766 -1228386619 194049144 350397236
REM
CELL 1.54180   50.00000   50.00000   50.00000   90.00000   90.00000   90.00000
LATT -1
SFAC C  
C      1  0.4967170000000  0.5285960000000  0.4581490000000 1.0
C      1  0.5494230000000  0.4804510000000  0.4723460000000 1.0
C      1  0.5259270000000  0.4490120000000  0.4996290000000 1.0
C      1  0.5023840000000  0.5038550000000  0.5299960000000 1.0
C      1  0.4641120000000  0.4353960000000  0.4962720000000 1.0
C      1  0.4713720000000  0.5140520000000  0.4538390000000 1.0
C      1  0.5225720000000  0.4877160000000  0.4637480000000 1.0
C      1  0.4716850000000  0.5310350000000  0.5071180000000 1.0
C      1  0.4566570000000  0.5378900000000  0.4618710000000 1.0
C      1  0.4832770000000  0.5527410000000  0.4666010000000 1.0
C      1  0.4563210000000  0.4993990000000  0.5447770000000 1.0
C      1  0.5124180000000  0.5498540000000  0.5188490000000 1.0
C      1  0.4795240000000  0.4866440000000  0.5411520000000 1.0
C      1  0.4300920000000  0.5259990000000  0.5078950000000 1.0
C      1  0.4744610000000  0.4871220000000  0.4923510000000 1.0
C      1  0.4872950000000  0.5564850000000  0.5080780000000 1.0
C      1  0.5512850000000  0.4895590000000  0.5343040000000 1.0
C      1  0.4855650000000  0.5724950000000  0.4848590000000 1.0
C      1  0.4910530000000  0.5081700000000  0.5012140000000 1.0
C      1  0.5398220000000  0.5231220000000  0.4885530000000 1.0
C      1  0.5109910000000  0.5303990000000  0.5409400000000 1.0
C      1  0.5086410000000  0.4446650000000  0.4765280000000 1.0
C      1  0.5642770000000  0.4831990000000  0.5101600000000 1.0
C      1  0.4505390000000  0.5186180000000  0.5264760000000 1.0
C      1  0.4470640000000  0.5342790000000  0.4880450000000 1.0
C      1  0.4800370000000  0.4421610000000  0.4757180000000 1.0
C      1  0.5336590000000  0.5283810000000  0.5574610000000 1.0
C      1  0.4853430000000  0.4600290000000  0.5305690000000 1.0
C      1  0.5133330000000  0.5125960000000  0.4771330000000 1.0
C      1  0.5348380000000  0.5442770000000  0.5037840000000 1.0
C      1  0.5510870000000  0.4619850000000  0.4938420000000 1.0
C      1  0.5523340000000  0.5125780000000  0.5497770000000 1.0
C      1  0.5231730000000  0.4841770000000  0.5303490000000 1.0
C      1  0.5075360000000  0.4656560000000  0.4557730000000 1.0
C      1  0.5601680000000  0.5027270000000  0.4883480000000 1.0
C      1  0.4782660000000  0.4641900000000  0.4551910000000 1.0
C      1  0.4666190000000  0.4419130000000  0.5212550000000 1.0
C      1  0.5125480000000  0.4602930000000  0.5218250000000 1.0
C      1  0.4675820000000  0.4882840000000  0.4652240000000 1.0
END
