TITL C-21785-4573-2 42.5567928609334 125000 -727.652463998219 0 0 103 (C1) n - 1
REM
REM in /rds/project/t2_vol4/rds-t2-cs072/BORA/CARBON/from-Arr/AIRSS/Generating-Clusters/GAP-ML-2020/Only-C1/SD-CG/HFTN-CG
REM
REM
REM
REM
REM
REM ./C.cell (11c1c37f851c82e70ff6c80c92926a4b)
REM AIRSS Version 0.9.1 bugfix July 2018 build 013d7b7c2542+ Fri, 06 Jul 2018 19:26:36 +0100
REM compiler GCC version 9.3.0
REM options -cpp -mtune=generic -march=x86-64 -g -O0
REM seed -1619271514 1894487706 -1288728610 -1606998302 962980131 -722730150 26527233 668788697 1694852398 -1509016754 -589056849 1036671173 124893987 1205637448 -241600815 235644601 -994914483 -1316007027 1594169430 -1092237750 -1478171355 -1494060112 346413921 -2070197108 2089409142 531925003 1725565609 839614802 514172984 -162288644 341412453 1267660423 -1703706868
REM
CELL 1.54180   50.00000   50.00000   50.00000   90.00000   90.00000   90.00000
LATT -1
SFAC C  
C      1  0.4969560000000  0.5750620000000  0.4488290000000 1.0
C      1  0.5238120000000  0.5630220000000  0.5477480000000 1.0
C      1  0.5399080000000  0.4178070000000  0.5234770000000 1.0
C      1  0.4433240000000  0.5428860000000  0.5570330000000 1.0
C      1  0.4652960000000  0.5871710000000  0.4853850000000 1.0
C      1  0.4763730000000  0.5754280000000  0.5556270000000 1.0
C      1  0.4276150000000  0.5052230000000  0.4754640000000 1.0
C      1  0.4541830000000  0.5224680000000  0.4270550000000 1.0
C      1  0.5160340000000  0.5414060000000  0.5661310000000 1.0
C      1  0.5456020000000  0.4501660000000  0.5594560000000 1.0
C      1  0.4889620000000  0.4613570000000  0.4747920000000 1.0
C      1  0.5306260000000  0.5196210000000  0.5538720000000 1.0
C      1  0.4730410000000  0.5204710000000  0.4789730000000 1.0
C      1  0.4561360000000  0.4968430000000  0.5583280000000 1.0
C      1  0.5715410000000  0.5283520000000  0.4862850000000 1.0
C      1  0.4696030000000  0.5921590000000  0.5131930000000 1.0
C      1  0.4687240000000  0.5510950000000  0.5685010000000 1.0
C      1  0.5247570000000  0.4908820000000  0.5623700000000 1.0
C      1  0.4803180000000  0.5043220000000  0.5727360000000 1.0
C      1  0.4461080000000  0.4312950000000  0.5102760000000 1.0
C      1  0.5003170000000  0.4836690000000  0.5753460000000 1.0
C      1  0.5055850000000  0.4623550000000  0.5290020000000 1.0
C      1  0.4981730000000  0.4860580000000  0.5171920000000 1.0
C      1  0.4368210000000  0.5164270000000  0.5494370000000 1.0
C      1  0.4830730000000  0.4354740000000  0.4622760000000 1.0
C      1  0.4551540000000  0.4961740000000  0.4676970000000 1.0
C      1  0.5165450000000  0.4847650000000  0.4378030000000 1.0
C      1  0.5439640000000  0.4952800000000  0.4349170000000 1.0
C      1  0.5849280000000  0.4766680000000  0.5543310000000 1.0
C      1  0.5146370000000  0.4745540000000  0.4693570000000 1.0
C      1  0.5842770000000  0.5041300000000  0.4977590000000 1.0
C      1  0.5257320000000  0.5398330000000  0.4291010000000 1.0
C      1  0.4235650000000  0.5463630000000  0.5141950000000 1.0
C      1  0.4916680000000  0.5861270000000  0.4738980000000 1.0
C      1  0.4891300000000  0.5325970000000  0.5740780000000 1.0
C      1  0.4591200000000  0.4738960000000  0.5401680000000 1.0
C      1  0.5012460000000  0.5280240000000  0.4202900000000 1.0
C      1  0.5210670000000  0.4378950000000  0.5656780000000 1.0
C      1  0.5401470000000  0.4792430000000  0.5123910000000 1.0
C      1  0.5623850000000  0.4301940000000  0.5103250000000 1.0
C      1  0.4432140000000  0.5731090000000  0.4734410000000 1.0
C      1  0.5337000000000  0.5691480000000  0.4948000000000 1.0
C      1  0.4645530000000  0.4739320000000  0.4858230000000 1.0
C      1  0.4203000000000  0.4982610000000  0.5023330000000 1.0
C      1  0.4722570000000  0.4194820000000  0.5108840000000 1.0
C      1  0.5383420000000  0.4651750000000  0.4855190000000 1.0
C      1  0.5306860000000  0.4135430000000  0.4698970000000 1.0
C      1  0.4923820000000  0.5333310000000  0.5204010000000 1.0
C      1  0.5020400000000  0.4125870000000  0.4683820000000 1.0
C      1  0.5658400000000  0.5389690000000  0.5131080000000 1.0
C      1  0.5399590000000  0.4486910000000  0.4326190000000 1.0
C      1  0.5450160000000  0.4138640000000  0.4961890000000 1.0
C      1  0.5907610000000  0.4606550000000  0.5338690000000 1.0
C      1  0.5468940000000  0.5233770000000  0.4393890000000 1.0
C      1  0.4306950000000  0.4334970000000  0.5329830000000 1.0
C      1  0.4819870000000  0.4527910000000  0.5472680000000 1.0
C      1  0.4762040000000  0.5409700000000  0.4197600000000 1.0
C      1  0.5029240000000  0.5809840000000  0.5444430000000 1.0
C      1  0.4236960000000  0.4713660000000  0.5071740000000 1.0
C      1  0.4484970000000  0.5644290000000  0.4469400000000 1.0
C      1  0.5808120000000  0.4537940000000  0.5102970000000 1.0
C      1  0.4728980000000  0.5198150000000  0.5074350000000 1.0
C      1  0.4702070000000  0.4883920000000  0.5127630000000 1.0
C      1  0.4949380000000  0.5050770000000  0.4373700000000 1.0
C      1  0.4889800000000  0.4272580000000  0.5335000000000 1.0
C      1  0.5115770000000  0.5867410000000  0.4949110000000 1.0
C      1  0.5320700000000  0.4690070000000  0.5396840000000 1.0
C      1  0.5165700000000  0.4208260000000  0.5420990000000 1.0
C      1  0.4976770000000  0.5927740000000  0.5187660000000 1.0
C      1  0.4974800000000  0.5184590000000  0.4664110000000 1.0
C      1  0.4668030000000  0.4654060000000  0.4259880000000 1.0
C      1  0.5224430000000  0.5626990000000  0.4459600000000 1.0
C      1  0.5403800000000  0.5600880000000  0.4684700000000 1.0
C      1  0.4582890000000  0.4454350000000  0.4448720000000 1.0
C      1  0.5821580000000  0.4759720000000  0.4899420000000 1.0
C      1  0.5644790000000  0.4674830000000  0.5729650000000 1.0
C      1  0.5817120000000  0.5170860000000  0.5239130000000 1.0
C      1  0.4648760000000  0.4956180000000  0.4372140000000 1.0
C      1  0.5150070000000  0.4610180000000  0.4207040000000 1.0
C      1  0.5576860000000  0.5377900000000  0.4630250000000 1.0
C      1  0.5149570000000  0.5021720000000  0.4802120000000 1.0
C      1  0.4228790000000  0.5186500000000  0.5227710000000 1.0
C      1  0.4365940000000  0.5382530000000  0.4424200000000 1.0
C      1  0.5210020000000  0.5264890000000  0.5230720000000 1.0
C      1  0.5575060000000  0.4707140000000  0.4423070000000 1.0
C      1  0.5390250000000  0.5524460000000  0.5195580000000 1.0
C      1  0.4979950000000  0.4552000000000  0.5711200000000 1.0
C      1  0.5588420000000  0.5137030000000  0.5646850000000 1.0
C      1  0.4564030000000  0.5810320000000  0.5357560000000 1.0
C      1  0.4404570000000  0.4536040000000  0.4887730000000 1.0
C      1  0.5388840000000  0.4273210000000  0.4482000000000 1.0
C      1  0.5215440000000  0.5016170000000  0.5075380000000 1.0
C      1  0.4897920000000  0.4563000000000  0.4127360000000 1.0
C      1  0.5809090000000  0.5054210000000  0.5492020000000 1.0
C      1  0.4330650000000  0.4609310000000  0.5324600000000 1.0
C      1  0.4251120000000  0.5532900000000  0.4860060000000 1.0
C      1  0.4740270000000  0.5653610000000  0.4343180000000 1.0
C      1  0.4229750000000  0.5315310000000  0.4667620000000 1.0
C      1  0.4364700000000  0.4455790000000  0.4611330000000 1.0
C      1  0.5627090000000  0.4683410000000  0.4704480000000 1.0
C      1  0.4358990000000  0.5609230000000  0.5360350000000 1.0
C      1  0.5497530000000  0.4903020000000  0.5784930000000 1.0
C      1  0.4797630000000  0.4151580000000  0.4837170000000 1.0
END
