TITL C-21818-6261-5 129.862407720125 125000 -208.528022967456 0 0 32 (C1) n - 1
REM
REM in /rds/project/t2_vol4/rds-t2-cs072/BORA/CARBON/from-Arr/AIRSS/Generating-Clusters/GAP-ML-2020/Only-C1/SD-CG/HFTN-CG
REM
REM
REM
REM
REM
REM ./C.cell (11c1c37f851c82e70ff6c80c92926a4b)
REM AIRSS Version 0.9.1 bugfix July 2018 build 013d7b7c2542+ Fri, 06 Jul 2018 19:26:36 +0100
REM compiler GCC version 9.3.0
REM options -cpp -mtune=generic -march=x86-64 -g -O0
REM seed 1161465799 -1529657955 -181290658 1700787256 -1288580376 -1447494715 -1331335326 -170887247 -523893620 -1607785140 -309916381 -1768222518 541718604 -177412815 -1576346660 -1877098919 694395243 2047459886 -1752716680 939137325 -2007959047 -644674103 -635173070 608147821 -436329396 682655653 1130790511 -1557992392 2109806379 430835029 -22647728 -348602474 924054645
REM
CELL 1.54180   50.00000   50.00000   50.00000   90.00000   90.00000   90.00000
LATT -1
SFAC C  
C      1  0.4919950000000  0.5015760000000  0.5155480000000 1.0
C      1  0.5499260000000  0.5464070000000  0.5206640000000 1.0
C      1  0.5163570000000  0.5300030000000  0.4598000000000 1.0
C      1  0.4847760000000  0.4704460000000  0.5491390000000 1.0
C      1  0.4825710000000  0.4607760000000  0.4568000000000 1.0
C      1  0.4887540000000  0.5327920000000  0.4554930000000 1.0
C      1  0.5115450000000  0.4610450000000  0.5424830000000 1.0
C      1  0.5599960000000  0.4757000000000  0.4661670000000 1.0
C      1  0.4739240000000  0.5084270000000  0.4562250000000 1.0
C      1  0.5413480000000  0.5210560000000  0.5283630000000 1.0
C      1  0.5059820000000  0.5458960000000  0.5081200000000 1.0
C      1  0.5355310000000  0.5417050000000  0.4752410000000 1.0
C      1  0.4814690000000  0.4500260000000  0.5073880000000 1.0
C      1  0.5089400000000  0.4517110000000  0.5139490000000 1.0
C      1  0.4772800000000  0.5537450000000  0.4707120000000 1.0
C      1  0.5143020000000  0.5173490000000  0.5100610000000 1.0
C      1  0.5321990000000  0.5557620000000  0.4998530000000 1.0
C      1  0.4705490000000  0.4594940000000  0.4824490000000 1.0
C      1  0.4657600000000  0.4596770000000  0.5293600000000 1.0
C      1  0.5262510000000  0.5120990000000  0.4824350000000 1.0
C      1  0.5351230000000  0.4759960000000  0.5350330000000 1.0
C      1  0.4486410000000  0.4800010000000  0.5183330000000 1.0
C      1  0.4849890000000  0.4843910000000  0.4469070000000 1.0
C      1  0.5492230000000  0.4986440000000  0.5419850000000 1.0
C      1  0.5304690000000  0.4683330000000  0.5059260000000 1.0
C      1  0.5404180000000  0.4847990000000  0.4818960000000 1.0
C      1  0.4802580000000  0.4979520000000  0.5416670000000 1.0
C      1  0.4684820000000  0.5188750000000  0.5030220000000 1.0
C      1  0.4505670000000  0.4789290000000  0.4898530000000 1.0
C      1  0.4574320000000  0.5052360000000  0.4800370000000 1.0
C      1  0.4549200000000  0.5061580000000  0.5281700000000 1.0
C      1  0.4800230000000  0.5449930000000  0.4969210000000 1.0
END
