TITL C-21801-4431-7 12.7737634813913 125000 -453.895816916451 0 0 67 (C1) n - 1
REM
REM in /rds/project/t2_vol4/rds-t2-cs072/BORA/CARBON/from-Arr/AIRSS/Generating-Clusters/GAP-ML-2020/Only-C1/SD-CG/HFTN-CG
REM
REM
REM
REM
REM
REM ./C.cell (11c1c37f851c82e70ff6c80c92926a4b)
REM AIRSS Version 0.9.1 bugfix July 2018 build 013d7b7c2542+ Fri, 06 Jul 2018 19:26:36 +0100
REM compiler GCC version 9.3.0
REM options -cpp -mtune=generic -march=x86-64 -g -O0
REM seed 1978713621 457856161 -759285509 -2071049995 -1752840006 -366160789 -943518898 336659354 549809294 2051679148 1126634107 1294563964 1569713794 84049837 902793960 511230458 426906863 748929602 -574404583 1884127304 1018253374 -1172274884 -1184939139 -906635874 99644048 1538556145 -895780100 561829710 -1356883750 994091178 1890988962 997254584 -1457804562
REM
CELL 1.54180   50.00000   50.00000   50.00000   90.00000   90.00000   90.00000
LATT -1
SFAC C  
C      1  0.4435500000000  0.4840840000000  0.4380320000000 1.0
C      1  0.4518010000000  0.4995480000000  0.5286620000000 1.0
C      1  0.4385980000000  0.5147260000000  0.4779650000000 1.0
C      1  0.5316000000000  0.4458270000000  0.4485380000000 1.0
C      1  0.5464610000000  0.4364750000000  0.4990670000000 1.0
C      1  0.5043230000000  0.4331650000000  0.5318670000000 1.0
C      1  0.5361570000000  0.5505840000000  0.4985040000000 1.0
C      1  0.4330680000000  0.4882630000000  0.4626680000000 1.0
C      1  0.5639560000000  0.5584100000000  0.4904220000000 1.0
C      1  0.4930820000000  0.5568580000000  0.5505910000000 1.0
C      1  0.5002730000000  0.5014220000000  0.5460540000000 1.0
C      1  0.5683760000000  0.4744910000000  0.5276400000000 1.0
C      1  0.4864260000000  0.5525250000000  0.4963910000000 1.0
C      1  0.4567280000000  0.5336900000000  0.4640930000000 1.0
C      1  0.5061900000000  0.4544050000000  0.5506340000000 1.0
C      1  0.4839190000000  0.5029290000000  0.5004770000000 1.0
C      1  0.4704110000000  0.4307690000000  0.4898950000000 1.0
C      1  0.4898250000000  0.4962400000000  0.4461120000000 1.0
C      1  0.5000800000000  0.4788340000000  0.5039510000000 1.0
C      1  0.5431220000000  0.4910570000000  0.4206410000000 1.0
C      1  0.4410130000000  0.4730310000000  0.4867230000000 1.0
C      1  0.4866540000000  0.4750660000000  0.5526490000000 1.0
C      1  0.4601930000000  0.5547140000000  0.4823690000000 1.0
C      1  0.4839630000000  0.5242060000000  0.4545390000000 1.0
C      1  0.5308820000000  0.4285910000000  0.5203690000000 1.0
C      1  0.5650610000000  0.4950360000000  0.5075910000000 1.0
C      1  0.4997400000000  0.5414040000000  0.4365030000000 1.0
C      1  0.5387040000000  0.5173620000000  0.4316050000000 1.0
C      1  0.5186490000000  0.4875330000000  0.5255470000000 1.0
C      1  0.4812020000000  0.4301530000000  0.4633970000000 1.0
C      1  0.5213350000000  0.5184910000000  0.5581780000000 1.0
C      1  0.4536360000000  0.5434770000000  0.5674290000000 1.0
C      1  0.4480670000000  0.4488480000000  0.4977710000000 1.0
C      1  0.4543700000000  0.4963370000000  0.4980980000000 1.0
C      1  0.5216560000000  0.5391770000000  0.4230310000000 1.0
C      1  0.5326650000000  0.4718280000000  0.4357220000000 1.0
C      1  0.4754540000000  0.5573730000000  0.5722250000000 1.0
C      1  0.4296310000000  0.5186780000000  0.5298490000000 1.0
C      1  0.5036790000000  0.4378010000000  0.4472900000000 1.0
C      1  0.5347520000000  0.5110650000000  0.4593730000000 1.0
C      1  0.4793700000000  0.5154470000000  0.5291130000000 1.0
C      1  0.5826100000000  0.5418870000000  0.4972640000000 1.0
C      1  0.5115310000000  0.5618640000000  0.4902590000000 1.0
C      1  0.5161600000000  0.4880650000000  0.4564200000000 1.0
C      1  0.4797640000000  0.4495090000000  0.4422300000000 1.0
C      1  0.5372860000000  0.4509040000000  0.4765470000000 1.0
C      1  0.4796050000000  0.4310080000000  0.5183570000000 1.0
C      1  0.4498000000000  0.5568290000000  0.5264640000000 1.0
C      1  0.4712220000000  0.4769300000000  0.4378020000000 1.0
C      1  0.4384150000000  0.5544050000000  0.5006780000000 1.0
C      1  0.5611370000000  0.5302900000000  0.5374920000000 1.0
C      1  0.4359740000000  0.5415130000000  0.5469680000000 1.0
C      1  0.5192220000000  0.5457610000000  0.5497010000000 1.0
C      1  0.5325670000000  0.4669810000000  0.5443960000000 1.0
C      1  0.5276330000000  0.5215420000000  0.4854880000000 1.0
C      1  0.5511130000000  0.4504130000000  0.5254500000000 1.0
C      1  0.5490930000000  0.5111390000000  0.5547600000000 1.0
C      1  0.4971230000000  0.5249500000000  0.4838280000000 1.0
C      1  0.5548990000000  0.4841190000000  0.5521020000000 1.0
C      1  0.5757210000000  0.5205830000000  0.5141840000000 1.0
C      1  0.4777700000000  0.5471910000000  0.5260410000000 1.0
C      1  0.5402620000000  0.5488180000000  0.5299680000000 1.0
C      1  0.4255830000000  0.5288220000000  0.5010610000000 1.0
C      1  0.5359630000000  0.4978240000000  0.5016390000000 1.0
C      1  0.4579170000000  0.4495780000000  0.5255770000000 1.0
C      1  0.5216200000000  0.4756600000000  0.4834580000000 1.0
C      1  0.4613870000000  0.4734920000000  0.5402910000000 1.0
END
