TITL C-215726-9285-6 -0.0834391980160764 125000 -302.499599116325 0 0 46 (C1) n - 1
REM
REM in /rds/project/t2_vol4/rds-t2-cs072/BORA/CARBON/from-Arr/AIRSS/Generating-Clusters/GAP-ML-2020/Only-C1/SD-CG/HFTN-CG
REM
REM
REM
REM
REM
REM ./C.cell (11c1c37f851c82e70ff6c80c92926a4b)
REM AIRSS Version 0.9.1 bugfix July 2018 build 013d7b7c2542+ Fri, 06 Jul 2018 19:26:36 +0100
REM compiler GCC version 9.3.0
REM options -cpp -mtune=generic -march=x86-64 -g -O0
REM seed 2078957255 762930025 -1311930916 -1091725628 739766983 -142685904 1956076542 1664081971 -1285560278 142873606 -74224794 -1227991613 -996682916 1765804716 95934823 -564976415 2046925697 1179236715 2107359644 -1560249651 1780288276 642262296 748873393 -1809361633 157501870 2020057909 -80842189 137833111 1776454995 1270029624 430108365 2083951006 -973669343
REM
CELL 1.54180   50.00000   50.00000   50.00000   90.00000   90.00000   90.00000
LATT -1
SFAC C  
C      1  0.4436490000000  0.4893650000000  0.4917670000000 1.0
C      1  0.4860240000000  0.4769830000000  0.4866270000000 1.0
C      1  0.4808090000000  0.5394050000000  0.5563520000000 1.0
C      1  0.5352970000000  0.4701610000000  0.5424370000000 1.0
C      1  0.4703680000000  0.5372470000000  0.4859550000000 1.0
C      1  0.5439790000000  0.4979420000000  0.5495770000000 1.0
C      1  0.4994350000000  0.4732510000000  0.4590920000000 1.0
C      1  0.5107490000000  0.5184050000000  0.4617920000000 1.0
C      1  0.5664420000000  0.5023480000000  0.4779580000000 1.0
C      1  0.5457850000000  0.4843440000000  0.4723400000000 1.0
C      1  0.4626250000000  0.4600290000000  0.5296240000000 1.0
C      1  0.4663300000000  0.5298620000000  0.5346250000000 1.0
C      1  0.5086420000000  0.4618750000000  0.5384030000000 1.0
C      1  0.4746410000000  0.4387160000000  0.5153030000000 1.0
C      1  0.5419470000000  0.4638690000000  0.4937930000000 1.0
C      1  0.5161990000000  0.5046950000000  0.5186620000000 1.0
C      1  0.4588460000000  0.4675340000000  0.4831980000000 1.0
C      1  0.4919570000000  0.5588710000000  0.4689110000000 1.0
C      1  0.4695240000000  0.5012900000000  0.5280820000000 1.0
C      1  0.5521550000000  0.4714020000000  0.5190830000000 1.0
C      1  0.4511700000000  0.5150460000000  0.4765560000000 1.0
C      1  0.5205280000000  0.5120290000000  0.5487780000000 1.0
C      1  0.4824420000000  0.4293080000000  0.4705710000000 1.0
C      1  0.5222000000000  0.4920330000000  0.4578380000000 1.0
C      1  0.5077560000000  0.5371150000000  0.5549720000000 1.0
C      1  0.4563200000000  0.4911100000000  0.4347970000000 1.0
C      1  0.4483380000000  0.4831770000000  0.5187430000000 1.0
C      1  0.5091560000000  0.5533780000000  0.5315160000000 1.0
C      1  0.5444870000000  0.5419050000000  0.5014620000000 1.0
C      1  0.4907850000000  0.4986350000000  0.5053280000000 1.0
C      1  0.4971450000000  0.5222560000000  0.4885200000000 1.0
C      1  0.5601020000000  0.4988450000000  0.5238980000000 1.0
C      1  0.5613250000000  0.5168530000000  0.5010420000000 1.0
C      1  0.5207200000000  0.4454460000000  0.4932010000000 1.0
C      1  0.4824760000000  0.4750630000000  0.5430550000000 1.0
C      1  0.5355670000000  0.5659300000000  0.4921370000000 1.0
C      1  0.5069560000000  0.5436780000000  0.4515120000000 1.0
C      1  0.5043170000000  0.4448130000000  0.4693720000000 1.0
C      1  0.5065370000000  0.5699660000000  0.4895210000000 1.0
C      1  0.5178350000000  0.5325590000000  0.5099920000000 1.0
C      1  0.4440400000000  0.5092890000000  0.4497050000000 1.0
C      1  0.5040560000000  0.4424820000000  0.5176190000000 1.0
C      1  0.4641770000000  0.4392910000000  0.4883230000000 1.0
C      1  0.4910190000000  0.5676110000000  0.5146510000000 1.0
C      1  0.4686930000000  0.5489310000000  0.5123990000000 1.0
C      1  0.4764500000000  0.4756580000000  0.4409130000000 1.0
END
