TITL C-21779-4422-5 0.0479593939488828 125000 -793.817854800299 0 0 112 (C1) n - 1
REM
REM in /rds/project/t2_vol4/rds-t2-cs072/BORA/CARBON/from-Arr/AIRSS/Generating-Clusters/GAP-ML-2020/Only-C1/SD-CG/HFTN-CG
REM
REM
REM
REM
REM
REM ./C.cell (11c1c37f851c82e70ff6c80c92926a4b)
REM AIRSS Version 0.9.1 bugfix July 2018 build 013d7b7c2542+ Fri, 06 Jul 2018 19:26:36 +0100
REM compiler GCC version 9.3.0
REM options -cpp -mtune=generic -march=x86-64 -g -O0
REM seed -939419165 1297543277 898482446 -1609281808 -1179852128 -1694600268 -2140128987 -698642947 812201675 1512880199 742568171 184678742 318257929 -1307526771 -955269962 -555427718 -2137418888 1997256282 1204937424 1451108396 2096253698 585551085 -203224937 -346925728 -46363443 -1665168281 2061527187 -241638036 -313418933 1540679289 -1328967427 -676012903 -1846503045
REM
CELL 1.54180   50.00000   50.00000   50.00000   90.00000   90.00000   90.00000
LATT -1
SFAC C  
C      1  0.5922760000000  0.4734050000000  0.5251980000000 1.0
C      1  0.4264670000000  0.4766640000000  0.5223360000000 1.0
C      1  0.5654320000000  0.5602340000000  0.4730850000000 1.0
C      1  0.4670050000000  0.4953380000000  0.5809690000000 1.0
C      1  0.5432250000000  0.4104580000000  0.5472610000000 1.0
C      1  0.4194770000000  0.5311550000000  0.4904040000000 1.0
C      1  0.5257550000000  0.4736480000000  0.5236770000000 1.0
C      1  0.5833560000000  0.4892590000000  0.5487490000000 1.0
C      1  0.4673040000000  0.4883600000000  0.4883300000000 1.0
C      1  0.4885110000000  0.4674400000000  0.4309750000000 1.0
C      1  0.4285270000000  0.5036390000000  0.5353730000000 1.0
C      1  0.5293050000000  0.5017170000000  0.5282740000000 1.0
C      1  0.4097780000000  0.4649240000000  0.4537720000000 1.0
C      1  0.5241560000000  0.4915730000000  0.4110820000000 1.0
C      1  0.5079680000000  0.5198800000000  0.5214560000000 1.0
C      1  0.4719410000000  0.5048950000000  0.4632380000000 1.0
C      1  0.4305440000000  0.4621340000000  0.4335870000000 1.0
C      1  0.4820600000000  0.4426870000000  0.4782490000000 1.0
C      1  0.5792690000000  0.5168680000000  0.5400780000000 1.0
C      1  0.4335910000000  0.5254750000000  0.5163310000000 1.0
C      1  0.5099910000000  0.4408800000000  0.5613260000000 1.0
C      1  0.4814590000000  0.4832390000000  0.5355370000000 1.0
C      1  0.4875150000000  0.5332300000000  0.4216780000000 1.0
C      1  0.4702720000000  0.5828170000000  0.5278990000000 1.0
C      1  0.5150830000000  0.4840830000000  0.4705360000000 1.0
C      1  0.4436210000000  0.5103520000000  0.4220000000000 1.0
C      1  0.4427630000000  0.5747550000000  0.4925040000000 1.0
C      1  0.4188280000000  0.5111660000000  0.4698440000000 1.0
C      1  0.4480220000000  0.4425410000000  0.4453500000000 1.0
C      1  0.4823020000000  0.5100580000000  0.5275400000000 1.0
C      1  0.5133930000000  0.5839650000000  0.5114300000000 1.0
C      1  0.4348720000000  0.4518750000000  0.5359170000000 1.0
C      1  0.4696380000000  0.4781910000000  0.4117740000000 1.0
C      1  0.5959970000000  0.4969110000000  0.4901030000000 1.0
C      1  0.4386390000000  0.5493720000000  0.5330320000000 1.0
C      1  0.5623780000000  0.4785820000000  0.5663560000000 1.0
C      1  0.4071400000000  0.4858480000000  0.4730190000000 1.0
C      1  0.5559120000000  0.4713350000000  0.4342000000000 1.0
C      1  0.5788990000000  0.5262290000000  0.4445520000000 1.0
C      1  0.5947330000000  0.5259920000000  0.4915640000000 1.0
C      1  0.5116800000000  0.4198540000000  0.5138080000000 1.0
C      1  0.5710360000000  0.4619480000000  0.5098490000000 1.0
C      1  0.4678420000000  0.4294040000000  0.5388400000000 1.0
C      1  0.5317500000000  0.5327840000000  0.4318580000000 1.0
C      1  0.4462190000000  0.5466870000000  0.4569310000000 1.0
C      1  0.4737970000000  0.4714610000000  0.5639980000000 1.0
C      1  0.4647510000000  0.5157600000000  0.5048710000000 1.0
C      1  0.5155090000000  0.4643350000000  0.4163660000000 1.0
C      1  0.4754180000000  0.4470040000000  0.4489120000000 1.0
C      1  0.5545020000000  0.4533780000000  0.5566650000000 1.0
C      1  0.5386930000000  0.4213840000000  0.5230680000000 1.0
C      1  0.4471160000000  0.4321310000000  0.5186490000000 1.0
C      1  0.4526400000000  0.4405540000000  0.4908200000000 1.0
C      1  0.5577460000000  0.5206420000000  0.4289360000000 1.0
C      1  0.5078040000000  0.5268990000000  0.4928890000000 1.0
C      1  0.4446140000000  0.5736080000000  0.5208810000000 1.0
C      1  0.5372780000000  0.4387490000000  0.4538670000000 1.0
C      1  0.4690210000000  0.5790990000000  0.4822250000000 1.0
C      1  0.4805600000000  0.5293370000000  0.4818100000000 1.0
C      1  0.5516340000000  0.5058620000000  0.4929450000000 1.0
C      1  0.4432610000000  0.4817180000000  0.4174670000000 1.0
C      1  0.4931680000000  0.5081030000000  0.5838920000000 1.0
C      1  0.3994160000000  0.4462860000000  0.4949160000000 1.0
C      1  0.5132980000000  0.5761590000000  0.5399120000000 1.0
C      1  0.5383070000000  0.5685910000000  0.4650980000000 1.0
C      1  0.5616410000000  0.5705600000000  0.4996800000000 1.0
C      1  0.5138000000000  0.4883070000000  0.5820290000000 1.0
C      1  0.4958470000000  0.4352640000000  0.5340470000000 1.0
C      1  0.4459360000000  0.4702700000000  0.4955940000000 1.0
C      1  0.4933870000000  0.5544310000000  0.4409000000000 1.0
C      1  0.4987340000000  0.4660920000000  0.5196580000000 1.0
C      1  0.5223110000000  0.5567640000000  0.4443220000000 1.0
C      1  0.4929520000000  0.4704030000000  0.4899290000000 1.0
C      1  0.4059600000000  0.4724760000000  0.5006770000000 1.0
C      1  0.4861790000000  0.5722680000000  0.5484110000000 1.0
C      1  0.5332840000000  0.5633230000000  0.5553910000000 1.0
C      1  0.4962740000000  0.4931330000000  0.4483290000000 1.0
C      1  0.5421040000000  0.4957560000000  0.5794320000000 1.0
C      1  0.4972520000000  0.5358020000000  0.5781210000000 1.0
C      1  0.5452240000000  0.4686640000000  0.4636770000000 1.0
C      1  0.5486550000000  0.4525690000000  0.5255310000000 1.0
C      1  0.5368890000000  0.4318370000000  0.5643100000000 1.0
C      1  0.4084820000000  0.4401190000000  0.4693640000000 1.0
C      1  0.5246780000000  0.5427500000000  0.5740940000000 1.0
C      1  0.4556660000000  0.4491340000000  0.5556840000000 1.0
C      1  0.5529730000000  0.5134720000000  0.5197750000000 1.0
C      1  0.5661490000000  0.4795680000000  0.4858110000000 1.0
C      1  0.4858010000000  0.5869270000000  0.5042510000000 1.0
C      1  0.5839100000000  0.5391290000000  0.4680770000000 1.0
C      1  0.5096130000000  0.5129010000000  0.4264960000000 1.0
C      1  0.5515910000000  0.4942030000000  0.4181410000000 1.0
C      1  0.5044180000000  0.4217610000000  0.4864080000000 1.0
C      1  0.4426940000000  0.5171930000000  0.4515860000000 1.0
C      1  0.6112650000000  0.4817480000000  0.5059600000000 1.0
C      1  0.4397950000000  0.5139390000000  0.5611720000000 1.0
C      1  0.5462360000000  0.5238280000000  0.5768200000000 1.0
C      1  0.5230630000000  0.4201320000000  0.4662110000000 1.0
C      1  0.4353500000000  0.4314660000000  0.4687260000000 1.0
C      1  0.4737180000000  0.5565220000000  0.4628960000000 1.0
C      1  0.4415980000000  0.5042230000000  0.5878160000000 1.0
C      1  0.5006520000000  0.4641910000000  0.5733420000000 1.0
C      1  0.4645660000000  0.5246100000000  0.4108830000000 1.0
C      1  0.5677220000000  0.5337900000000  0.5608410000000 1.0
C      1  0.4766240000000  0.5513320000000  0.5651770000000 1.0
C      1  0.5600200000000  0.5573430000000  0.5475340000000 1.0
C      1  0.5260550000000  0.5091840000000  0.4806780000000 1.0
C      1  0.5740170000000  0.5593890000000  0.5222940000000 1.0
C      1  0.4297110000000  0.5547690000000  0.4779490000000 1.0
C      1  0.5373570000000  0.4496500000000  0.4263760000000 1.0
C      1  0.4510560000000  0.5408360000000  0.5565130000000 1.0
C      1  0.5896170000000  0.5358640000000  0.5180680000000 1.0
C      1  0.5347100000000  0.5791980000000  0.4929630000000 1.0
END
