TITL C-21806-4439-8 -82.7323230059395 125000 -232.512313995379 0 0 36 (C1) n - 1
REM
REM in /rds/project/t2_vol4/rds-t2-cs072/BORA/CARBON/from-Arr/AIRSS/Generating-Clusters/GAP-ML-2020/Only-C1/SD-CG/HFTN-CG
REM
REM
REM
REM
REM
REM ./C.cell (11c1c37f851c82e70ff6c80c92926a4b)
REM AIRSS Version 0.9.1 bugfix July 2018 build 013d7b7c2542+ Fri, 06 Jul 2018 19:26:36 +0100
REM compiler GCC version 9.3.0
REM options -cpp -mtune=generic -march=x86-64 -g -O0
REM seed 2095238889 1293982078 792978482 -1723609443 1895600848 1507211828 1274697988 1673941328 2051276217 2004919499 1149638036 622930851 791260806 1884163621 -885836721 489660140 -1796064734 -1281664509 1866801936 160326348 -1322522639 -6241994 -1623585417 -389543422 -429642715 246255903 -2008206310 -1584258997 1823269114 -271461585 1757687571 1559474975 -1096398064
REM
CELL 1.54180   50.00000   50.00000   50.00000   90.00000   90.00000   90.00000
LATT -1
SFAC C  
C      1  0.4630630000000  0.4614940000000  0.4592700000000 1.0
C      1  0.4762670000000  0.5080230000000  0.5445460000000 1.0
C      1  0.5481150000000  0.4775200000000  0.4910650000000 1.0
C      1  0.4519980000000  0.4884450000000  0.5080240000000 1.0
C      1  0.4971790000000  0.4915950000000  0.4382580000000 1.0
C      1  0.4873470000000  0.4870120000000  0.4922580000000 1.0
C      1  0.5591320000000  0.4703040000000  0.5391680000000 1.0
C      1  0.5321750000000  0.4700150000000  0.4704530000000 1.0
C      1  0.4610590000000  0.4822230000000  0.4790770000000 1.0
C      1  0.5382230000000  0.4868160000000  0.5458040000000 1.0
C      1  0.4732470000000  0.4844270000000  0.5276970000000 1.0
C      1  0.4751840000000  0.4714310000000  0.4328910000000 1.0
C      1  0.4997790000000  0.5153090000000  0.5582580000000 1.0
C      1  0.5338930000000  0.4357090000000  0.5181520000000 1.0
C      1  0.5010890000000  0.5605560000000  0.4798960000000 1.0
C      1  0.5232940000000  0.5475850000000  0.4738580000000 1.0
C      1  0.4888440000000  0.4519630000000  0.4481300000000 1.0
C      1  0.4544210000000  0.5286550000000  0.4829810000000 1.0
C      1  0.5023490000000  0.5636530000000  0.5142830000000 1.0
C      1  0.5276270000000  0.5084960000000  0.5598720000000 1.0
C      1  0.5174690000000  0.5411630000000  0.5201480000000 1.0
C      1  0.4798220000000  0.5482040000000  0.5165440000000 1.0
C      1  0.4593870000000  0.5082580000000  0.4636620000000 1.0
C      1  0.4637210000000  0.5290410000000  0.5294070000000 1.0
C      1  0.4790560000000  0.5411290000000  0.4882340000000 1.0
C      1  0.5107300000000  0.4470110000000  0.5191070000000 1.0
C      1  0.5209390000000  0.4912600000000  0.5220080000000 1.0
C      1  0.4985220000000  0.4732440000000  0.5166290000000 1.0
C      1  0.5193630000000  0.5325380000000  0.5469640000000 1.0
C      1  0.5382180000000  0.5015950000000  0.5017110000000 1.0
C      1  0.5493200000000  0.4588640000000  0.5155770000000 1.0
C      1  0.5232570000000  0.5247870000000  0.4944390000000 1.0
C      1  0.4877510000000  0.5103170000000  0.4560000000000 1.0
C      1  0.4965520000000  0.5141410000000  0.4859100000000 1.0
C      1  0.5142150000000  0.4704380000000  0.4514250000000 1.0
C      1  0.4473930000000  0.5167810000000  0.5082910000000 1.0
END
