TITL C-21803-3006-4 0.0268447008614442 125000 -456.327687003939 0 0 67 (C1) n - 1
REM
REM in /rds/project/t2_vol4/rds-t2-cs072/BORA/CARBON/from-Arr/AIRSS/Generating-Clusters/GAP-ML-2020/Only-C1/SD-CG/HFTN-CG
REM
REM
REM
REM
REM
REM ./C.cell (11c1c37f851c82e70ff6c80c92926a4b)
REM AIRSS Version 0.9.1 bugfix July 2018 build 013d7b7c2542+ Fri, 06 Jul 2018 19:26:36 +0100
REM compiler GCC version 9.3.0
REM options -cpp -mtune=generic -march=x86-64 -g -O0
REM seed -1944491384 -1824227770 199174216 1859472827 1740973767 1050276961 -1214526625 1720454158 -1357525436 -1397168725 -1421110923 -455875506 1300217371 1708613848 1753730805 1877146423 -1087624832 1537905814 1937681967 -1485588318 1584845175 1862964477 61317026 1120428100 14401992 -1840386172 649962515 -1436681787 -253123749 1162017437 -1031837625 -1276429035 1107103308
REM
CELL 1.54180   50.00000   50.00000   50.00000   90.00000   90.00000   90.00000
LATT -1
SFAC C  
C      1  0.5017490000000  0.4197460000000  0.5020560000000 1.0
C      1  0.4818250000000  0.5469290000000  0.4497000000000 1.0
C      1  0.5494180000000  0.5371360000000  0.5468580000000 1.0
C      1  0.4588950000000  0.4640880000000  0.4680570000000 1.0
C      1  0.4948540000000  0.4323770000000  0.4562980000000 1.0
C      1  0.4401340000000  0.4875550000000  0.4658770000000 1.0
C      1  0.5244430000000  0.5638700000000  0.4685280000000 1.0
C      1  0.5482090000000  0.5539300000000  0.5224420000000 1.0
C      1  0.5099120000000  0.5698590000000  0.4925750000000 1.0
C      1  0.4943040000000  0.4613120000000  0.4995250000000 1.0
C      1  0.5287460000000  0.5171480000000  0.4922260000000 1.0
C      1  0.5226270000000  0.5050470000000  0.5694680000000 1.0
C      1  0.4253320000000  0.4881060000000  0.4911110000000 1.0
C      1  0.5275550000000  0.5109690000000  0.5201500000000 1.0
C      1  0.4975960000000  0.4682640000000  0.5289880000000 1.0
C      1  0.4731110000000  0.5200840000000  0.4440520000000 1.0
C      1  0.4468090000000  0.5378350000000  0.4776460000000 1.0
C      1  0.5534950000000  0.5106400000000  0.5372250000000 1.0
C      1  0.4384190000000  0.5075130000000  0.5076930000000 1.0
C      1  0.5196440000000  0.5236120000000  0.4383320000000 1.0
C      1  0.5269900000000  0.5334080000000  0.5640590000000 1.0
C      1  0.5645540000000  0.4770460000000  0.5028210000000 1.0
C      1  0.4518290000000  0.4582430000000  0.5326840000000 1.0
C      1  0.4693980000000  0.5674260000000  0.5169910000000 1.0
C      1  0.4946210000000  0.5080400000000  0.5678180000000 1.0
C      1  0.4973260000000  0.5050040000000  0.4368230000000 1.0
C      1  0.5401960000000  0.4628150000000  0.5089020000000 1.0
C      1  0.5060740000000  0.5330790000000  0.5271860000000 1.0
C      1  0.5284780000000  0.4713120000000  0.4609250000000 1.0
C      1  0.4703190000000  0.4824230000000  0.5343240000000 1.0
C      1  0.4386530000000  0.5349510000000  0.5049980000000 1.0
C      1  0.5406400000000  0.4866480000000  0.5529550000000 1.0
C      1  0.5027470000000  0.4778510000000  0.4485940000000 1.0
C      1  0.5100230000000  0.5491980000000  0.4477440000000 1.0
C      1  0.4968970000000  0.5360390000000  0.5553490000000 1.0
C      1  0.5399660000000  0.4420520000000  0.5311240000000 1.0
C      1  0.4671840000000  0.5571310000000  0.4712150000000 1.0
C      1  0.5628600000000  0.5479850000000  0.4989820000000 1.0
C      1  0.4489410000000  0.5145290000000  0.4592650000000 1.0
C      1  0.5154130000000  0.4268170000000  0.5266590000000 1.0
C      1  0.4692620000000  0.5041810000000  0.5552370000000 1.0
C      1  0.4753780000000  0.4333920000000  0.5034960000000 1.0
C      1  0.4540260000000  0.5474350000000  0.5269960000000 1.0
C      1  0.4812120000000  0.5705010000000  0.4925690000000 1.0
C      1  0.5618860000000  0.5341740000000  0.4596370000000 1.0
C      1  0.4911660000000  0.4981670000000  0.4686170000000 1.0
C      1  0.4523490000000  0.4431930000000  0.4884740000000 1.0
C      1  0.4357430000000  0.4557530000000  0.5084810000000 1.0
C      1  0.4668060000000  0.4983620000000  0.5093900000000 1.0
C      1  0.5456840000000  0.5153650000000  0.4461780000000 1.0
C      1  0.4952770000000  0.4404240000000  0.5413340000000 1.0
C      1  0.5512630000000  0.5569290000000  0.4726980000000 1.0
C      1  0.4860540000000  0.5221040000000  0.5073830000000 1.0
C      1  0.5495870000000  0.4898150000000  0.4594320000000 1.0
C      1  0.5728080000000  0.5235670000000  0.4844020000000 1.0
C      1  0.5674490000000  0.4945840000000  0.4830580000000 1.0
C      1  0.5223460000000  0.4557800000000  0.4855310000000 1.0
C      1  0.4687050000000  0.4353940000000  0.5320970000000 1.0
C      1  0.4120420000000  0.4669350000000  0.5017190000000 1.0
C      1  0.4757490000000  0.4812420000000  0.4866020000000 1.0
C      1  0.4830090000000  0.4560320000000  0.4516850000000 1.0
C      1  0.5024150000000  0.5189570000000  0.4842430000000 1.0
C      1  0.4656190000000  0.5322040000000  0.5485610000000 1.0
C      1  0.5204290000000  0.5588130000000  0.5167340000000 1.0
C      1  0.5132090000000  0.4274670000000  0.4768330000000 1.0
C      1  0.5234230000000  0.4820930000000  0.5271620000000 1.0
C      1  0.5469210000000  0.4591200000000  0.5532240000000 1.0
END
