TITL C-21908-2415-2 -375.709348421959 125000 -293.149850705934 0 0 43 (C1) n - 1
REM
REM in /rds/project/t2_vol4/rds-t2-cs072/BORA/CARBON/from-Arr/AIRSS/Generating-Clusters/GAP-ML-2020/Only-C1/SD-CG/HFTN-CG
REM
REM
REM
REM
REM
REM ./C.cell (11c1c37f851c82e70ff6c80c92926a4b)
REM AIRSS Version 0.9.1 bugfix July 2018 build 013d7b7c2542+ Fri, 06 Jul 2018 19:26:36 +0100
REM compiler GCC version 9.3.0
REM options -cpp -mtune=generic -march=x86-64 -g -O0
REM seed -458085629 -356366936 1582482178 97536579 -1577116260 -228557196 -243163007 998618054 358024477 -679047770 -1300601070 1217396746 -1931703485 -2056773936 -1346727997 2060613993 -1100310317 747981425 727700903 623542197 -1701827447 -1462250217 295134749 -2042293963 -792370852 1171201494 246217877 714581769 1711936606 1869302677 1887864173 563458960 -1377818507
REM
CELL 1.54180   50.00000   50.00000   50.00000   90.00000   90.00000   90.00000
LATT -1
SFAC C  
C      1  0.5289280000000  0.4289450000000  0.5077900000000 1.0
C      1  0.4779140000000  0.4662870000000  0.5102470000000 1.0
C      1  0.5004560000000  0.5670780000000  0.5131720000000 1.0
C      1  0.5240910000000  0.5235020000000  0.4390750000000 1.0
C      1  0.5312390000000  0.4492400000000  0.4914680000000 1.0
C      1  0.4478770000000  0.5265660000000  0.5089950000000 1.0
C      1  0.5238580000000  0.4946610000000  0.5104540000000 1.0
C      1  0.4925810000000  0.4621580000000  0.5527620000000 1.0
C      1  0.4705420000000  0.4720220000000  0.5375370000000 1.0
C      1  0.5306820000000  0.5214790000000  0.5168200000000 1.0
C      1  0.4588740000000  0.4973350000000  0.5435790000000 1.0
C      1  0.4753030000000  0.5442200000000  0.5452560000000 1.0
C      1  0.4785610000000  0.5018510000000  0.4757160000000 1.0
C      1  0.4727430000000  0.4692860000000  0.4400630000000 1.0
C      1  0.4768790000000  0.5175070000000  0.5556640000000 1.0
C      1  0.4736720000000  0.5641770000000  0.5041330000000 1.0
C      1  0.5523130000000  0.4900270000000  0.4572440000000 1.0
C      1  0.5012910000000  0.5559620000000  0.4672680000000 1.0
C      1  0.5550170000000  0.5339250000000  0.4754720000000 1.0
C      1  0.4881460000000  0.4441220000000  0.4721860000000 1.0
C      1  0.5056620000000  0.4389540000000  0.5416780000000 1.0
C      1  0.4827230000000  0.4935990000000  0.4481490000000 1.0
C      1  0.4402250000000  0.5067710000000  0.5255360000000 1.0
C      1  0.5022380000000  0.5535880000000  0.5381960000000 1.0
C      1  0.5508380000000  0.5181640000000  0.4543740000000 1.0
C      1  0.5123230000000  0.4838400000000  0.5539220000000 1.0
C      1  0.5179290000000  0.5604060000000  0.4914030000000 1.0
C      1  0.5380600000000  0.5403200000000  0.4959160000000 1.0
C      1  0.4581380000000  0.5495710000000  0.5233720000000 1.0
C      1  0.5266490000000  0.4803570000000  0.4561250000000 1.0
C      1  0.5292910000000  0.4764250000000  0.5318240000000 1.0
C      1  0.4959540000000  0.4850200000000  0.4943390000000 1.0
C      1  0.5101180000000  0.4988260000000  0.4422460000000 1.0
C      1  0.4742930000000  0.5513450000000  0.4787960000000 1.0
C      1  0.5196540000000  0.5311450000000  0.5412710000000 1.0
C      1  0.4722790000000  0.4444160000000  0.4491300000000 1.0
C      1  0.4819820000000  0.4399420000000  0.5006510000000 1.0
C      1  0.5310200000000  0.4478540000000  0.5302630000000 1.0
C      1  0.4984500000000  0.4243750000000  0.5181120000000 1.0
C      1  0.5123360000000  0.4633310000000  0.4760290000000 1.0
C      1  0.4630490000000  0.5249440000000  0.4831300000000 1.0
C      1  0.5110360000000  0.5459470000000  0.4446020000000 1.0
C      1  0.5047870000000  0.5105100000000  0.5560360000000 1.0
END
