TITL C-2114521-4255-16 0.258842086682909 125000 -867.80237597932 0 0 124 (C1) n - 1
REM
REM in /nfs/bkarasulu/CARBON/AIRSS/Generating-Clusters/GAP-ML-2020/Only-C1/SD-CG/HFTN-CG
REM
REM
REM
REM
REM
REM ./C.cell (11c1c37f851c82e70ff6c80c92926a4b)
REM
REM compiler GCC version 9.2.1 20190827 (Red Hat 9.2.1-1)
REM options -cpp -mtune=generic -march=x86-64 -g -O0 -fpre-include=/usr/include/finclude/math-vector-fortran.h
REM seed -171076298 -2111923585 -608623785 1067483332 -236891595 113737158 1418970792 254376885 129267819 -709220285 -1778825422 1071208042 1164564028 1455499922 -763444130 -1000446564 -959021456 -410835121 1659061487 -1396991126 -498719610 -1483093724 1438562627 1740469037 1432889216 -2014773211 35206518 -259577709 -1495841529 270001970 -1642822558 65667129 1213654685
REM
CELL 1.54180   50.00000   50.00000   50.00000   90.00000   90.00000   90.00000
LATT -1
SFAC C  
C      1  0.4903390000000  0.4368610000000  0.5736490000000 1.0
C      1  0.5246210000000  0.5534260000000  0.5704480000000 1.0
C      1  0.4806970000000  0.5422190000000  0.4149730000000 1.0
C      1  0.5027850000000  0.5026310000000  0.5434930000000 1.0
C      1  0.4965320000000  0.5116610000000  0.5957200000000 1.0
C      1  0.5386110000000  0.5870560000000  0.4965580000000 1.0
C      1  0.4285340000000  0.5613690000000  0.4701280000000 1.0
C      1  0.4835290000000  0.5755890000000  0.5279380000000 1.0
C      1  0.4811650000000  0.4138090000000  0.4646190000000 1.0
C      1  0.4866220000000  0.4798200000000  0.5558440000000 1.0
C      1  0.4616560000000  0.4999720000000  0.4670020000000 1.0
C      1  0.5374240000000  0.5274750000000  0.5762450000000 1.0
C      1  0.4737510000000  0.5585490000000  0.5811370000000 1.0
C      1  0.5470180000000  0.4633170000000  0.5629540000000 1.0
C      1  0.4520890000000  0.5649800000000  0.5624470000000 1.0
C      1  0.5838970000000  0.4606230000000  0.5360030000000 1.0
C      1  0.5396780000000  0.4450160000000  0.5385050000000 1.0
C      1  0.5526150000000  0.5430820000000  0.5362520000000 1.0
C      1  0.4263360000000  0.4693750000000  0.5070660000000 1.0
C      1  0.5711930000000  0.4763360000000  0.5547590000000 1.0
C      1  0.5382270000000  0.5673020000000  0.4737280000000 1.0
C      1  0.5362000000000  0.5124300000000  0.4747920000000 1.0
C      1  0.4557510000000  0.4770410000000  0.4450120000000 1.0
C      1  0.4547120000000  0.5308040000000  0.4108850000000 1.0
C      1  0.4887390000000  0.4965300000000  0.4080120000000 1.0
C      1  0.4885810000000  0.5877260000000  0.5028090000000 1.0
C      1  0.4652730000000  0.4313020000000  0.4478550000000 1.0
C      1  0.5225660000000  0.4705850000000  0.4146600000000 1.0
C      1  0.4297680000000  0.4391440000000  0.5094450000000 1.0
C      1  0.4188380000000  0.5447510000000  0.5154500000000 1.0
C      1  0.4335380000000  0.4633750000000  0.4601410000000 1.0
C      1  0.5344710000000  0.5391910000000  0.4892990000000 1.0
C      1  0.4690190000000  0.5057810000000  0.5909880000000 1.0
C      1  0.4935040000000  0.4543920000000  0.5146820000000 1.0
C      1  0.5020980000000  0.4627610000000  0.5749790000000 1.0
C      1  0.4413770000000  0.4367490000000  0.4628610000000 1.0
C      1  0.4245800000000  0.4576940000000  0.5517820000000 1.0
C      1  0.4326150000000  0.5241550000000  0.4992340000000 1.0
C      1  0.5146240000000  0.5967190000000  0.5073050000000 1.0
C      1  0.5183590000000  0.5669010000000  0.4494690000000 1.0
C      1  0.5574310000000  0.5238110000000  0.5557710000000 1.0
C      1  0.4466080000000  0.5746130000000  0.4852490000000 1.0
C      1  0.4446000000000  0.4873140000000  0.4200190000000 1.0
C      1  0.4226720000000  0.4805920000000  0.4793220000000 1.0
C      1  0.5983260000000  0.5059980000000  0.4699560000000 1.0
C      1  0.5100270000000  0.4706620000000  0.4735330000000 1.0
C      1  0.5334010000000  0.5504150000000  0.4298070000000 1.0
C      1  0.4532900000000  0.4201090000000  0.5505800000000 1.0
C      1  0.5873960000000  0.5570850000000  0.4747800000000 1.0
C      1  0.4900170000000  0.5725170000000  0.4524210000000 1.0
C      1  0.5484110000000  0.4390610000000  0.4812100000000 1.0
C      1  0.4769650000000  0.5319800000000  0.5936080000000 1.0
C      1  0.5055320000000  0.5364050000000  0.5016970000000 1.0
C      1  0.5080360000000  0.4220710000000  0.4643060000000 1.0
C      1  0.4992900000000  0.5052740000000  0.5009840000000 1.0
C      1  0.4485700000000  0.5006520000000  0.5420260000000 1.0
C      1  0.5817600000000  0.5542020000000  0.5007280000000 1.0
C      1  0.4808010000000  0.5411320000000  0.4860150000000 1.0
C      1  0.4417830000000  0.5648910000000  0.5128130000000 1.0
C      1  0.4598560000000  0.4880790000000  0.5687100000000 1.0
C      1  0.5181960000000  0.4934850000000  0.5202910000000 1.0
C      1  0.4332110000000  0.5102550000000  0.4737070000000 1.0
C      1  0.4450730000000  0.4617500000000  0.5715510000000 1.0
C      1  0.4934430000000  0.4680950000000  0.4144680000000 1.0
C      1  0.5554920000000  0.4492880000000  0.4529380000000 1.0
C      1  0.5710420000000  0.5023800000000  0.5435260000000 1.0
C      1  0.5874860000000  0.4898940000000  0.4482640000000 1.0
C      1  0.5275370000000  0.4754400000000  0.5799760000000 1.0
C      1  0.5252690000000  0.5207500000000  0.4261670000000 1.0
C      1  0.4614290000000  0.4377070000000  0.5717190000000 1.0
C      1  0.5024260000000  0.5502940000000  0.5288010000000 1.0
C      1  0.4298600000000  0.5370580000000  0.4577060000000 1.0
C      1  0.5338120000000  0.5854200000000  0.5245350000000 1.0
C      1  0.4751600000000  0.4642980000000  0.5328940000000 1.0
C      1  0.4399840000000  0.5414790000000  0.5545050000000 1.0
C      1  0.5206970000000  0.4984030000000  0.4067990000000 1.0
C      1  0.5673870000000  0.4424790000000  0.5254580000000 1.0
C      1  0.5960660000000  0.5339370000000  0.4606440000000 1.0
C      1  0.5871440000000  0.4636210000000  0.4850830000000 1.0
C      1  0.4897730000000  0.5284790000000  0.5440630000000 1.0
C      1  0.5002540000000  0.5622900000000  0.5780610000000 1.0
C      1  0.5144060000000  0.4102360000000  0.5105690000000 1.0
C      1  0.5916280000000  0.4917180000000  0.4943230000000 1.0
C      1  0.5817250000000  0.5346620000000  0.4353690000000 1.0
C      1  0.5222520000000  0.4200040000000  0.5372170000000 1.0
C      1  0.5086940000000  0.4497110000000  0.4510480000000 1.0
C      1  0.5618380000000  0.5554880000000  0.4350380000000 1.0
C      1  0.5795320000000  0.4641420000000  0.4573890000000 1.0
C      1  0.4461780000000  0.5452460000000  0.4345410000000 1.0
C      1  0.5726620000000  0.4423300000000  0.4975770000000 1.0
C      1  0.5444240000000  0.4943610000000  0.4989230000000 1.0
C      1  0.4946000000000  0.5199420000000  0.4293590000000 1.0
C      1  0.4592830000000  0.5034510000000  0.4042030000000 1.0
C      1  0.4161990000000  0.5327600000000  0.5410650000000 1.0
C      1  0.4769330000000  0.4078050000000  0.5392650000000 1.0
C      1  0.4851090000000  0.5174030000000  0.4607860000000 1.0
C      1  0.4860620000000  0.4648800000000  0.4897250000000 1.0
C      1  0.5699550000000  0.5047890000000  0.5127390000000 1.0
C      1  0.5230530000000  0.5043910000000  0.5879640000000 1.0
C      1  0.4563880000000  0.5755130000000  0.5364550000000 1.0
C      1  0.4769870000000  0.5725490000000  0.4795390000000 1.0
C      1  0.4614970000000  0.5266650000000  0.5368130000000 1.0
C      1  0.4582880000000  0.5361050000000  0.5081040000000 1.0
C      1  0.4854220000000  0.4034170000000  0.5119900000000 1.0
C      1  0.5620740000000  0.5361610000000  0.5097820000000 1.0
C      1  0.5213300000000  0.4631270000000  0.5192790000000 1.0
C      1  0.5713090000000  0.5088080000000  0.4343020000000 1.0
C      1  0.5300380000000  0.5603210000000  0.5408490000000 1.0
C      1  0.4426950000000  0.4240730000000  0.4888180000000 1.0
C      1  0.5335590000000  0.4537850000000  0.4350700000000 1.0
C      1  0.5444620000000  0.5102250000000  0.4455460000000 1.0
C      1  0.4553770000000  0.4817090000000  0.5190370000000 1.0
C      1  0.4134840000000  0.4779960000000  0.5341910000000 1.0
C      1  0.4314570000000  0.4337790000000  0.5373630000000 1.0
C      1  0.4715060000000  0.5615790000000  0.4341450000000 1.0
C      1  0.4799430000000  0.4550270000000  0.4375100000000 1.0
C      1  0.4679330000000  0.4081980000000  0.4894710000000 1.0
C      1  0.4721490000000  0.4899900000000  0.4953990000000 1.0
C      1  0.5648800000000  0.5681630000000  0.4599230000000 1.0
C      1  0.5083920000000  0.5010230000000  0.4721680000000 1.0
C      1  0.5263900000000  0.4184270000000  0.4853190000000 1.0
C      1  0.5338310000000  0.4658430000000  0.4916850000000 1.0
C      1  0.4191980000000  0.5043570000000  0.5422670000000 1.0
C      1  0.4994300000000  0.4176700000000  0.5540510000000 1.0
END
