TITL C-21831-6212-6 -0.0649304189727405 125000 -198.390712482021 0 0 30 (C1) n - 1
REM
REM in /rds/project/t2_vol4/rds-t2-cs072/BORA/CARBON/from-Arr/AIRSS/Generating-Clusters/GAP-ML-2020/Only-C1/SD-CG/HFTN-CG
REM
REM
REM
REM
REM
REM ./C.cell (11c1c37f851c82e70ff6c80c92926a4b)
REM AIRSS Version 0.9.1 bugfix July 2018 build 013d7b7c2542+ Fri, 06 Jul 2018 19:26:36 +0100
REM compiler GCC version 9.3.0
REM options -cpp -mtune=generic -march=x86-64 -g -O0
REM seed -114101868 -1983247237 -1724538033 -479171142 646877620 1782284863 349727494 702476846 -287168775 -545187405 -1813233361 -1398273997 12025140 -1567078397 603310397 241187283 1466391057 1642342048 385053121 704347641 1977957026 116620413 -1896671341 -486683634 -1375239922 1455160419 1871407867 -2852238 -304242508 -439136937 -1545414565 -1857856219 472983685
REM
CELL 1.54180   50.00000   50.00000   50.00000   90.00000   90.00000   90.00000
LATT -1
SFAC C  
C      1  0.4808020000000  0.4994790000000  0.5448200000000 1.0
C      1  0.5359140000000  0.5275390000000  0.4731000000000 1.0
C      1  0.4657980000000  0.4883660000000  0.4976970000000 1.0
C      1  0.5453170000000  0.5402310000000  0.4963950000000 1.0
C      1  0.4802120000000  0.4586200000000  0.4477140000000 1.0
C      1  0.4639230000000  0.5059230000000  0.4743150000000 1.0
C      1  0.4954980000000  0.4831210000000  0.4427360000000 1.0
C      1  0.4514770000000  0.5298430000000  0.4829400000000 1.0
C      1  0.5048200000000  0.5158350000000  0.5064250000000 1.0
C      1  0.4716110000000  0.4504990000000  0.4701170000000 1.0
C      1  0.4830120000000  0.4492100000000  0.5206730000000 1.0
C      1  0.5503600000000  0.5149380000000  0.4525960000000 1.0
C      1  0.4681440000000  0.4482850000000  0.5455840000000 1.0
C      1  0.5276670000000  0.4990340000000  0.5188160000000 1.0
C      1  0.5435900000000  0.4947870000000  0.4374920000000 1.0
C      1  0.5077030000000  0.5436250000000  0.5164740000000 1.0
C      1  0.5264150000000  0.5176600000000  0.5650520000000 1.0
C      1  0.5113090000000  0.4497250000000  0.5208890000000 1.0
C      1  0.4710950000000  0.4739540000000  0.5485640000000 1.0
C      1  0.4780670000000  0.5069270000000  0.5163650000000 1.0
C      1  0.5362040000000  0.5440300000000  0.5216410000000 1.0
C      1  0.4700620000000  0.4605480000000  0.4966050000000 1.0
C      1  0.5083390000000  0.5179560000000  0.4774420000000 1.0
C      1  0.4893350000000  0.5055890000000  0.4602920000000 1.0
C      1  0.5214530000000  0.4821700000000  0.4330120000000 1.0
C      1  0.5375590000000  0.5185690000000  0.5388250000000 1.0
C      1  0.4657650000000  0.5357500000000  0.5052150000000 1.0
C      1  0.5028780000000  0.5099070000000  0.5570910000000 1.0
C      1  0.4832720000000  0.5553850000000  0.5127910000000 1.0
C      1  0.5224000000000  0.4724950000000  0.5183230000000 1.0
END
