TITL C-211906-457-8 -29.5352305393705 125000 -630.161123354922 0 0 91 (C1) n - 1
REM
REM in /rds/project/t2_vol4/rds-t2-cs072/BORA/CARBON/from-Arr/AIRSS/Generating-Clusters/GAP-ML-2020/Only-C1/SD-CG/HFTN-CG
REM
REM
REM
REM
REM
REM ./C.cell (11c1c37f851c82e70ff6c80c92926a4b)
REM AIRSS Version 0.9.1 bugfix July 2018 build 013d7b7c2542+ Fri, 06 Jul 2018 19:26:36 +0100
REM compiler GCC version 9.3.0
REM options -cpp -mtune=generic -march=x86-64 -g -O0
REM seed -1209211699 1965343446 -1961624541 -484208127 877801523 101122522 678405006 853797475 1081424328 -2136970851 -588733542 -1301750537 2117349339 813973758 188088430 -1807455921 -801844020 -555712180 1312106535 -269087028 -1167693896 -1394547307 1330499769 -1998381304 1609836908 805530542 1750116574 1249910923 649455793 510289423 188012049 223245899 605946122
REM
CELL 1.54180   50.00000   50.00000   50.00000   90.00000   90.00000   90.00000
LATT -1
SFAC C  
C      1  0.4499690000000  0.4399480000000  0.5281720000000 1.0
C      1  0.5147560000000  0.4881720000000  0.5779710000000 1.0
C      1  0.5277590000000  0.5770740000000  0.5287940000000 1.0
C      1  0.4613530000000  0.4689180000000  0.4864770000000 1.0
C      1  0.5033050000000  0.5478130000000  0.4464200000000 1.0
C      1  0.4756130000000  0.4594800000000  0.5701410000000 1.0
C      1  0.4882590000000  0.4849650000000  0.4961610000000 1.0
C      1  0.5159380000000  0.5578900000000  0.4723370000000 1.0
C      1  0.4689950000000  0.4232490000000  0.5142200000000 1.0
C      1  0.4481290000000  0.5014570000000  0.5514510000000 1.0
C      1  0.4853850000000  0.4910350000000  0.4191820000000 1.0
C      1  0.5382350000000  0.4896130000000  0.4840470000000 1.0
C      1  0.4859970000000  0.5160170000000  0.5358110000000 1.0
C      1  0.5041640000000  0.4427520000000  0.4415810000000 1.0
C      1  0.5192290000000  0.5584690000000  0.5506430000000 1.0
C      1  0.5625270000000  0.4389530000000  0.4839290000000 1.0
C      1  0.4865350000000  0.5163880000000  0.4904020000000 1.0
C      1  0.4397710000000  0.5404120000000  0.5466950000000 1.0
C      1  0.4751300000000  0.5625720000000  0.5340810000000 1.0
C      1  0.4857430000000  0.4228070000000  0.5378370000000 1.0
C      1  0.5773240000000  0.4789510000000  0.4656460000000 1.0
C      1  0.5650380000000  0.5478180000000  0.5169830000000 1.0
C      1  0.4678630000000  0.4447180000000  0.4711690000000 1.0
C      1  0.4190920000000  0.5309740000000  0.4924440000000 1.0
C      1  0.4628750000000  0.5524130000000  0.5601850000000 1.0
C      1  0.4880380000000  0.4871690000000  0.5260970000000 1.0
C      1  0.5631320000000  0.5421170000000  0.4740270000000 1.0
C      1  0.4161210000000  0.4791360000000  0.5129760000000 1.0
C      1  0.5248860000000  0.5151140000000  0.5728340000000 1.0
C      1  0.5448930000000  0.5630960000000  0.4810380000000 1.0
C      1  0.5128000000000  0.4270280000000  0.5345920000000 1.0
C      1  0.5019270000000  0.5421300000000  0.5332200000000 1.0
C      1  0.4678840000000  0.4408080000000  0.5527280000000 1.0
C      1  0.5223860000000  0.4598110000000  0.4278290000000 1.0
C      1  0.4725790000000  0.5804960000000  0.4885530000000 1.0
C      1  0.5574110000000  0.4820930000000  0.5590490000000 1.0
C      1  0.4862130000000  0.4840610000000  0.5759130000000 1.0
C      1  0.5075580000000  0.4188730000000  0.4855120000000 1.0
C      1  0.5180380000000  0.4786440000000  0.5255790000000 1.0
C      1  0.4292520000000  0.4991250000000  0.4550840000000 1.0
C      1  0.4393980000000  0.4852300000000  0.4344200000000 1.0
C      1  0.4414950000000  0.4636250000000  0.5140520000000 1.0
C      1  0.4730230000000  0.5088670000000  0.5658500000000 1.0
C      1  0.5482900000000  0.5686890000000  0.5099540000000 1.0
C      1  0.4520480000000  0.5485210000000  0.5213010000000 1.0
C      1  0.4797990000000  0.4251110000000  0.4883360000000 1.0
C      1  0.5526910000000  0.5250190000000  0.4545490000000 1.0
C      1  0.5165080000000  0.4761920000000  0.4960550000000 1.0
C      1  0.5483730000000  0.4570440000000  0.4392920000000 1.0
C      1  0.5501860000000  0.4303600000000  0.5080190000000 1.0
C      1  0.5081210000000  0.5875050000000  0.5115220000000 1.0
C      1  0.4651830000000  0.4738130000000  0.4304600000000 1.0
C      1  0.5543610000000  0.5064870000000  0.4330210000000 1.0
C      1  0.5367540000000  0.5056970000000  0.5265980000000 1.0
C      1  0.4798180000000  0.5848830000000  0.5168210000000 1.0
C      1  0.5598310000000  0.5017900000000  0.5061420000000 1.0
C      1  0.4251180000000  0.5274030000000  0.4646850000000 1.0
C      1  0.5464110000000  0.5080120000000  0.5545990000000 1.0
C      1  0.5238350000000  0.4198490000000  0.5091160000000 1.0
C      1  0.4769350000000  0.4507650000000  0.4450470000000 1.0
C      1  0.5649920000000  0.4802340000000  0.4413010000000 1.0
C      1  0.4469420000000  0.5050000000000  0.5056020000000 1.0
C      1  0.5139180000000  0.5284360000000  0.4878300000000 1.0
C      1  0.5712810000000  0.5288720000000  0.4988420000000 1.0
C      1  0.4263210000000  0.5168760000000  0.5433470000000 1.0
C      1  0.4837370000000  0.5193690000000  0.4225920000000 1.0
C      1  0.5192630000000  0.4281490000000  0.4613210000000 1.0
C      1  0.5281220000000  0.4502330000000  0.5451190000000 1.0
C      1  0.4336040000000  0.5550010000000  0.4996130000000 1.0
C      1  0.5205870000000  0.5275430000000  0.5158810000000 1.0
C      1  0.4498880000000  0.5656700000000  0.4785520000000 1.0
C      1  0.5464980000000  0.4372810000000  0.4602400000000 1.0
C      1  0.5344000000000  0.4684820000000  0.5683780000000 1.0
C      1  0.4565430000000  0.4858090000000  0.5281380000000 1.0
C      1  0.5103380000000  0.5301060000000  0.4250010000000 1.0
C      1  0.5790350000000  0.4623550000000  0.4873150000000 1.0
C      1  0.4804460000000  0.5363320000000  0.5751550000000 1.0
C      1  0.5130560000000  0.4842530000000  0.4169840000000 1.0
C      1  0.4674810000000  0.5240790000000  0.5127110000000 1.0
C      1  0.5540970000000  0.4447950000000  0.5325690000000 1.0
C      1  0.5302080000000  0.5120870000000  0.4700210000000 1.0
C      1  0.5013470000000  0.5802830000000  0.4839830000000 1.0
C      1  0.5293360000000  0.5080850000000  0.4191850000000 1.0
C      1  0.5699310000000  0.4677630000000  0.5370120000000 1.0
C      1  0.4186520000000  0.5082920000000  0.5150950000000 1.0
C      1  0.4500090000000  0.4946050000000  0.4765030000000 1.0
C      1  0.4478630000000  0.5451970000000  0.4581340000000 1.0
C      1  0.5769200000000  0.4783590000000  0.5119490000000 1.0
C      1  0.5105180000000  0.5405690000000  0.5709280000000 1.0
C      1  0.4734940000000  0.5343610000000  0.4460540000000 1.0
C      1  0.4708950000000  0.5141020000000  0.4669980000000 1.0
END
