TITL C-214950-3580-1 85.3939850084553 125000 -383.050799803612 0 0 56 (C1) n - 1
REM
REM in /rds/project/t2_vol4/rds-t2-cs072/BORA/CARBON/from-Arr/AIRSS/Generating-Clusters/GAP-ML-2020/Only-C1/SD-CG/HFTN-CG
REM
REM
REM
REM
REM
REM ./C.cell (11c1c37f851c82e70ff6c80c92926a4b)
REM AIRSS Version 0.9.1 bugfix July 2018 build 013d7b7c2542+ Fri, 06 Jul 2018 19:26:36 +0100
REM compiler GCC version 9.3.0
REM options -cpp -mtune=generic -march=x86-64 -g -O0
REM seed -1229734774 -798532049 -645378035 -705191415 -1809332623 -560759667 -57722086 -131380458 -147460280 -724963650 -1483996653 -2128257064 -52597297 33479710 -438606618 2020491567 462996957 -314941551 -167572949 1852454312 1287314043 -1381528355 352927096 -2018344020 -524372547 -697549019 2066711472 1863299862 2106145059 500525946 -253750370 2018986419 -1410096476
REM
CELL 1.54180   50.00000   50.00000   50.00000   90.00000   90.00000   90.00000
LATT -1
SFAC C  
C      1  0.5128460000000  0.5022980000000  0.5188670000000 1.0
C      1  0.5163870000000  0.4533640000000  0.5077030000000 1.0
C      1  0.5422730000000  0.5488330000000  0.4983890000000 1.0
C      1  0.5404550000000  0.5335970000000  0.4541410000000 1.0
C      1  0.5537770000000  0.4863640000000  0.4625340000000 1.0
C      1  0.5370790000000  0.4739220000000  0.4423330000000 1.0
C      1  0.5301840000000  0.5532100000000  0.4731680000000 1.0
C      1  0.4585060000000  0.5033190000000  0.4437840000000 1.0
C      1  0.4862470000000  0.5603480000000  0.4927130000000 1.0
C      1  0.5511600000000  0.4612410000000  0.4795780000000 1.0
C      1  0.4724400000000  0.4755070000000  0.5630860000000 1.0
C      1  0.5646430000000  0.5009360000000  0.5633190000000 1.0
C      1  0.5599670000000  0.5131760000000  0.5211240000000 1.0
C      1  0.4803610000000  0.5192490000000  0.4348450000000 1.0
C      1  0.4520420000000  0.4707240000000  0.4740610000000 1.0
C      1  0.4798540000000  0.4482830000000  0.5567380000000 1.0
C      1  0.4956050000000  0.5422420000000  0.4450200000000 1.0
C      1  0.5057160000000  0.5072430000000  0.4253030000000 1.0
C      1  0.4856270000000  0.5243340000000  0.5608980000000 1.0
C      1  0.5053320000000  0.4456950000000  0.4627000000000 1.0
C      1  0.4716830000000  0.5103730000000  0.4954150000000 1.0
C      1  0.4912170000000  0.4985060000000  0.5684090000000 1.0
C      1  0.4694470000000  0.4819000000000  0.4942410000000 1.0
C      1  0.5598130000000  0.5250530000000  0.4956500000000 1.0
C      1  0.5239500000000  0.4698950000000  0.5475530000000 1.0
C      1  0.4569950000000  0.5554790000000  0.4936120000000 1.0
C      1  0.5442050000000  0.4571930000000  0.5066560000000 1.0
C      1  0.4990130000000  0.4387050000000  0.4902590000000 1.0
C      1  0.5190150000000  0.4905530000000  0.5674350000000 1.0
C      1  0.4460990000000  0.5641470000000  0.5176160000000 1.0
C      1  0.4394510000000  0.5131300000000  0.4643430000000 1.0
C      1  0.5272010000000  0.5469350000000  0.5213580000000 1.0
C      1  0.5209740000000  0.5298260000000  0.4346210000000 1.0
C      1  0.4938050000000  0.5183390000000  0.5086170000000 1.0
C      1  0.4788650000000  0.4286820000000  0.5069410000000 1.0
C      1  0.4912510000000  0.4644980000000  0.4447920000000 1.0
C      1  0.4305190000000  0.4888240000000  0.4795790000000 1.0
C      1  0.5334950000000  0.4502450000000  0.4590860000000 1.0
C      1  0.4534510000000  0.5292980000000  0.4830300000000 1.0
C      1  0.5115900000000  0.4805850000000  0.4312460000000 1.0
C      1  0.4550660000000  0.4815710000000  0.5405760000000 1.0
C      1  0.4233770000000  0.4888390000000  0.5061540000000 1.0
C      1  0.5681750000000  0.4901040000000  0.5374460000000 1.0
C      1  0.4550890000000  0.5603690000000  0.5417240000000 1.0
C      1  0.4738370000000  0.4415140000000  0.5301890000000 1.0
C      1  0.5493610000000  0.4693930000000  0.5319240000000 1.0
C      1  0.4646730000000  0.4751710000000  0.4483290000000 1.0
C      1  0.5393210000000  0.5103900000000  0.5629620000000 1.0
C      1  0.4978890000000  0.5478730000000  0.5173410000000 1.0
C      1  0.4791360000000  0.5448540000000  0.5443510000000 1.0
C      1  0.5051700000000  0.4748020000000  0.5243170000000 1.0
C      1  0.4294730000000  0.4866330000000  0.5311290000000 1.0
C      1  0.5341130000000  0.5202770000000  0.5337220000000 1.0
C      1  0.5019370000000  0.5562640000000  0.4695900000000 1.0
C      1  0.5561170000000  0.5139820000000  0.4689270000000 1.0
C      1  0.4747250000000  0.4719120000000  0.5205560000000 1.0
END
