TITL C-21826-6845-7 -54.3941063183222 125000 -399.719506191761 0 0 57 (C1) n - 1
REM
REM in /rds/project/t2_vol4/rds-t2-cs072/BORA/CARBON/from-Arr/AIRSS/Generating-Clusters/GAP-ML-2020/Only-C1/SD-CG/HFTN-CG
REM
REM
REM
REM
REM
REM ./C.cell (11c1c37f851c82e70ff6c80c92926a4b)
REM AIRSS Version 0.9.1 bugfix July 2018 build 013d7b7c2542+ Fri, 06 Jul 2018 19:26:36 +0100
REM compiler GCC version 9.3.0
REM options -cpp -mtune=generic -march=x86-64 -g -O0
REM seed -1986052272 603876244 -1507601457 -1255378684 144962451 1883308437 -569414360 -1377514944 -1749689369 -375453581 1852177733 -588578878 -1420366672 1529743718 1101565672 594640850 -1363086230 200164123 1028468388 997475877 -1208189452 -1281738776 -1475185179 1219518855 -1255522215 986119969 -1382007274 1639272664 251377796 -1184625565 1900248046 -183933267 1937221829
REM
CELL 1.54180   50.00000   50.00000   50.00000   90.00000   90.00000   90.00000
LATT -1
SFAC C  
C      1  0.5232940000000  0.4915390000000  0.5102900000000 1.0
C      1  0.5604220000000  0.5197330000000  0.5254650000000 1.0
C      1  0.5488490000000  0.5409800000000  0.4826890000000 1.0
C      1  0.4828480000000  0.5357480000000  0.5371500000000 1.0
C      1  0.4989720000000  0.5574610000000  0.5278610000000 1.0
C      1  0.5626050000000  0.5197870000000  0.4966220000000 1.0
C      1  0.5403690000000  0.4889080000000  0.5538060000000 1.0
C      1  0.4381730000000  0.4907490000000  0.5224270000000 1.0
C      1  0.5625080000000  0.4933020000000  0.5361540000000 1.0
C      1  0.4627970000000  0.5467440000000  0.4675710000000 1.0
C      1  0.4660610000000  0.5566030000000  0.4953430000000 1.0
C      1  0.4515140000000  0.4550410000000  0.4949160000000 1.0
C      1  0.4949740000000  0.5130400000000  0.5507140000000 1.0
C      1  0.5007490000000  0.5247730000000  0.4919810000000 1.0
C      1  0.4365240000000  0.5190460000000  0.5148870000000 1.0
C      1  0.5655310000000  0.4917750000000  0.4895010000000 1.0
C      1  0.4411910000000  0.5291060000000  0.4655010000000 1.0
C      1  0.5151970000000  0.4440560000000  0.4857890000000 1.0
C      1  0.5069330000000  0.4456680000000  0.5146160000000 1.0
C      1  0.4627370000000  0.4828150000000  0.4519370000000 1.0
C      1  0.5114120000000  0.5703140000000  0.4844910000000 1.0
C      1  0.4896090000000  0.5689250000000  0.5025880000000 1.0
C      1  0.5281750000000  0.4638720000000  0.5536200000000 1.0
C      1  0.4412600000000  0.5003770000000  0.4566450000000 1.0
C      1  0.4255710000000  0.5209580000000  0.4886900000000 1.0
C      1  0.4974610000000  0.5171850000000  0.4407690000000 1.0
C      1  0.5390070000000  0.5328770000000  0.5387370000000 1.0
C      1  0.4870830000000  0.4907650000000  0.4401400000000 1.0
C      1  0.4734480000000  0.5134700000000  0.4952670000000 1.0
C      1  0.5683300000000  0.4765450000000  0.5142710000000 1.0
C      1  0.5342960000000  0.5599760000000  0.4985210000000 1.0
C      1  0.4573740000000  0.4756850000000  0.5366200000000 1.0
C      1  0.4853990000000  0.4843390000000  0.5459400000000 1.0
C      1  0.4870830000000  0.5429100000000  0.4513830000000 1.0
C      1  0.5529520000000  0.4531990000000  0.5118690000000 1.0
C      1  0.4976810000000  0.4532450000000  0.4657540000000 1.0
C      1  0.5326290000000  0.4862580000000  0.4502540000000 1.0
C      1  0.4613760000000  0.5339910000000  0.5162570000000 1.0
C      1  0.4990460000000  0.4763370000000  0.5182980000000 1.0
C      1  0.5329780000000  0.4475070000000  0.5304100000000 1.0
C      1  0.5107930000000  0.4994030000000  0.4867690000000 1.0
C      1  0.5107130000000  0.5567030000000  0.4595510000000 1.0
C      1  0.4605020000000  0.4504880000000  0.5216230000000 1.0
C      1  0.4320230000000  0.4759570000000  0.4983940000000 1.0
C      1  0.4710830000000  0.4642580000000  0.4742560000000 1.0
C      1  0.4835450000000  0.4863580000000  0.4947680000000 1.0
C      1  0.5269010000000  0.5542150000000  0.5256300000000 1.0
C      1  0.5237080000000  0.5134400000000  0.5531430000000 1.0
C      1  0.5080140000000  0.4720000000000  0.4467360000000 1.0
C      1  0.4998750000000  0.4625990000000  0.5601340000000 1.0
C      1  0.4238340000000  0.4937250000000  0.4786650000000 1.0
C      1  0.5259210000000  0.5145360000000  0.4453530000000 1.0
C      1  0.5421960000000  0.4523410000000  0.4847870000000 1.0
C      1  0.4885570000000  0.4381530000000  0.5563480000000 1.0
C      1  0.4834730000000  0.4354880000000  0.5296630000000 1.0
C      1  0.5338190000000  0.5387030000000  0.4581570000000 1.0
C      1  0.5506310000000  0.4760210000000  0.4702770000000 1.0
END
