TITL C-2109093-6227-14 -335.795139389858 125000 -879.737099599493 0 0 126 (C1) n - 1
REM
REM in /nfs/bkarasulu/CARBON/AIRSS/Generating-Clusters/GAP-ML-2020/Only-C1/SD-CG/HFTN-CG
REM
REM
REM
REM
REM
REM ./C.cell (11c1c37f851c82e70ff6c80c92926a4b)
REM
REM compiler GCC version 9.2.1 20190827 (Red Hat 9.2.1-1)
REM options -cpp -mtune=generic -march=x86-64 -g -O0 -fpre-include=/usr/include/finclude/math-vector-fortran.h
REM seed -862321981 381991576 -1134702443 -198173229 -384289089 -1812256585 1906135512 -559253057 57530738 -1073095473 1283456437 1489628061 -357121809 -1412480591 -569542970 -289844040 931568717 -1499031415 -14468053 2088573471 1386289198 1629577091 68498641 -1708620327 -888918112 -737868819 -261666513 -81183055 -1491508227 -763854303 -136427416 -1908453645 762352902
REM
CELL 1.54180   50.00000   50.00000   50.00000   90.00000   90.00000   90.00000
LATT -1
SFAC C  
C      1  0.4350000000000  0.4389600000000  0.5262620000000 1.0
C      1  0.4917480000000  0.4663780000000  0.5936710000000 1.0
C      1  0.4443000000000  0.5680520000000  0.4645480000000 1.0
C      1  0.4308580000000  0.4830640000000  0.5425790000000 1.0
C      1  0.4946840000000  0.5297090000000  0.5057790000000 1.0
C      1  0.4846680000000  0.5441780000000  0.5305460000000 1.0
C      1  0.4974200000000  0.4553890000000  0.5177090000000 1.0
C      1  0.4665870000000  0.4696960000000  0.4261440000000 1.0
C      1  0.4250610000000  0.5111430000000  0.4381350000000 1.0
C      1  0.5488710000000  0.4976280000000  0.5047200000000 1.0
C      1  0.4494800000000  0.5168430000000  0.5093800000000 1.0
C      1  0.5108920000000  0.4616800000000  0.4190510000000 1.0
C      1  0.4934870000000  0.4717320000000  0.4403170000000 1.0
C      1  0.5689800000000  0.4964570000000  0.4802990000000 1.0
C      1  0.4821760000000  0.4282870000000  0.5216630000000 1.0
C      1  0.5791070000000  0.5229450000000  0.4682120000000 1.0
C      1  0.5037210000000  0.5190780000000  0.4024760000000 1.0
C      1  0.4538770000000  0.5352960000000  0.5330240000000 1.0
C      1  0.5434450000000  0.5268160000000  0.5135250000000 1.0
C      1  0.5470980000000  0.5719150000000  0.5459500000000 1.0
C      1  0.4601330000000  0.5817820000000  0.4843760000000 1.0
C      1  0.5573820000000  0.5849490000000  0.4969480000000 1.0
C      1  0.4425010000000  0.5257580000000  0.5584850000000 1.0
C      1  0.5295460000000  0.5499900000000  0.5877510000000 1.0
C      1  0.5224210000000  0.5036230000000  0.4661810000000 1.0
C      1  0.4254170000000  0.5353640000000  0.4995950000000 1.0
C      1  0.5259300000000  0.5038790000000  0.5970870000000 1.0
C      1  0.5418620000000  0.4963560000000  0.5747940000000 1.0
C      1  0.4640280000000  0.4745510000000  0.4735350000000 1.0
C      1  0.4883850000000  0.3877990000000  0.4968930000000 1.0
C      1  0.4247270000000  0.5503380000000  0.4729150000000 1.0
C      1  0.5053260000000  0.5592750000000  0.4318900000000 1.0
C      1  0.5913840000000  0.5272530000000  0.5270260000000 1.0
C      1  0.4474140000000  0.5170880000000  0.4202190000000 1.0
C      1  0.5209980000000  0.5840380000000  0.5422290000000 1.0
C      1  0.5308010000000  0.5249900000000  0.5412330000000 1.0
C      1  0.4676710000000  0.4467910000000  0.5641790000000 1.0
C      1  0.4625670000000  0.4937850000000  0.4101450000000 1.0
C      1  0.4755590000000  0.4146170000000  0.4934940000000 1.0
C      1  0.4560080000000  0.5762010000000  0.5117120000000 1.0
C      1  0.5129550000000  0.4627850000000  0.4911860000000 1.0
C      1  0.4347090000000  0.4427680000000  0.4961810000000 1.0
C      1  0.5094970000000  0.4324650000000  0.4289710000000 1.0
C      1  0.6076500000000  0.5103060000000  0.5119840000000 1.0
C      1  0.5343140000000  0.4777540000000  0.5494690000000 1.0
C      1  0.5987970000000  0.4844720000000  0.5134300000000 1.0
C      1  0.5716290000000  0.5439790000000  0.5123820000000 1.0
C      1  0.4512240000000  0.4230180000000  0.4789690000000 1.0
C      1  0.4819510000000  0.5749900000000  0.5296720000000 1.0
C      1  0.4958610000000  0.4262300000000  0.4723480000000 1.0
C      1  0.4722190000000  0.5219910000000  0.4892690000000 1.0
C      1  0.4631310000000  0.4636110000000  0.5876440000000 1.0
C      1  0.4378850000000  0.5559400000000  0.5186970000000 1.0
C      1  0.5564810000000  0.4753140000000  0.5299160000000 1.0
C      1  0.4060020000000  0.4599180000000  0.4920790000000 1.0
C      1  0.4954600000000  0.4585300000000  0.5655340000000 1.0
C      1  0.4766160000000  0.5087750000000  0.5951930000000 1.0
C      1  0.5331560000000  0.4805170000000  0.4142360000000 1.0
C      1  0.4367610000000  0.4989640000000  0.5652440000000 1.0
C      1  0.5347680000000  0.4062920000000  0.4989320000000 1.0
C      1  0.5020270000000  0.5522320000000  0.5755850000000 1.0
C      1  0.4786510000000  0.5369650000000  0.5876440000000 1.0
C      1  0.5271390000000  0.4209830000000  0.4747730000000 1.0
C      1  0.5345670000000  0.5902240000000  0.4797930000000 1.0
C      1  0.4518510000000  0.4448610000000  0.4330780000000 1.0
C      1  0.5850950000000  0.4742550000000  0.4903060000000 1.0
C      1  0.5625400000000  0.5713010000000  0.5213550000000 1.0
C      1  0.5611120000000  0.4464580000000  0.5191220000000 1.0
C      1  0.5506960000000  0.4727480000000  0.4349500000000 1.0
C      1  0.5453980000000  0.5296980000000  0.4267060000000 1.0
C      1  0.5141100000000  0.4998580000000  0.5407510000000 1.0
C      1  0.4093380000000  0.5134560000000  0.4838270000000 1.0
C      1  0.5306650000000  0.5504220000000  0.4442790000000 1.0
C      1  0.5321520000000  0.4255270000000  0.4440060000000 1.0
C      1  0.5112840000000  0.3923230000000  0.5107610000000 1.0
C      1  0.4861440000000  0.5738810000000  0.4473230000000 1.0
C      1  0.5170040000000  0.4528710000000  0.5471360000000 1.0
C      1  0.5477100000000  0.4484610000000  0.4485160000000 1.0
C      1  0.5050680000000  0.5891050000000  0.5183590000000 1.0
C      1  0.5040350000000  0.4102250000000  0.5317480000000 1.0
C      1  0.4973390000000  0.4994130000000  0.4519300000000 1.0
C      1  0.5828350000000  0.4850610000000  0.5380600000000 1.0
C      1  0.4860070000000  0.4995370000000  0.3977290000000 1.0
C      1  0.5688510000000  0.5698870000000  0.4737580000000 1.0
C      1  0.4869440000000  0.4209400000000  0.4452400000000 1.0
C      1  0.5414800000000  0.4481520000000  0.4781830000000 1.0
C      1  0.3958680000000  0.4601940000000  0.5170280000000 1.0
C      1  0.5457060000000  0.4230990000000  0.5215810000000 1.0
C      1  0.4430380000000  0.4726140000000  0.4936940000000 1.0
C      1  0.4149340000000  0.5277420000000  0.4589540000000 1.0
C      1  0.5011320000000  0.5014310000000  0.5131420000000 1.0
C      1  0.5299570000000  0.5100270000000  0.4117430000000 1.0
C      1  0.4993870000000  0.4924950000000  0.6010910000000 1.0
C      1  0.4457060000000  0.4680870000000  0.4481560000000 1.0
C      1  0.4563650000000  0.5424790000000  0.5743290000000 1.0
C      1  0.5252810000000  0.5324390000000  0.4697500000000 1.0
C      1  0.4800920000000  0.4810780000000  0.5235660000000 1.0
C      1  0.5492860000000  0.5506060000000  0.5667740000000 1.0
C      1  0.4884660000000  0.4874720000000  0.5514770000000 1.0
C      1  0.5551170000000  0.5200670000000  0.5608560000000 1.0
C      1  0.4747010000000  0.5027490000000  0.4690460000000 1.0
C      1  0.5055940000000  0.5376230000000  0.5497170000000 1.0
C      1  0.5318680000000  0.5303130000000  0.6065960000000 1.0
C      1  0.4909500000000  0.5419150000000  0.4145650000000 1.0
C      1  0.4912700000000  0.4580950000000  0.4700260000000 1.0
C      1  0.5215740000000  0.5384240000000  0.4965720000000 1.0
C      1  0.4162080000000  0.4850620000000  0.4786640000000 1.0
C      1  0.5797320000000  0.5115080000000  0.5481610000000 1.0
C      1  0.4162700000000  0.4595450000000  0.5357230000000 1.0
C      1  0.4980720000000  0.5762140000000  0.5576630000000 1.0
C      1  0.5524530000000  0.4943260000000  0.4548150000000 1.0
C      1  0.4630320000000  0.5415300000000  0.4220110000000 1.0
C      1  0.4604290000000  0.5632150000000  0.4412730000000 1.0
C      1  0.4230890000000  0.4854890000000  0.4500120000000 1.0
C      1  0.5650120000000  0.5190910000000  0.4438310000000 1.0
C      1  0.5453180000000  0.5734960000000  0.4578340000000 1.0
C      1  0.5085540000000  0.5929330000000  0.4903690000000 1.0
C      1  0.5680320000000  0.4513710000000  0.4928280000000 1.0
C      1  0.5260340000000  0.4252750000000  0.5411000000000 1.0
C      1  0.5214100000000  0.4905880000000  0.4938670000000 1.0
C      1  0.4589230000000  0.4245840000000  0.4498430000000 1.0
C      1  0.4861960000000  0.5865810000000  0.4734490000000 1.0
C      1  0.4590430000000  0.4343180000000  0.5402530000000 1.0
C      1  0.5794240000000  0.5462610000000  0.4836410000000 1.0
C      1  0.4493640000000  0.4876120000000  0.5184040000000 1.0
C      1  0.4544820000000  0.4909160000000  0.5866610000000 1.0
END
