TITL C-21848-6202-5 62.5346878632686 125000 -648.643847443376 0 0 95 (C1) n - 1
REM
REM in /rds/project/t2_vol4/rds-t2-cs072/BORA/CARBON/from-Arr/AIRSS/Generating-Clusters/GAP-ML-2020/Only-C1/SD-CG/HFTN-CG
REM
REM
REM
REM
REM
REM ./C.cell (11c1c37f851c82e70ff6c80c92926a4b)
REM AIRSS Version 0.9.1 bugfix July 2018 build 013d7b7c2542+ Fri, 06 Jul 2018 19:26:36 +0100
REM compiler GCC version 9.3.0
REM options -cpp -mtune=generic -march=x86-64 -g -O0
REM seed -900397914 2013901757 1768003439 -1721807820 -1774821330 -2035058084 -1985514646 -181210164 -1055052295 597557808 -882852818 82802528 1534885011 -1963911181 278615078 865534186 1143930188 -572153107 339906723 -1395607294 279275082 1390310977 -1490247866 -1316634133 -828680717 499141775 70655326 900977301 -1202502978 595830983 445946079 1739829012 169780379
REM
CELL 1.54180   50.00000   50.00000   50.00000   90.00000   90.00000   90.00000
LATT -1
SFAC C  
C      1  0.5467150000000  0.4696910000000  0.4488170000000 1.0
C      1  0.4495040000000  0.5435850000000  0.4690740000000 1.0
C      1  0.4363460000000  0.4534260000000  0.4772420000000 1.0
C      1  0.4579740000000  0.4656480000000  0.4348420000000 1.0
C      1  0.5034800000000  0.4557820000000  0.4272700000000 1.0
C      1  0.4455670000000  0.5291350000000  0.5661570000000 1.0
C      1  0.5061380000000  0.4924320000000  0.5451750000000 1.0
C      1  0.4896940000000  0.5311440000000  0.5218940000000 1.0
C      1  0.5782320000000  0.5001520000000  0.4605890000000 1.0
C      1  0.5034690000000  0.4943090000000  0.4558440000000 1.0
C      1  0.5308270000000  0.5609080000000  0.5195480000000 1.0
C      1  0.4216010000000  0.5075480000000  0.4844570000000 1.0
C      1  0.4996450000000  0.4848160000000  0.4232420000000 1.0
C      1  0.5797270000000  0.5336900000000  0.5265860000000 1.0
C      1  0.5124710000000  0.5815670000000  0.4616620000000 1.0
C      1  0.5309830000000  0.5321110000000  0.5272250000000 1.0
C      1  0.5382810000000  0.5167720000000  0.4329640000000 1.0
C      1  0.4317970000000  0.5335440000000  0.4914610000000 1.0
C      1  0.4644100000000  0.5151140000000  0.4272310000000 1.0
C      1  0.4395610000000  0.5045540000000  0.5270770000000 1.0
C      1  0.4914780000000  0.4787850000000  0.5685020000000 1.0
C      1  0.5402850000000  0.5135640000000  0.4785270000000 1.0
C      1  0.5500480000000  0.4340050000000  0.5253750000000 1.0
C      1  0.5078580000000  0.5250190000000  0.5439100000000 1.0
C      1  0.4728100000000  0.5845410000000  0.5289330000000 1.0
C      1  0.5294960000000  0.4278730000000  0.4587290000000 1.0
C      1  0.5718600000000  0.4906060000000  0.5054150000000 1.0
C      1  0.5728250000000  0.5184050000000  0.5505390000000 1.0
C      1  0.5073310000000  0.4346710000000  0.5448160000000 1.0
C      1  0.4776760000000  0.5331180000000  0.4761220000000 1.0
C      1  0.4752870000000  0.5048030000000  0.4876720000000 1.0
C      1  0.5515440000000  0.5618010000000  0.4965850000000 1.0
C      1  0.5431400000000  0.4857760000000  0.5148790000000 1.0
C      1  0.5693760000000  0.5170380000000  0.4827980000000 1.0
C      1  0.4420610000000  0.5478090000000  0.5429740000000 1.0
C      1  0.4864560000000  0.5492760000000  0.4997880000000 1.0
C      1  0.4917110000000  0.4848620000000  0.5205260000000 1.0
C      1  0.4727820000000  0.4085830000000  0.5206640000000 1.0
C      1  0.5437670000000  0.4211070000000  0.5023850000000 1.0
C      1  0.4914060000000  0.5265660000000  0.4266480000000 1.0
C      1  0.4559360000000  0.4261180000000  0.5092170000000 1.0
C      1  0.4444690000000  0.5023640000000  0.5565310000000 1.0
C      1  0.4636550000000  0.4923690000000  0.5122980000000 1.0
C      1  0.4790330000000  0.4459910000000  0.4385170000000 1.0
C      1  0.4877680000000  0.4504070000000  0.5573870000000 1.0
C      1  0.5173750000000  0.5700200000000  0.5459480000000 1.0
C      1  0.4557670000000  0.4329510000000  0.4808020000000 1.0
C      1  0.4599290000000  0.4556580000000  0.5494830000000 1.0
C      1  0.4628390000000  0.5665640000000  0.5481540000000 1.0
C      1  0.4853900000000  0.5797720000000  0.4614890000000 1.0
C      1  0.4790090000000  0.5547830000000  0.5713870000000 1.0
C      1  0.5291910000000  0.5329390000000  0.4579650000000 1.0
C      1  0.4355960000000  0.5327560000000  0.5199110000000 1.0
C      1  0.4451690000000  0.4477030000000  0.5245300000000 1.0
C      1  0.4292530000000  0.4622190000000  0.5038210000000 1.0
C      1  0.5341180000000  0.4773840000000  0.5430080000000 1.0
C      1  0.4850040000000  0.4588870000000  0.4823480000000 1.0
C      1  0.4978910000000  0.5881690000000  0.4871480000000 1.0
C      1  0.5522850000000  0.4314170000000  0.4760190000000 1.0
C      1  0.5318070000000  0.5604550000000  0.4725110000000 1.0
C      1  0.4718900000000  0.5760830000000  0.5002880000000 1.0
C      1  0.4610530000000  0.4806120000000  0.5641480000000 1.0
C      1  0.5004800000000  0.5091540000000  0.5052750000000 1.0
C      1  0.4598990000000  0.5721890000000  0.4728140000000 1.0
C      1  0.5294680000000  0.4865390000000  0.4693980000000 1.0
C      1  0.5302440000000  0.5119190000000  0.5065720000000 1.0
C      1  0.5077900000000  0.5469200000000  0.5650980000000 1.0
C      1  0.5716450000000  0.5423820000000  0.4996190000000 1.0
C      1  0.5118460000000  0.5633190000000  0.4970580000000 1.0
C      1  0.4597750000000  0.5415880000000  0.5864820000000 1.0
C      1  0.4807410000000  0.4838460000000  0.4697470000000 1.0
C      1  0.4701330000000  0.4881820000000  0.4218960000000 1.0
C      1  0.4996720000000  0.5260910000000  0.4547340000000 1.0
C      1  0.5803250000000  0.4768210000000  0.4797740000000 1.0
C      1  0.4980320000000  0.5875930000000  0.5404510000000 1.0
C      1  0.5064960000000  0.4184860000000  0.4728830000000 1.0
C      1  0.5149160000000  0.4956090000000  0.5827230000000 1.0
C      1  0.4989200000000  0.4152460000000  0.5238470000000 1.0
C      1  0.5279340000000  0.4703190000000  0.4946790000000 1.0
C      1  0.5241540000000  0.5248930000000  0.5788310000000 1.0
C      1  0.5278600000000  0.4486500000000  0.4392200000000 1.0
C      1  0.5158130000000  0.4135010000000  0.4998270000000 1.0
C      1  0.4226150000000  0.4898000000000  0.5067040000000 1.0
C      1  0.5583720000000  0.4962260000000  0.4392710000000 1.0
C      1  0.4445320000000  0.5220080000000  0.4467640000000 1.0
C      1  0.4813230000000  0.4334050000000  0.4655720000000 1.0
C      1  0.5654290000000  0.4555520000000  0.4685780000000 1.0
C      1  0.5143090000000  0.5103290000000  0.4174580000000 1.0
C      1  0.5022520000000  0.4628990000000  0.5040230000000 1.0
C      1  0.4300040000000  0.4997220000000  0.4584660000000 1.0
C      1  0.5827330000000  0.5049360000000  0.5284450000000 1.0
C      1  0.5510260000000  0.5151990000000  0.5692800000000 1.0
C      1  0.4370610000000  0.4712080000000  0.4543470000000 1.0
C      1  0.5333990000000  0.4471720000000  0.5424870000000 1.0
C      1  0.5407610000000  0.4885400000000  0.5706200000000 1.0
END
