TITL C-21082-1295-1 575.56291820186 125000 -560.035438004276 0 0 82 (C1) n - 1
REM
REM in /rds/project/t2_vol4/rds-t2-cs072/BORA/CARBON/from-Arr/AIRSS/Generating-Clusters/GAP-ML-2020/Only-C1/SD-CG/HFTN-CG
REM
REM
REM
REM
REM
REM ./C.cell (11c1c37f851c82e70ff6c80c92926a4b)
REM AIRSS Version 0.9.1 bugfix July 2018 build 013d7b7c2542+ Fri, 06 Jul 2018 19:26:36 +0100
REM compiler GCC version 9.3.0
REM options -cpp -mtune=generic -march=x86-64 -g -O0
REM seed 1011273326 -1388358498 -1854729401 1985568279 1538686154 -1400665480 -1420091644 -798610470 1372137598 -31228643 -999632119 2065028640 -387580876 3553801 1730796725 -1732204622 -1951406224 1648986283 -92297101 -1418261397 -368264077 601543996 481699597 -278390364 -1231001942 -870943624 11953833 -97730893 -267112894 -1746315651 1842914707 -988914632 -1120797922
REM
CELL 1.54180   50.00000   50.00000   50.00000   90.00000   90.00000   90.00000
LATT -1
SFAC C  
C      1  0.4540570000000  0.5656080000000  0.4897680000000 1.0
C      1  0.5688130000000  0.5276860000000  0.5098740000000 1.0
C      1  0.4603180000000  0.4713890000000  0.4351990000000 1.0
C      1  0.5079050000000  0.4759880000000  0.4340240000000 1.0
C      1  0.4325700000000  0.5551070000000  0.4743790000000 1.0
C      1  0.4711270000000  0.5594090000000  0.5624570000000 1.0
C      1  0.5079610000000  0.5050400000000  0.4264000000000 1.0
C      1  0.4848150000000  0.5186870000000  0.4338840000000 1.0
C      1  0.4849850000000  0.4575470000000  0.4350670000000 1.0
C      1  0.5177770000000  0.5402980000000  0.5614960000000 1.0
C      1  0.4822550000000  0.5347790000000  0.5276850000000 1.0
C      1  0.5529440000000  0.5342130000000  0.4585280000000 1.0
C      1  0.4657600000000  0.4677280000000  0.4834030000000 1.0
C      1  0.5466240000000  0.4518790000000  0.4558350000000 1.0
C      1  0.5143030000000  0.4687600000000  0.4854720000000 1.0
C      1  0.5448140000000  0.5369050000000  0.5532940000000 1.0
C      1  0.5016930000000  0.5768650000000  0.4971990000000 1.0
C      1  0.4983840000000  0.5232800000000  0.5038540000000 1.0
C      1  0.5325580000000  0.4924620000000  0.4911790000000 1.0
C      1  0.4351400000000  0.4914660000000  0.5200430000000 1.0
C      1  0.4686240000000  0.5141420000000  0.5497550000000 1.0
C      1  0.4885070000000  0.4290600000000  0.5016010000000 1.0
C      1  0.5748650000000  0.5014900000000  0.5510690000000 1.0
C      1  0.4936820000000  0.5412990000000  0.4514920000000 1.0
C      1  0.4461120000000  0.4461850000000  0.5145660000000 1.0
C      1  0.5447410000000  0.4412120000000  0.5056190000000 1.0
C      1  0.4854450000000  0.4790360000000  0.5801400000000 1.0
C      1  0.4619500000000  0.5002130000000  0.4444090000000 1.0
C      1  0.4975330000000  0.4575440000000  0.5701100000000 1.0
C      1  0.5358580000000  0.5629390000000  0.5150530000000 1.0
C      1  0.4376910000000  0.4710140000000  0.4990640000000 1.0
C      1  0.5207370000000  0.5061310000000  0.5137390000000 1.0
C      1  0.4513450000000  0.5404060000000  0.5582360000000 1.0
C      1  0.5313890000000  0.4979840000000  0.5771900000000 1.0
C      1  0.5647200000000  0.4751980000000  0.4583960000000 1.0
C      1  0.5106750000000  0.5172530000000  0.5762640000000 1.0
C      1  0.5766630000000  0.4800950000000  0.5062390000000 1.0
C      1  0.4581700000000  0.4862220000000  0.5367750000000 1.0
C      1  0.4793960000000  0.5770330000000  0.4801460000000 1.0
C      1  0.4594640000000  0.4280980000000  0.4966570000000 1.0
C      1  0.5100900000000  0.5715860000000  0.5245610000000 1.0
C      1  0.5037790000000  0.4856950000000  0.4633100000000 1.0
C      1  0.5038560000000  0.4282650000000  0.4752460000000 1.0
C      1  0.4576950000000  0.5468940000000  0.5137750000000 1.0
C      1  0.5237630000000  0.4704500000000  0.5711170000000 1.0
C      1  0.5265100000000  0.4668170000000  0.5432250000000 1.0
C      1  0.4965550000000  0.5551080000000  0.5469740000000 1.0
C      1  0.4767560000000  0.4915870000000  0.4701520000000 1.0
C      1  0.5140450000000  0.5625140000000  0.4436180000000 1.0
C      1  0.4829610000000  0.4836970000000  0.5189810000000 1.0
C      1  0.4363260000000  0.5420920000000  0.5344350000000 1.0
C      1  0.5535930000000  0.5115880000000  0.5644380000000 1.0
C      1  0.5002890000000  0.4308770000000  0.5281410000000 1.0
C      1  0.5645940000000  0.4914800000000  0.4819930000000 1.0
C      1  0.5269870000000  0.4420620000000  0.5281140000000 1.0
C      1  0.4424560000000  0.4575980000000  0.4533530000000 1.0
C      1  0.4593100000000  0.4554640000000  0.5382090000000 1.0
C      1  0.5522690000000  0.4885490000000  0.4359990000000 1.0
C      1  0.4855080000000  0.5051030000000  0.5721770000000 1.0
C      1  0.4289120000000  0.4771570000000  0.4697460000000 1.0
C      1  0.4492350000000  0.5211610000000  0.4995150000000 1.0
C      1  0.4327110000000  0.5274720000000  0.4745840000000 1.0
C      1  0.5686610000000  0.4542540000000  0.5082070000000 1.0
C      1  0.4283970000000  0.5184110000000  0.5202740000000 1.0
C      1  0.4588250000000  0.4390350000000  0.4686150000000 1.0
C      1  0.5373500000000  0.5124400000000  0.4420550000000 1.0
C      1  0.5663590000000  0.5222270000000  0.4814530000000 1.0
C      1  0.5082400000000  0.5337080000000  0.4779100000000 1.0
C      1  0.5219840000000  0.5090870000000  0.4679310000000 1.0
C      1  0.5260360000000  0.5615380000000  0.4865570000000 1.0
C      1  0.4898100000000  0.4617910000000  0.5005020000000 1.0
C      1  0.4849920000000  0.4370930000000  0.4559760000000 1.0
C      1  0.4763320000000  0.5053540000000  0.4966590000000 1.0
C      1  0.4838190000000  0.4437010000000  0.5483950000000 1.0
C      1  0.5771610000000  0.5033050000000  0.5239930000000 1.0
C      1  0.5544290000000  0.5461920000000  0.5274220000000 1.0
C      1  0.5301610000000  0.4426830000000  0.4785450000000 1.0
C      1  0.4895460000000  0.5702100000000  0.4538720000000 1.0
C      1  0.5347940000000  0.4659800000000  0.4334550000000 1.0
C      1  0.5091730000000  0.4890370000000  0.5323190000000 1.0
C      1  0.4353110000000  0.5039090000000  0.4587930000000 1.0
C      1  0.5380470000000  0.5591790000000  0.4598400000000 1.0
END
