TITL C-214940-2115-5 -0.0731520789912427 125000 -403.925404390794 0 0 60 (C1) n - 1
REM
REM in /rds/project/t2_vol4/rds-t2-cs072/BORA/CARBON/from-Arr/AIRSS/Generating-Clusters/GAP-ML-2020/Only-C1/SD-CG/HFTN-CG
REM
REM
REM
REM
REM
REM ./C.cell (11c1c37f851c82e70ff6c80c92926a4b)
REM AIRSS Version 0.9.1 bugfix July 2018 build 013d7b7c2542+ Fri, 06 Jul 2018 19:26:36 +0100
REM compiler GCC version 9.3.0
REM options -cpp -mtune=generic -march=x86-64 -g -O0
REM seed -6862566 -2063381235 261814227 500226748 1536816612 163949706 -2052372339 -996033745 775152298 -1403308512 -440700839 929071532 16331162 1561496453 1135377866 1803953396 1616722633 -1504994635 -1679700371 1258921312 -1375146358 146107429 1657450414 -1625186880 -906050715 1717095831 1787258918 1701942959 1521719777 -1992725849 1464118086 1617743087 512894186
REM
CELL 1.54180   50.00000   50.00000   50.00000   90.00000   90.00000   90.00000
LATT -1
SFAC C  
C      1  0.5014350000000  0.5720610000000  0.5284560000000 1.0
C      1  0.4738670000000  0.4617630000000  0.5705030000000 1.0
C      1  0.5639470000000  0.5068280000000  0.5168670000000 1.0
C      1  0.4908840000000  0.5042550000000  0.5631870000000 1.0
C      1  0.4889040000000  0.5628700000000  0.4737920000000 1.0
C      1  0.4655870000000  0.4831030000000  0.4427770000000 1.0
C      1  0.4877680000000  0.4779650000000  0.5101340000000 1.0
C      1  0.4905380000000  0.5181640000000  0.4186050000000 1.0
C      1  0.4479990000000  0.4829320000000  0.4857190000000 1.0
C      1  0.4867560000000  0.5178280000000  0.4825360000000 1.0
C      1  0.5155370000000  0.4895240000000  0.5641960000000 1.0
C      1  0.5467820000000  0.5312130000000  0.5129240000000 1.0
C      1  0.4553580000000  0.4549810000000  0.4802300000000 1.0
C      1  0.5463260000000  0.5422130000000  0.4857670000000 1.0
C      1  0.4358980000000  0.4902980000000  0.5132920000000 1.0
C      1  0.4717750000000  0.4595280000000  0.4574160000000 1.0
C      1  0.5171110000000  0.4643010000000  0.5516520000000 1.0
C      1  0.4731250000000  0.4959090000000  0.4940510000000 1.0
C      1  0.5685170000000  0.4920970000000  0.4931530000000 1.0
C      1  0.5541720000000  0.4919620000000  0.5396710000000 1.0
C      1  0.4943590000000  0.5334660000000  0.4419130000000 1.0
C      1  0.4090600000000  0.5250690000000  0.4934270000000 1.0
C      1  0.5286490000000  0.4424760000000  0.4940540000000 1.0
C      1  0.5430960000000  0.4648240000000  0.5379080000000 1.0
C      1  0.4894290000000  0.4534150000000  0.5493440000000 1.0
C      1  0.4147040000000  0.5077440000000  0.5122270000000 1.0
C      1  0.4666260000000  0.4392430000000  0.5008860000000 1.0
C      1  0.5192730000000  0.5141910000000  0.5129350000000 1.0
C      1  0.4964780000000  0.5312680000000  0.5066140000000 1.0
C      1  0.4522510000000  0.4786750000000  0.5336940000000 1.0
C      1  0.5394140000000  0.5221150000000  0.4647600000000 1.0
C      1  0.4475760000000  0.4973720000000  0.4592830000000 1.0
C      1  0.5121050000000  0.4840480000000  0.4489740000000 1.0
C      1  0.4785720000000  0.5351480000000  0.5299510000000 1.0
C      1  0.5123210000000  0.4178220000000  0.4917930000000 1.0
C      1  0.5649290000000  0.4643510000000  0.4944910000000 1.0
C      1  0.4869690000000  0.4216980000000  0.4943350000000 1.0
C      1  0.5092430000000  0.5566930000000  0.4551350000000 1.0
C      1  0.5561490000000  0.4992700000000  0.4669950000000 1.0
C      1  0.5396920000000  0.5488750000000  0.5358580000000 1.0
C      1  0.4860450000000  0.5551730000000  0.5468920000000 1.0
C      1  0.5366740000000  0.5523960000000  0.4624580000000 1.0
C      1  0.4966420000000  0.5614840000000  0.5016570000000 1.0
C      1  0.5282530000000  0.5318750000000  0.5560510000000 1.0
C      1  0.4987450000000  0.5316410000000  0.5580930000000 1.0
C      1  0.4719380000000  0.5376020000000  0.4642700000000 1.0
C      1  0.5109660000000  0.5123800000000  0.4603630000000 1.0
C      1  0.4447120000000  0.5268390000000  0.4614150000000 1.0
C      1  0.5281080000000  0.5741590000000  0.5366060000000 1.0
C      1  0.4207440000000  0.5353140000000  0.4722300000000 1.0
C      1  0.5414110000000  0.4770630000000  0.4565300000000 1.0
C      1  0.4713970000000  0.4573660000000  0.5244300000000 1.0
C      1  0.5476030000000  0.4552350000000  0.4731080000000 1.0
C      1  0.5223680000000  0.4891910000000  0.5007910000000 1.0
C      1  0.5079090000000  0.4655510000000  0.4929300000000 1.0
C      1  0.4892900000000  0.4918030000000  0.4279650000000 1.0
C      1  0.4677100000000  0.4865500000000  0.5583550000000 1.0
C      1  0.4983530000000  0.4641540000000  0.4640770000000 1.0
C      1  0.5378010000000  0.5058070000000  0.5576850000000 1.0
C      1  0.5501540000000  0.4508620000000  0.5145880000000 1.0
END
