TITL C-21935-1680-9 -77.193048631958 125000 -779.702666225919 0 0 114 (C1) n - 1
REM
REM in /rds/project/t2_vol4/rds-t2-cs072/BORA/CARBON/from-Arr/AIRSS/Generating-Clusters/GAP-ML-2020/Only-C1/SD-CG/HFTN-CG
REM
REM
REM
REM
REM
REM ./C.cell (11c1c37f851c82e70ff6c80c92926a4b)
REM AIRSS Version 0.9.1 bugfix July 2018 build 013d7b7c2542+ Fri, 06 Jul 2018 19:26:36 +0100
REM compiler GCC version 9.3.0
REM options -cpp -mtune=generic -march=x86-64 -g -O0
REM seed -631177357 1945974123 107677196 -2093019981 814924291 -154732617 1802011588 -616638086 434183160 -1361360348 -1350507629 602021239 483856973 1606928064 -624017458 950817636 -1309452892 1290216955 1538839181 1438766259 -794030779 1838226200 -474892180 1530161271 1029381026 -625077112 1521182084 -592254706 1975613228 638246888 -844712807 309627758 -20142406
REM
CELL 1.54180   50.00000   50.00000   50.00000   90.00000   90.00000   90.00000
LATT -1
SFAC C  
C      1  0.4291650000000  0.4723220000000  0.5295350000000 1.0
C      1  0.5216620000000  0.5436750000000  0.4211000000000 1.0
C      1  0.4613650000000  0.5117880000000  0.5258020000000 1.0
C      1  0.5385600000000  0.5200340000000  0.5252300000000 1.0
C      1  0.5564400000000  0.5692670000000  0.5286960000000 1.0
C      1  0.4726700000000  0.4811100000000  0.4690990000000 1.0
C      1  0.5630780000000  0.5412070000000  0.5357290000000 1.0
C      1  0.5694510000000  0.4527490000000  0.5199580000000 1.0
C      1  0.4907680000000  0.4101410000000  0.5110150000000 1.0
C      1  0.5039370000000  0.5547550000000  0.5266610000000 1.0
C      1  0.4733970000000  0.5099260000000  0.4617010000000 1.0
C      1  0.4739420000000  0.5880230000000  0.4877320000000 1.0
C      1  0.4952550000000  0.4648050000000  0.4623560000000 1.0
C      1  0.5141980000000  0.5654880000000  0.4983670000000 1.0
C      1  0.5162020000000  0.5806010000000  0.5412730000000 1.0
C      1  0.5275310000000  0.4714050000000  0.5421290000000 1.0
C      1  0.4637010000000  0.5342770000000  0.5083780000000 1.0
C      1  0.5120890000000  0.4391920000000  0.5700600000000 1.0
C      1  0.5618910000000  0.5043440000000  0.5721150000000 1.0
C      1  0.5194530000000  0.4856990000000  0.5711190000000 1.0
C      1  0.4422290000000  0.5540140000000  0.4662740000000 1.0
C      1  0.5598370000000  0.5502440000000  0.4500920000000 1.0
C      1  0.4613930000000  0.5809520000000  0.5115070000000 1.0
C      1  0.5447950000000  0.5248610000000  0.4971420000000 1.0
C      1  0.4264040000000  0.4805940000000  0.4514980000000 1.0
C      1  0.4253840000000  0.5569330000000  0.4898910000000 1.0
C      1  0.5417200000000  0.5737470000000  0.5532910000000 1.0
C      1  0.4732960000000  0.4656920000000  0.5710290000000 1.0
C      1  0.5528790000000  0.5490010000000  0.5632710000000 1.0
C      1  0.4293540000000  0.4857600000000  0.5544150000000 1.0
C      1  0.5217540000000  0.4437320000000  0.4241410000000 1.0
C      1  0.5370980000000  0.4457160000000  0.5579450000000 1.0
C      1  0.4247040000000  0.5051560000000  0.4657090000000 1.0
C      1  0.4550370000000  0.4337980000000  0.5345260000000 1.0
C      1  0.4670210000000  0.5704480000000  0.4650600000000 1.0
C      1  0.5300960000000  0.4702310000000  0.4945600000000 1.0
C      1  0.4877000000000  0.5266160000000  0.5813870000000 1.0
C      1  0.5560470000000  0.4762350000000  0.5070800000000 1.0
C      1  0.4338850000000  0.5730580000000  0.5124490000000 1.0
C      1  0.4753400000000  0.4539550000000  0.5441770000000 1.0
C      1  0.5002610000000  0.5923430000000  0.4968780000000 1.0
C      1  0.5642670000000  0.4607670000000  0.4512460000000 1.0
C      1  0.4773100000000  0.4138610000000  0.5352860000000 1.0
C      1  0.4229020000000  0.5143610000000  0.5506400000000 1.0
C      1  0.4930620000000  0.4287710000000  0.5533960000000 1.0
C      1  0.4638240000000  0.5104940000000  0.5764630000000 1.0
C      1  0.4923000000000  0.3928170000000  0.4662500000000 1.0
C      1  0.5487450000000  0.4810080000000  0.5797690000000 1.0
C      1  0.4423590000000  0.5263790000000  0.4533450000000 1.0
C      1  0.4647770000000  0.4285830000000  0.4773540000000 1.0
C      1  0.4142980000000  0.5329420000000  0.5030070000000 1.0
C      1  0.5142290000000  0.5163920000000  0.5685140000000 1.0
C      1  0.5817020000000  0.5207670000000  0.5255280000000 1.0
C      1  0.4856190000000  0.4723180000000  0.5189580000000 1.0
C      1  0.4333910000000  0.4548370000000  0.4634770000000 1.0
C      1  0.4217830000000  0.5075630000000  0.4931890000000 1.0
C      1  0.5466060000000  0.5069050000000  0.4388320000000 1.0
C      1  0.5015190000000  0.5101330000000  0.4935330000000 1.0
C      1  0.4715630000000  0.5257850000000  0.4127790000000 1.0
C      1  0.4621750000000  0.4735570000000  0.4962350000000 1.0
C      1  0.5230300000000  0.5265510000000  0.4778400000000 1.0
C      1  0.5061190000000  0.4152560000000  0.4590320000000 1.0
C      1  0.4894220000000  0.5034440000000  0.4130840000000 1.0
C      1  0.5421850000000  0.5801110000000  0.5065780000000 1.0
C      1  0.4345530000000  0.4453570000000  0.5192590000000 1.0
C      1  0.5005540000000  0.4649520000000  0.5797190000000 1.0
C      1  0.5179150000000  0.5987540000000  0.5176610000000 1.0
C      1  0.4939490000000  0.5427910000000  0.4297550000000 1.0
C      1  0.5747650000000  0.4967070000000  0.5444850000000 1.0
C      1  0.4906570000000  0.5605910000000  0.4527290000000 1.0
C      1  0.4788810000000  0.5248920000000  0.4857450000000 1.0
C      1  0.5762730000000  0.4523000000000  0.4752140000000 1.0
C      1  0.5217080000000  0.5057750000000  0.4550220000000 1.0
C      1  0.4759800000000  0.4012430000000  0.4870880000000 1.0
C      1  0.4509350000000  0.5227110000000  0.5535050000000 1.0
C      1  0.4528340000000  0.4844220000000  0.5735880000000 1.0
C      1  0.5808290000000  0.4769240000000  0.4897340000000 1.0
C      1  0.4735140000000  0.5501920000000  0.5751180000000 1.0
C      1  0.5741540000000  0.5230820000000  0.4933040000000 1.0
C      1  0.5459270000000  0.5345200000000  0.4306160000000 1.0
C      1  0.4965580000000  0.4555910000000  0.4275010000000 1.0
C      1  0.4416690000000  0.4918050000000  0.5104280000000 1.0
C      1  0.5654340000000  0.4353730000000  0.4965110000000 1.0
C      1  0.5719600000000  0.5490750000000  0.4774660000000 1.0
C      1  0.4571750000000  0.4693960000000  0.4155400000000 1.0
C      1  0.4523770000000  0.4369050000000  0.4512400000000 1.0
C      1  0.4458430000000  0.4484610000000  0.4910130000000 1.0
C      1  0.5802500000000  0.5002080000000  0.4747250000000 1.0
C      1  0.4741730000000  0.5577410000000  0.5258010000000 1.0
C      1  0.4572890000000  0.5528440000000  0.5512130000000 1.0
C      1  0.4152590000000  0.5349900000000  0.5318080000000 1.0
C      1  0.5426940000000  0.4422930000000  0.4419510000000 1.0
C      1  0.4472500000000  0.5173190000000  0.4253530000000 1.0
C      1  0.5106990000000  0.5239960000000  0.5360480000000 1.0
C      1  0.5124300000000  0.4603470000000  0.5156620000000 1.0
C      1  0.5141240000000  0.4836950000000  0.4751350000000 1.0
C      1  0.5417750000000  0.5702400000000  0.4605260000000 1.0
C      1  0.5430760000000  0.5259480000000  0.5749050000000 1.0
C      1  0.5667620000000  0.4906850000000  0.4503990000000 1.0
C      1  0.4938680000000  0.4380290000000  0.4753690000000 1.0
C      1  0.5780540000000  0.4645510000000  0.5449310000000 1.0
C      1  0.5581530000000  0.5747360000000  0.4837270000000 1.0
C      1  0.5604660000000  0.4581530000000  0.5669170000000 1.0
C      1  0.4904020000000  0.5030410000000  0.5234920000000 1.0
C      1  0.5339660000000  0.4230710000000  0.4614160000000 1.0
C      1  0.5479040000000  0.4922580000000  0.5305500000000 1.0
C      1  0.4301520000000  0.5590000000000  0.5369550000000 1.0
C      1  0.4844910000000  0.4767220000000  0.4092390000000 1.0
C      1  0.4395430000000  0.4888020000000  0.4263700000000 1.0
C      1  0.5392280000000  0.4254800000000  0.4892120000000 1.0
C      1  0.4660450000000  0.4451520000000  0.4287440000000 1.0
C      1  0.4967010000000  0.5130740000000  0.4411550000000 1.0
C      1  0.5159110000000  0.5561290000000  0.4699100000000 1.0
C      1  0.5107190000000  0.4321830000000  0.5015300000000 1.0
END
