TITL C-21840-6301-4 481.593225381413 125000 -621.483578173053 0 0 86 (C1) n - 1
REM
REM in /rds/project/t2_vol4/rds-t2-cs072/BORA/CARBON/from-Arr/AIRSS/Generating-Clusters/GAP-ML-2020/Only-C1/SD-CG/HFTN-CG
REM
REM
REM
REM
REM
REM ./C.cell (11c1c37f851c82e70ff6c80c92926a4b)
REM AIRSS Version 0.9.1 bugfix July 2018 build 013d7b7c2542+ Fri, 06 Jul 2018 19:26:36 +0100
REM compiler GCC version 9.3.0
REM options -cpp -mtune=generic -march=x86-64 -g -O0
REM seed -829105268 532226659 -1773871677 -912590728 -1155022671 582677529 -1493811721 -472358244 -391926485 2039364577 -733947585 743841996 1594951310 1102760703 1947445404 2062331490 -590793621 1525140249 2063668275 -1110507081 240113070 715929386 1122910162 1487870308 1387512037 -1601038272 270874183 460129078 -36674656 1733330733 395982532 457366589 277876194
REM
CELL 1.54180   50.00000   50.00000   50.00000   90.00000   90.00000   90.00000
LATT -1
SFAC C  
C      1  0.4938640000000  0.4477890000000  0.4319070000000 1.0
C      1  0.5646740000000  0.5145130000000  0.5472340000000 1.0
C      1  0.4261390000000  0.5053570000000  0.5216740000000 1.0
C      1  0.4602680000000  0.5530440000000  0.4515050000000 1.0
C      1  0.4510800000000  0.5050110000000  0.5654570000000 1.0
C      1  0.4349770000000  0.5327760000000  0.5186890000000 1.0
C      1  0.4886210000000  0.4300320000000  0.5344550000000 1.0
C      1  0.5142520000000  0.5080170000000  0.5801170000000 1.0
C      1  0.4956670000000  0.4852650000000  0.5827730000000 1.0
C      1  0.4554400000000  0.5103670000000  0.4327780000000 1.0
C      1  0.4831850000000  0.5679130000000  0.4610990000000 1.0
C      1  0.4970920000000  0.4284330000000  0.4520100000000 1.0
C      1  0.4295710000000  0.4602730000000  0.4991380000000 1.0
C      1  0.5414300000000  0.4952480000000  0.5811400000000 1.0
C      1  0.4844560000000  0.5420860000000  0.5724120000000 1.0
C      1  0.5438080000000  0.4456940000000  0.4569360000000 1.0
C      1  0.5185320000000  0.5145880000000  0.5485640000000 1.0
C      1  0.5393960000000  0.4336040000000  0.5130330000000 1.0
C      1  0.4988490000000  0.4909010000000  0.4192350000000 1.0
C      1  0.5073230000000  0.5219140000000  0.5042440000000 1.0
C      1  0.5136070000000  0.4667640000000  0.4247080000000 1.0
C      1  0.5061070000000  0.5592900000000  0.4456370000000 1.0
C      1  0.4997590000000  0.5294820000000  0.5908840000000 1.0
C      1  0.5048940000000  0.5771040000000  0.5086020000000 1.0
C      1  0.4682020000000  0.4849250000000  0.5766270000000 1.0
C      1  0.4832160000000  0.5766740000000  0.4882020000000 1.0
C      1  0.4631640000000  0.4598260000000  0.5636320000000 1.0
C      1  0.5487350000000  0.5379140000000  0.4410240000000 1.0
C      1  0.5221110000000  0.4281010000000  0.4655430000000 1.0
C      1  0.5017790000000  0.5579520000000  0.5553920000000 1.0
C      1  0.4823340000000  0.4882760000000  0.5215460000000 1.0
C      1  0.4713700000000  0.4278650000000  0.4664270000000 1.0
C      1  0.4491100000000  0.5456780000000  0.5401550000000 1.0
C      1  0.5693980000000  0.4683470000000  0.4956640000000 1.0
C      1  0.5390300000000  0.5145750000000  0.4284020000000 1.0
C      1  0.4822290000000  0.4798580000000  0.4955410000000 1.0
C      1  0.4962720000000  0.5104820000000  0.5277620000000 1.0
C      1  0.4423900000000  0.4637400000000  0.5447790000000 1.0
C      1  0.4216530000000  0.4883610000000  0.4993260000000 1.0
C      1  0.5230200000000  0.4223150000000  0.4934000000000 1.0
C      1  0.5639300000000  0.4525620000000  0.4739500000000 1.0
C      1  0.4417130000000  0.4477090000000  0.5215450000000 1.0
C      1  0.4780010000000  0.5013480000000  0.4772480000000 1.0
C      1  0.4944170000000  0.5213040000000  0.4799070000000 1.0
C      1  0.4403480000000  0.5478460000000  0.4942910000000 1.0
C      1  0.5526720000000  0.4911860000000  0.4392910000000 1.0
C      1  0.5632920000000  0.5099050000000  0.5735880000000 1.0
C      1  0.5362910000000  0.4694190000000  0.5671770000000 1.0
C      1  0.4336840000000  0.4615940000000  0.4699590000000 1.0
C      1  0.5561170000000  0.4556480000000  0.5193320000000 1.0
C      1  0.5412570000000  0.5000400000000  0.5340070000000 1.0
C      1  0.4686190000000  0.4208140000000  0.4919090000000 1.0
C      1  0.4403640000000  0.5395230000000  0.4670100000000 1.0
C      1  0.4967760000000  0.5390660000000  0.4268660000000 1.0
C      1  0.4680430000000  0.4601760000000  0.4332360000000 1.0
C      1  0.4591600000000  0.5685160000000  0.5014060000000 1.0
C      1  0.5256540000000  0.5447040000000  0.5487630000000 1.0
C      1  0.4532810000000  0.4478910000000  0.4546280000000 1.0
C      1  0.5331100000000  0.5691040000000  0.5060280000000 1.0
C      1  0.5437190000000  0.5533880000000  0.5286020000000 1.0
C      1  0.4915270000000  0.5725430000000  0.5340680000000 1.0
C      1  0.5130350000000  0.4247290000000  0.5197340000000 1.0
C      1  0.4639900000000  0.5672040000000  0.5289780000000 1.0
C      1  0.4362570000000  0.5125630000000  0.4551670000000 1.0
C      1  0.5754000000000  0.5244650000000  0.5013910000000 1.0
C      1  0.5755130000000  0.4965710000000  0.4882120000000 1.0
C      1  0.5685980000000  0.5435630000000  0.4815260000000 1.0
C      1  0.5120370000000  0.5157190000000  0.4203340000000 1.0
C      1  0.5711270000000  0.5014350000000  0.4598940000000 1.0
C      1  0.5653190000000  0.5339640000000  0.5265700000000 1.0
C      1  0.5334850000000  0.5585410000000  0.4539890000000 1.0
C      1  0.5059220000000  0.4712390000000  0.4844490000000 1.0
C      1  0.4349840000000  0.4917860000000  0.5455230000000 1.0
C      1  0.4584110000000  0.5326650000000  0.5633840000000 1.0
C      1  0.4262820000000  0.4900730000000  0.4700390000000 1.0
C      1  0.5394810000000  0.4659980000000  0.4368330000000 1.0
C      1  0.5083450000000  0.4626030000000  0.5713430000000 1.0
C      1  0.5300170000000  0.5047130000000  0.5053350000000 1.0
C      1  0.5696170000000  0.5296620000000  0.4574170000000 1.0
C      1  0.4689710000000  0.5353840000000  0.4308970000000 1.0
C      1  0.5276410000000  0.4856120000000  0.4858620000000 1.0
C      1  0.5475510000000  0.4716320000000  0.5409590000000 1.0
C      1  0.4876940000000  0.4457940000000  0.5585320000000 1.0
C      1  0.5458200000000  0.5621320000000  0.4809280000000 1.0
C      1  0.4708580000000  0.4875100000000  0.4249070000000 1.0
C      1  0.4646680000000  0.4298060000000  0.5173340000000 1.0
END
