TITL C-2114519-1652-34 46.3125367443792 125000 -494.616783016154 0 0 71 (C1) n - 1
REM
REM in /nfs/bkarasulu/CARBON/AIRSS/Generating-Clusters/GAP-ML-2020/Only-C1/SD-CG/HFTN-CG
REM
REM
REM
REM
REM
REM ./C.cell (11c1c37f851c82e70ff6c80c92926a4b)
REM
REM compiler GCC version 9.2.1 20190827 (Red Hat 9.2.1-1)
REM options -cpp -mtune=generic -march=x86-64 -g -O0 -fpre-include=/usr/include/finclude/math-vector-fortran.h
REM seed 1871697600 -1376419355 2032097864 567454881 -1371996483 -1355443878 968254558 634646288 458034416 1453679428 346998058 -56893224 -875998758 1113436620 1466109845 115236738 -1052645191 -1385735398 -536453202 -1754233786 464871987 1483421433 1543631016 219199801 1436468306 -385263433 1835279963 1969945436 1537950643 -65549989 -1318920790 -217482063 -1987309327
REM
CELL 1.54180   50.00000   50.00000   50.00000   90.00000   90.00000   90.00000
LATT -1
SFAC C  
C      1  0.4597610000000  0.4487400000000  0.4672640000000 1.0
C      1  0.5525730000000  0.4703440000000  0.4530350000000 1.0
C      1  0.4759210000000  0.5772560000000  0.4749370000000 1.0
C      1  0.5364860000000  0.5122300000000  0.4501530000000 1.0
C      1  0.5202480000000  0.4490930000000  0.4217430000000 1.0
C      1  0.5573640000000  0.4469660000000  0.4977950000000 1.0
C      1  0.5474310000000  0.5582390000000  0.5016020000000 1.0
C      1  0.4490590000000  0.5394600000000  0.5269220000000 1.0
C      1  0.4760880000000  0.4696530000000  0.5153380000000 1.0
C      1  0.5431420000000  0.4722090000000  0.5618930000000 1.0
C      1  0.4603140000000  0.5771240000000  0.4993520000000 1.0
C      1  0.4482320000000  0.4895640000000  0.4505950000000 1.0
C      1  0.5657210000000  0.5179150000000  0.5264340000000 1.0
C      1  0.5196620000000  0.5045740000000  0.5128750000000 1.0
C      1  0.5735230000000  0.4942950000000  0.5109280000000 1.0
C      1  0.5234790000000  0.5307280000000  0.4662690000000 1.0
C      1  0.4845290000000  0.5309630000000  0.4403260000000 1.0
C      1  0.4620340000000  0.5153540000000  0.5664150000000 1.0
C      1  0.4317200000000  0.5143900000000  0.4857690000000 1.0
C      1  0.4656790000000  0.5647180000000  0.5236940000000 1.0
C      1  0.4955070000000  0.4536340000000  0.5585240000000 1.0
C      1  0.4653380000000  0.4287500000000  0.4868940000000 1.0
C      1  0.5154040000000  0.4806010000000  0.4983460000000 1.0
C      1  0.5489480000000  0.4482820000000  0.4703750000000 1.0
C      1  0.5383140000000  0.4309660000000  0.5120540000000 1.0
C      1  0.4387570000000  0.5614120000000  0.4862970000000 1.0
C      1  0.5162630000000  0.4237980000000  0.4941360000000 1.0
C      1  0.5309050000000  0.5437540000000  0.5466100000000 1.0
C      1  0.4700950000000  0.4637930000000  0.5641600000000 1.0
C      1  0.4540740000000  0.5614220000000  0.4623990000000 1.0
C      1  0.5058720000000  0.4434250000000  0.4457670000000 1.0
C      1  0.4532910000000  0.4876230000000  0.5215740000000 1.0
C      1  0.4434130000000  0.5315950000000  0.5545220000000 1.0
C      1  0.4431720000000  0.4717790000000  0.4726380000000 1.0
C      1  0.5078240000000  0.4976930000000  0.5413630000000 1.0
C      1  0.5023750000000  0.5694000000000  0.4703980000000 1.0
C      1  0.5395440000000  0.4373320000000  0.5399440000000 1.0
C      1  0.4885550000000  0.4843200000000  0.4910990000000 1.0
C      1  0.5191610000000  0.4974120000000  0.4336220000000 1.0
C      1  0.5336960000000  0.4978580000000  0.5572620000000 1.0
C      1  0.4922160000000  0.5659730000000  0.5331930000000 1.0
C      1  0.4369930000000  0.4882220000000  0.4957260000000 1.0
C      1  0.5137020000000  0.5772130000000  0.5183270000000 1.0
C      1  0.4581840000000  0.5370980000000  0.4494560000000 1.0
C      1  0.4869200000000  0.5183160000000  0.5472550000000 1.0
C      1  0.5020180000000  0.5437490000000  0.5479660000000 1.0
C      1  0.5099100000000  0.5251480000000  0.4951730000000 1.0
C      1  0.5379750000000  0.5638970000000  0.5282140000000 1.0
C      1  0.5229970000000  0.4494330000000  0.5609280000000 1.0
C      1  0.4885880000000  0.4218380000000  0.5012410000000 1.0
C      1  0.5305880000000  0.4712800000000  0.4334720000000 1.0
C      1  0.5236010000000  0.4345130000000  0.4681510000000 1.0
C      1  0.5685600000000  0.5089320000000  0.4857110000000 1.0
C      1  0.4964250000000  0.4713180000000  0.5360270000000 1.0
C      1  0.4726190000000  0.4823070000000  0.4376550000000 1.0
C      1  0.4695470000000  0.4403410000000  0.5120100000000 1.0
C      1  0.4412150000000  0.5156370000000  0.4579100000000 1.0
C      1  0.5582830000000  0.4975440000000  0.4611670000000 1.0
C      1  0.4567030000000  0.4876890000000  0.5702540000000 1.0
C      1  0.4685690000000  0.5153710000000  0.5224560000000 1.0
C      1  0.4913470000000  0.5038950000000  0.4329660000000 1.0
C      1  0.4486990000000  0.4737400000000  0.5474300000000 1.0
C      1  0.4326770000000  0.5384220000000  0.5009900000000 1.0
C      1  0.4836700000000  0.5137100000000  0.4958900000000 1.0
C      1  0.5479420000000  0.5209930000000  0.5489760000000 1.0
C      1  0.5048480000000  0.5466990000000  0.4528910000000 1.0
C      1  0.5600050000000  0.4590910000000  0.5421260000000 1.0
C      1  0.5217070000000  0.5728520000000  0.4911950000000 1.0
C      1  0.5621820000000  0.5336270000000  0.5010350000000 1.0
C      1  0.4788280000000  0.4556530000000  0.4470590000000 1.0
C      1  0.5690060000000  0.4668330000000  0.5158240000000 1.0
END
