TITL C-21844-7974-1 -1.09359256832071 125000 -382.424627304996 0 0 57 (C1) n - 1
REM
REM in /rds/project/t2_vol4/rds-t2-cs072/BORA/CARBON/from-Arr/AIRSS/Generating-Clusters/GAP-ML-2020/Only-C1/SD-CG/HFTN-CG
REM
REM
REM
REM
REM
REM ./C.cell (11c1c37f851c82e70ff6c80c92926a4b)
REM AIRSS Version 0.9.1 bugfix July 2018 build 013d7b7c2542+ Fri, 06 Jul 2018 19:26:36 +0100
REM compiler GCC version 9.3.0
REM options -cpp -mtune=generic -march=x86-64 -g -O0
REM seed 493355121 1954991333 -1322992725 1205797453 -2088816468 -1330564299 -1000330092 1951783375 612456522 580807508 -1025194740 725377412 1417405861 -146605012 -819587206 -27005642 -1593417679 1126215375 -323634383 818337394 2018722291 316877466 1339746195 78481107 -467455356 439754089 290033563 1271190343 377709333 1081515680 -605934572 1246534094 -1652448756
REM
CELL 1.54180   50.00000   50.00000   50.00000   90.00000   90.00000   90.00000
LATT -1
SFAC C  
C      1  0.5440390000000  0.4651510000000  0.5231600000000 1.0
C      1  0.5271690000000  0.4461600000000  0.5096160000000 1.0
C      1  0.4979790000000  0.4812700000000  0.5037490000000 1.0
C      1  0.5437100000000  0.4660760000000  0.4629590000000 1.0
C      1  0.4431840000000  0.5503770000000  0.4908650000000 1.0
C      1  0.4759140000000  0.4569400000000  0.4568270000000 1.0
C      1  0.5562220000000  0.5442660000000  0.5324000000000 1.0
C      1  0.4907180000000  0.4597750000000  0.5597300000000 1.0
C      1  0.5298190000000  0.5466040000000  0.5410900000000 1.0
C      1  0.4420930000000  0.5023150000000  0.5396180000000 1.0
C      1  0.5258570000000  0.4487090000000  0.4795880000000 1.0
C      1  0.5048850000000  0.5468900000000  0.5215320000000 1.0
C      1  0.5061790000000  0.4699880000000  0.4779610000000 1.0
C      1  0.5405040000000  0.5090500000000  0.4380920000000 1.0
C      1  0.5458980000000  0.5394850000000  0.4848110000000 1.0
C      1  0.4570170000000  0.4459550000000  0.4982920000000 1.0
C      1  0.5283020000000  0.5250900000000  0.5621960000000 1.0
C      1  0.5484670000000  0.5043370000000  0.5577170000000 1.0
C      1  0.4291330000000  0.5054900000000  0.4661980000000 1.0
C      1  0.5436420000000  0.5145000000000  0.4664090000000 1.0
C      1  0.4379640000000  0.4745530000000  0.5383850000000 1.0
C      1  0.4515780000000  0.4598570000000  0.4719380000000 1.0
C      1  0.4887480000000  0.5286020000000  0.5404420000000 1.0
C      1  0.5674460000000  0.5180360000000  0.5424190000000 1.0
C      1  0.5395340000000  0.4769890000000  0.5496720000000 1.0
C      1  0.4932200000000  0.4816080000000  0.4533230000000 1.0
C      1  0.5150790000000  0.5158300000000  0.4797240000000 1.0
C      1  0.4774930000000  0.5588990000000  0.5135940000000 1.0
C      1  0.4335650000000  0.4800180000000  0.4645490000000 1.0
C      1  0.5141190000000  0.5141360000000  0.4257610000000 1.0
C      1  0.4843350000000  0.5533480000000  0.4448520000000 1.0
C      1  0.5190880000000  0.4990710000000  0.5022870000000 1.0
C      1  0.4688810000000  0.5648740000000  0.4864570000000 1.0
C      1  0.4760700000000  0.5718550000000  0.4606980000000 1.0
C      1  0.4995810000000  0.4361890000000  0.5176220000000 1.0
C      1  0.5502510000000  0.4890060000000  0.5057520000000 1.0
C      1  0.5692880000000  0.5097070000000  0.5154780000000 1.0
C      1  0.5636340000000  0.5376720000000  0.5052760000000 1.0
C      1  0.5187700000000  0.5409770000000  0.4940430000000 1.0
C      1  0.4759510000000  0.4974080000000  0.5060280000000 1.0
C      1  0.5107290000000  0.4843190000000  0.4302480000000 1.0
C      1  0.4806760000000  0.4463300000000  0.5373580000000 1.0
C      1  0.5546480000000  0.4880840000000  0.4771340000000 1.0
C      1  0.5019800000000  0.5165140000000  0.5622400000000 1.0
C      1  0.4724330000000  0.5041400000000  0.5347150000000 1.0
C      1  0.4488850000000  0.5467000000000  0.5191920000000 1.0
C      1  0.4708850000000  0.5150440000000  0.4849590000000 1.0
C      1  0.4892850000000  0.5103280000000  0.4632860000000 1.0
C      1  0.4446230000000  0.5250270000000  0.4782410000000 1.0
C      1  0.4824270000000  0.4325470000000  0.4955320000000 1.0
C      1  0.4931060000000  0.5282220000000  0.4393350000000 1.0
C      1  0.4900860000000  0.4903620000000  0.5578880000000 1.0
C      1  0.4540880000000  0.4549300000000  0.5262050000000 1.0
C      1  0.5378020000000  0.4786690000000  0.4375580000000 1.0
C      1  0.4339960000000  0.5285840000000  0.5334870000000 1.0
C      1  0.5139850000000  0.4724830000000  0.5593610000000 1.0
C      1  0.4950420000000  0.4406540000000  0.4721510000000 1.0
END
