TITL C-2109086-2930-3 713.347353515148 125000 -312.859160090836 0 0 46 (C1) n - 1
REM
REM in /nfs/bkarasulu/CARBON/AIRSS/Generating-Clusters/GAP-ML-2020/Only-C1/SD-CG/HFTN-CG
REM
REM
REM
REM
REM
REM ./C.cell (11c1c37f851c82e70ff6c80c92926a4b)
REM
REM compiler GCC version 9.2.1 20190827 (Red Hat 9.2.1-1)
REM options -cpp -mtune=generic -march=x86-64 -g -O0 -fpre-include=/usr/include/finclude/math-vector-fortran.h
REM seed 731662981 -804504395 -1206236603 -86460700 -323669945 816487302 -828492236 2023002702 -1697597307 -1422437277 1373774019 2081401677 -1425217373 -1583486210 1897781 1473132681 -1183276286 -856096128 -1009891187 -1246184036 -1286168364 -1992736008 122676247 -1054155280 851673995 1331271314 1984001402 -764974298 -918601775 -1150070138 486800162 2036114641 2094422494
REM
CELL 1.54180   50.00000   50.00000   50.00000   90.00000   90.00000   90.00000
LATT -1
SFAC C  
C      1  0.4535840000000  0.4949260000000  0.4939550000000 1.0
C      1  0.4786390000000  0.4467570000000  0.4732350000000 1.0
C      1  0.5290160000000  0.4575410000000  0.4734190000000 1.0
C      1  0.5062210000000  0.4641710000000  0.5333520000000 1.0
C      1  0.4405150000000  0.5421670000000  0.5447240000000 1.0
C      1  0.5544130000000  0.5270790000000  0.4710050000000 1.0
C      1  0.5374150000000  0.4423790000000  0.4969230000000 1.0
C      1  0.5120320000000  0.4875680000000  0.5513260000000 1.0
C      1  0.4438970000000  0.5151950000000  0.5579920000000 1.0
C      1  0.4468210000000  0.4670130000000  0.4865810000000 1.0
C      1  0.5632780000000  0.4526680000000  0.5035280000000 1.0
C      1  0.5282130000000  0.4489180000000  0.5245630000000 1.0
C      1  0.4707310000000  0.5313580000000  0.4561430000000 1.0
C      1  0.4568390000000  0.5073890000000  0.4452650000000 1.0
C      1  0.5343890000000  0.5036090000000  0.5410330000000 1.0
C      1  0.4404330000000  0.4969290000000  0.5361270000000 1.0
C      1  0.5473400000000  0.5402720000000  0.5097990000000 1.0
C      1  0.4787940000000  0.5206470000000  0.5308640000000 1.0
C      1  0.4813290000000  0.4661140000000  0.5205690000000 1.0
C      1  0.5670420000000  0.5225530000000  0.4975540000000 1.0
C      1  0.4570370000000  0.5501990000000  0.4722620000000 1.0
C      1  0.5282910000000  0.5285540000000  0.5278140000000 1.0
C      1  0.5710330000000  0.4975450000000  0.5073710000000 1.0
C      1  0.4923570000000  0.4982230000000  0.5673450000000 1.0
C      1  0.4682520000000  0.4510810000000  0.4999320000000 1.0
C      1  0.5486480000000  0.4785020000000  0.4679060000000 1.0
C      1  0.5373170000000  0.5469440000000  0.4831270000000 1.0
C      1  0.4360020000000  0.5121590000000  0.5112750000000 1.0
C      1  0.4935890000000  0.5506900000000  0.5005860000000 1.0
C      1  0.4936860000000  0.4876170000000  0.4563810000000 1.0
C      1  0.5548040000000  0.4600330000000  0.5297160000000 1.0
C      1  0.4999590000000  0.5344040000000  0.4551870000000 1.0
C      1  0.4680540000000  0.4917900000000  0.5215820000000 1.0
C      1  0.5105930000000  0.5496260000000  0.4773740000000 1.0
C      1  0.4715470000000  0.5043290000000  0.4724970000000 1.0
C      1  0.4650330000000  0.5527840000000  0.4979840000000 1.0
C      1  0.5025280000000  0.4619100000000  0.4659820000000 1.0
C      1  0.5015300000000  0.5355470000000  0.5226830000000 1.0
C      1  0.5129000000000  0.5092010000000  0.4515840000000 1.0
C      1  0.4528020000000  0.5365730000000  0.5198060000000 1.0
C      1  0.5692730000000  0.4757480000000  0.4882230000000 1.0
C      1  0.5405090000000  0.5047880000000  0.4590390000000 1.0
C      1  0.4727500000000  0.5156180000000  0.5620300000000 1.0
C      1  0.4566500000000  0.4604580000000  0.4603350000000 1.0
C      1  0.5571430000000  0.4886640000000  0.5321190000000 1.0
C      1  0.4667750000000  0.4817590000000  0.4419020000000 1.0
END
