TITL C-21909-2342-1 -48.9638043316695 125000 -853.595458271737 0 0 121 (C1) n - 1
REM
REM in /rds/project/t2_vol4/rds-t2-cs072/BORA/CARBON/from-Arr/AIRSS/Generating-Clusters/GAP-ML-2020/Only-C1/SD-CG/HFTN-CG
REM
REM
REM
REM
REM
REM ./C.cell (11c1c37f851c82e70ff6c80c92926a4b)
REM AIRSS Version 0.9.1 bugfix July 2018 build 013d7b7c2542+ Fri, 06 Jul 2018 19:26:36 +0100
REM compiler GCC version 9.3.0
REM options -cpp -mtune=generic -march=x86-64 -g -O0
REM seed -497656915 -1661220395 -1115545945 -154296617 2099331728 -591414124 -967689836 1679008559 -1020645680 2085848348 929674109 1825798290 -194116768 757656218 -1290314317 -76396429 1153927711 410055416 -822429409 970451243 -667929206 721680719 1098144002 1839940297 -2034243626 -1150725176 1949754108 950277283 1991319634 -814194498 1900669724 1569385528 1835075554
REM
CELL 1.54180   50.00000   50.00000   50.00000   90.00000   90.00000   90.00000
LATT -1
SFAC C  
C      1  0.4679380000000  0.4703130000000  0.4960010000000 1.0
C      1  0.4853160000000  0.5657480000000  0.4627670000000 1.0
C      1  0.4544630000000  0.4419250000000  0.5044270000000 1.0
C      1  0.4566100000000  0.4948370000000  0.4147660000000 1.0
C      1  0.5966630000000  0.5690890000000  0.5157860000000 1.0
C      1  0.4092140000000  0.4924450000000  0.5327210000000 1.0
C      1  0.4852920000000  0.4907250000000  0.4110030000000 1.0
C      1  0.4504170000000  0.5228320000000  0.4190580000000 1.0
C      1  0.4512610000000  0.5762710000000  0.4896290000000 1.0
C      1  0.5817920000000  0.4765400000000  0.5320400000000 1.0
C      1  0.4461600000000  0.4305690000000  0.5510630000000 1.0
C      1  0.4970330000000  0.4428970000000  0.4294940000000 1.0
C      1  0.4262200000000  0.4490860000000  0.5398680000000 1.0
C      1  0.4567160000000  0.4267710000000  0.5757010000000 1.0
C      1  0.5504900000000  0.5824680000000  0.5147950000000 1.0
C      1  0.5724970000000  0.4561190000000  0.5472480000000 1.0
C      1  0.4524850000000  0.4835810000000  0.5659300000000 1.0
C      1  0.5012030000000  0.5393890000000  0.5781140000000 1.0
C      1  0.5381000000000  0.4149460000000  0.4741420000000 1.0
C      1  0.5253190000000  0.4428280000000  0.4363830000000 1.0
C      1  0.5485600000000  0.5312420000000  0.4301840000000 1.0
C      1  0.4304590000000  0.5352170000000  0.5189000000000 1.0
C      1  0.5480410000000  0.5795970000000  0.4865010000000 1.0
C      1  0.5725450000000  0.5722320000000  0.5290550000000 1.0
C      1  0.4769510000000  0.4081290000000  0.5143740000000 1.0
C      1  0.5604360000000  0.5083740000000  0.4462610000000 1.0
C      1  0.5488110000000  0.4150600000000  0.5202430000000 1.0
C      1  0.4470090000000  0.5297640000000  0.5593840000000 1.0
C      1  0.4784120000000  0.5721740000000  0.5093740000000 1.0
C      1  0.5093010000000  0.5344520000000  0.4935340000000 1.0
C      1  0.5093110000000  0.5802480000000  0.4575000000000 1.0
C      1  0.3993440000000  0.5150920000000  0.5466760000000 1.0
C      1  0.5335260000000  0.4617600000000  0.5248760000000 1.0
C      1  0.5242940000000  0.4263270000000  0.5525470000000 1.0
C      1  0.5225910000000  0.4075590000000  0.5303130000000 1.0
C      1  0.4265680000000  0.4461870000000  0.5110820000000 1.0
C      1  0.5174140000000  0.5075450000000  0.5375770000000 1.0
C      1  0.4713730000000  0.5243680000000  0.4900940000000 1.0
C      1  0.5621650000000  0.5609880000000  0.4687240000000 1.0
C      1  0.5319260000000  0.4824360000000  0.5487760000000 1.0
C      1  0.5805100000000  0.5408750000000  0.4783340000000 1.0
C      1  0.4835610000000  0.4182740000000  0.4686690000000 1.0
C      1  0.4738990000000  0.4823610000000  0.5422500000000 1.0
C      1  0.5165290000000  0.5291860000000  0.4668710000000 1.0
C      1  0.5247570000000  0.5854840000000  0.5269050000000 1.0
C      1  0.4714150000000  0.4696310000000  0.5855800000000 1.0
C      1  0.5500330000000  0.5570720000000  0.4430720000000 1.0
C      1  0.4650190000000  0.4173230000000  0.4902650000000 1.0
C      1  0.5266160000000  0.5722520000000  0.4360890000000 1.0
C      1  0.5785460000000  0.5294270000000  0.5498210000000 1.0
C      1  0.5689820000000  0.4694830000000  0.4816610000000 1.0
C      1  0.5156300000000  0.4706090000000  0.5722980000000 1.0
C      1  0.4880050000000  0.5591620000000  0.4030290000000 1.0
C      1  0.4752340000000  0.4355410000000  0.4470080000000 1.0
C      1  0.5177150000000  0.4710760000000  0.4800220000000 1.0
C      1  0.5140180000000  0.5588400000000  0.4140130000000 1.0
C      1  0.5172920000000  0.4878940000000  0.4562450000000 1.0
C      1  0.4871490000000  0.5128750000000  0.5780150000000 1.0
C      1  0.4106760000000  0.5126590000000  0.4832670000000 1.0
C      1  0.4971200000000  0.5115860000000  0.4519770000000 1.0
C      1  0.4852540000000  0.5500880000000  0.4893370000000 1.0
C      1  0.5558260000000  0.4094240000000  0.4951440000000 1.0
C      1  0.5635270000000  0.4578900000000  0.4561560000000 1.0
C      1  0.4563350000000  0.5185860000000  0.5140470000000 1.0
C      1  0.4285120000000  0.5591850000000  0.4820980000000 1.0
C      1  0.4972430000000  0.5164700000000  0.4208610000000 1.0
C      1  0.4962580000000  0.5600870000000  0.5581760000000 1.0
C      1  0.4964860000000  0.4651290000000  0.4959100000000 1.0
C      1  0.4166950000000  0.5101320000000  0.4545730000000 1.0
C      1  0.4195760000000  0.4833520000000  0.4456950000000 1.0
C      1  0.4257920000000  0.4751740000000  0.5501720000000 1.0
C      1  0.4626520000000  0.4806030000000  0.4702140000000 1.0
C      1  0.5424480000000  0.4735070000000  0.4978210000000 1.0
C      1  0.4091230000000  0.4899170000000  0.5019800000000 1.0
C      1  0.5905890000000  0.5441130000000  0.5052710000000 1.0
C      1  0.4608110000000  0.4890090000000  0.5174140000000 1.0
C      1  0.4727950000000  0.5073810000000  0.4679750000000 1.0
C      1  0.4565380000000  0.5107370000000  0.5764970000000 1.0
C      1  0.5820230000000  0.5145240000000  0.4670390000000 1.0
C      1  0.5565940000000  0.4787670000000  0.4375580000000 1.0
C      1  0.4756220000000  0.5359620000000  0.4118600000000 1.0
C      1  0.4245980000000  0.4622160000000  0.4648520000000 1.0
C      1  0.4875100000000  0.4538890000000  0.5400840000000 1.0
C      1  0.5093880000000  0.4102480000000  0.4810370000000 1.0
C      1  0.5256690000000  0.5204660000000  0.5135450000000 1.0
C      1  0.5049370000000  0.5876840000000  0.5066160000000 1.0
C      1  0.5410320000000  0.5029020000000  0.4966560000000 1.0
C      1  0.5665150000000  0.5093370000000  0.5664030000000 1.0
C      1  0.4950820000000  0.4852620000000  0.5859180000000 1.0
C      1  0.5493620000000  0.4392060000000  0.5389940000000 1.0
C      1  0.5234690000000  0.5316660000000  0.4160010000000 1.0
C      1  0.5422900000000  0.5591450000000  0.5645760000000 1.0
C      1  0.4155390000000  0.5379830000000  0.4955400000000 1.0
C      1  0.5038100000000  0.4025050000000  0.5090400000000 1.0
C      1  0.4581010000000  0.5741200000000  0.4608880000000 1.0
C      1  0.5619520000000  0.4835890000000  0.5545940000000 1.0
C      1  0.5376660000000  0.5087790000000  0.4672830000000 1.0
C      1  0.4900430000000  0.5084360000000  0.5470930000000 1.0
C      1  0.5007410000000  0.4683790000000  0.4156960000000 1.0
C      1  0.4359480000000  0.5558380000000  0.4543630000000 1.0
C      1  0.4418540000000  0.4757140000000  0.4288050000000 1.0
C      1  0.5276220000000  0.4724350000000  0.4308100000000 1.0
C      1  0.5209690000000  0.5872160000000  0.4818150000000 1.0
C      1  0.5438440000000  0.5155910000000  0.5811140000000 1.0
C      1  0.5301260000000  0.5387570000000  0.5807170000000 1.0
C      1  0.4673540000000  0.4316410000000  0.5306750000000 1.0
C      1  0.5861920000000  0.4921920000000  0.4850950000000 1.0
C      1  0.4309420000000  0.5313340000000  0.4397190000000 1.0
C      1  0.5906660000000  0.4959930000000  0.5137110000000 1.0
C      1  0.4153320000000  0.4638890000000  0.4918650000000 1.0
C      1  0.4772750000000  0.5588480000000  0.5368330000000 1.0
C      1  0.5062620000000  0.4541670000000  0.5189390000000 1.0
C      1  0.4687940000000  0.5310060000000  0.5385110000000 1.0
C      1  0.5668280000000  0.5552960000000  0.5513940000000 1.0
C      1  0.5207700000000  0.5733240000000  0.5521170000000 1.0
C      1  0.4223300000000  0.5299110000000  0.5454810000000 1.0
C      1  0.5454700000000  0.4343810000000  0.4536070000000 1.0
C      1  0.5899380000000  0.5224940000000  0.5242690000000 1.0
C      1  0.4784420000000  0.4418750000000  0.5818850000000 1.0
C      1  0.5039600000000  0.4444560000000  0.5648380000000 1.0
C      1  0.4537420000000  0.4580510000000  0.4505280000000 1.0
END
