TITL C-21895-2446-6 60.599361985565 125000 -653.212250069287 0 0 93 (C1) n - 1
REM
REM in /rds/project/t2_vol4/rds-t2-cs072/BORA/CARBON/from-Arr/AIRSS/Generating-Clusters/GAP-ML-2020/Only-C1/SD-CG/HFTN-CG
REM
REM
REM
REM
REM
REM ./C.cell (11c1c37f851c82e70ff6c80c92926a4b)
REM AIRSS Version 0.9.1 bugfix July 2018 build 013d7b7c2542+ Fri, 06 Jul 2018 19:26:36 +0100
REM compiler GCC version 9.3.0
REM options -cpp -mtune=generic -march=x86-64 -g -O0
REM seed 190390461 1043281278 -2126369588 1474799031 1666239824 -67522752 2086158656 -338042638 -2008776290 -1986689736 1886630762 1728377915 -292796791 -569550765 2052140737 -41224218 1417455452 -1800320476 912590924 -296499359 443184629 307640575 -1981935794 -976404176 -308047293 -792200082 1743885565 -312625208 921120899 -688838014 2047130325 1816206963 -1726368634
REM
CELL 1.54180   50.00000   50.00000   50.00000   90.00000   90.00000   90.00000
LATT -1
SFAC C  
C      1  0.4604120000000  0.5406700000000  0.5323130000000 1.0
C      1  0.4617290000000  0.4969880000000  0.4670460000000 1.0
C      1  0.5070890000000  0.5035370000000  0.4561820000000 1.0
C      1  0.4898360000000  0.5306430000000  0.5230270000000 1.0
C      1  0.4605690000000  0.5170570000000  0.4246630000000 1.0
C      1  0.5249200000000  0.5102440000000  0.5898580000000 1.0
C      1  0.5524320000000  0.4387560000000  0.4982220000000 1.0
C      1  0.5165840000000  0.4794410000000  0.4907770000000 1.0
C      1  0.5276520000000  0.5632640000000  0.4710640000000 1.0
C      1  0.4838120000000  0.4847080000000  0.5053520000000 1.0
C      1  0.5562280000000  0.4604870000000  0.5391670000000 1.0
C      1  0.5410390000000  0.4402400000000  0.5248030000000 1.0
C      1  0.5558660000000  0.5311120000000  0.5580500000000 1.0
C      1  0.5212390000000  0.5414680000000  0.4318920000000 1.0
C      1  0.5050970000000  0.5141650000000  0.5415430000000 1.0
C      1  0.4605480000000  0.4709040000000  0.4200800000000 1.0
C      1  0.5034120000000  0.4419550000000  0.5842370000000 1.0
C      1  0.5114260000000  0.5145550000000  0.4254360000000 1.0
C      1  0.5097920000000  0.4300410000000  0.4918840000000 1.0
C      1  0.4894110000000  0.5394950000000  0.5808400000000 1.0
C      1  0.4422950000000  0.5487320000000  0.4875560000000 1.0
C      1  0.4374690000000  0.5033930000000  0.5457350000000 1.0
C      1  0.5355730000000  0.5329820000000  0.5776550000000 1.0
C      1  0.5364730000000  0.4965840000000  0.4238400000000 1.0
C      1  0.5671250000000  0.5419410000000  0.4844970000000 1.0
C      1  0.4684440000000  0.4708280000000  0.5691480000000 1.0
C      1  0.4467340000000  0.4768290000000  0.5514980000000 1.0
C      1  0.4143070000000  0.4631750000000  0.4449690000000 1.0
C      1  0.4234320000000  0.4894480000000  0.4452800000000 1.0
C      1  0.5050180000000  0.5596720000000  0.5176440000000 1.0
C      1  0.4652010000000  0.5864050000000  0.5299610000000 1.0
C      1  0.5076160000000  0.4746410000000  0.5179470000000 1.0
C      1  0.4685230000000  0.4730850000000  0.4813950000000 1.0
C      1  0.4837520000000  0.4552140000000  0.4620730000000 1.0
C      1  0.5307890000000  0.4678830000000  0.4278270000000 1.0
C      1  0.4236120000000  0.4947750000000  0.4981550000000 1.0
C      1  0.4436770000000  0.4943050000000  0.4248280000000 1.0
C      1  0.5143250000000  0.5503170000000  0.5698830000000 1.0
C      1  0.4309790000000  0.5049420000000  0.4697620000000 1.0
C      1  0.5334860000000  0.4837440000000  0.5832640000000 1.0
C      1  0.5664260000000  0.5056900000000  0.5522720000000 1.0
C      1  0.5088540000000  0.4634610000000  0.4115710000000 1.0
C      1  0.4567480000000  0.5382620000000  0.4440290000000 1.0
C      1  0.5476700000000  0.5495390000000  0.5374520000000 1.0
C      1  0.5455850000000  0.5089050000000  0.5132930000000 1.0
C      1  0.4500960000000  0.5264440000000  0.5564100000000 1.0
C      1  0.4294690000000  0.4676460000000  0.5056460000000 1.0
C      1  0.4803080000000  0.5482700000000  0.4613470000000 1.0
C      1  0.5822680000000  0.5178050000000  0.4802930000000 1.0
C      1  0.5325710000000  0.5129280000000  0.4662020000000 1.0
C      1  0.5597510000000  0.4766120000000  0.4722410000000 1.0
C      1  0.5075040000000  0.5561410000000  0.4518910000000 1.0
C      1  0.5102170000000  0.4681490000000  0.5891720000000 1.0
C      1  0.4852540000000  0.4312290000000  0.4799630000000 1.0
C      1  0.4796550000000  0.5755260000000  0.5078120000000 1.0
C      1  0.4612250000000  0.4324270000000  0.4958550000000 1.0
C      1  0.5739220000000  0.4712660000000  0.5203710000000 1.0
C      1  0.4278170000000  0.5121310000000  0.5192770000000 1.0
C      1  0.5112860000000  0.4406350000000  0.5212910000000 1.0
C      1  0.4368990000000  0.4530710000000  0.4563760000000 1.0
C      1  0.4962840000000  0.5128070000000  0.5903220000000 1.0
C      1  0.4648160000000  0.5659430000000  0.5480520000000 1.0
C      1  0.5086400000000  0.4735190000000  0.4625810000000 1.0
C      1  0.4636290000000  0.5471080000000  0.5716870000000 1.0
C      1  0.5702530000000  0.4604640000000  0.4942640000000 1.0
C      1  0.4419840000000  0.4587090000000  0.5298460000000 1.0
C      1  0.4674790000000  0.5627780000000  0.4845630000000 1.0
C      1  0.5919500000000  0.5102360000000  0.5042540000000 1.0
C      1  0.4843810000000  0.5163360000000  0.4717400000000 1.0
C      1  0.5216380000000  0.5603670000000  0.5437490000000 1.0
C      1  0.4619570000000  0.4376440000000  0.5234790000000 1.0
C      1  0.5541450000000  0.5111580000000  0.4413930000000 1.0
C      1  0.5540400000000  0.5539910000000  0.4624620000000 1.0
C      1  0.5484720000000  0.5410900000000  0.5086660000000 1.0
C      1  0.5264220000000  0.5578260000000  0.4987160000000 1.0
C      1  0.5740700000000  0.4995560000000  0.4595610000000 1.0
C      1  0.4841960000000  0.4456330000000  0.5642600000000 1.0
C      1  0.4863940000000  0.4351560000000  0.5379200000000 1.0
C      1  0.5364840000000  0.4600280000000  0.4570890000000 1.0
C      1  0.5474040000000  0.4827110000000  0.5572110000000 1.0
C      1  0.5338860000000  0.4361380000000  0.4771830000000 1.0
C      1  0.5488200000000  0.5396050000000  0.4383680000000 1.0
C      1  0.4359980000000  0.5339740000000  0.4642230000000 1.0
C      1  0.4615140000000  0.4534300000000  0.4419190000000 1.0
C      1  0.4439620000000  0.4537840000000  0.4848600000000 1.0
C      1  0.4859950000000  0.5075240000000  0.4138370000000 1.0
C      1  0.4845900000000  0.5126430000000  0.5008400000000 1.0
C      1  0.5396140000000  0.4959840000000  0.4882810000000 1.0
C      1  0.4862470000000  0.4860080000000  0.5862030000000 1.0
C      1  0.5752070000000  0.5002490000000  0.5241820000000 1.0
C      1  0.4859310000000  0.4787080000000  0.4097650000000 1.0
C      1  0.5242220000000  0.4957970000000  0.5328580000000 1.0
C      1  0.4379330000000  0.5383370000000  0.5135520000000 1.0
END
