TITL C-2109090-4430-17 -0.00100619728298058 125000 -594.945211546009 0 0 86 (C1) n - 1
REM
REM in /nfs/bkarasulu/CARBON/AIRSS/Generating-Clusters/GAP-ML-2020/Only-C1/SD-CG/HFTN-CG
REM
REM
REM
REM
REM
REM ./C.cell (11c1c37f851c82e70ff6c80c92926a4b)
REM
REM compiler GCC version 9.2.1 20190827 (Red Hat 9.2.1-1)
REM options -cpp -mtune=generic -march=x86-64 -g -O0 -fpre-include=/usr/include/finclude/math-vector-fortran.h
REM seed 59393542 1561818199 -570580406 -619122453 664840456 1120087220 1530027029 1022381042 -1819298314 -1050212021 1289582138 -1933359894 1981552101 -2039072131 -488502018 -1196244762 579406139 1906189841 -1497140194 -344819143 1353800577 1975257918 -2125578201 636305192 551861816 184745019 1047120457 -1596526725 -1546648113 -1439090353 -1916015023 208023730 -776973224
REM
CELL 1.54180   50.00000   50.00000   50.00000   90.00000   90.00000   90.00000
LATT -1
SFAC C  
C      1  0.5295780000000  0.4805260000000  0.4233020000000 1.0
C      1  0.4818720000000  0.4582120000000  0.5043600000000 1.0
C      1  0.5256090000000  0.4223200000000  0.5286620000000 1.0
C      1  0.5685680000000  0.4660150000000  0.4698780000000 1.0
C      1  0.5665150000000  0.4923120000000  0.4573530000000 1.0
C      1  0.4619520000000  0.5616620000000  0.4603640000000 1.0
C      1  0.4484110000000  0.5558230000000  0.5373060000000 1.0
C      1  0.5305420000000  0.5453720000000  0.5782980000000 1.0
C      1  0.4433250000000  0.5178770000000  0.4464840000000 1.0
C      1  0.4353830000000  0.4570880000000  0.4884070000000 1.0
C      1  0.4954120000000  0.4561150000000  0.5763140000000 1.0
C      1  0.4439690000000  0.4972500000000  0.4679230000000 1.0
C      1  0.5061560000000  0.4198890000000  0.4860500000000 1.0
C      1  0.4853640000000  0.4509360000000  0.4560710000000 1.0
C      1  0.5552950000000  0.5519360000000  0.5013490000000 1.0
C      1  0.5225560000000  0.5006560000000  0.4987050000000 1.0
C      1  0.4944070000000  0.5124630000000  0.4661610000000 1.0
C      1  0.5576380000000  0.5466380000000  0.5279100000000 1.0
C      1  0.4484710000000  0.5748630000000  0.5173910000000 1.0
C      1  0.5234970000000  0.4811960000000  0.5176300000000 1.0
C      1  0.4235670000000  0.5273120000000  0.5049400000000 1.0
C      1  0.4952990000000  0.4845080000000  0.5230380000000 1.0
C      1  0.5093450000000  0.5216130000000  0.4213710000000 1.0
C      1  0.4649280000000  0.4643870000000  0.4413430000000 1.0
C      1  0.5753800000000  0.4965580000000  0.5043940000000 1.0
C      1  0.4642840000000  0.5146490000000  0.4280680000000 1.0
C      1  0.4970260000000  0.4276910000000  0.5334110000000 1.0
C      1  0.5106890000000  0.5815140000000  0.4792730000000 1.0
C      1  0.4752220000000  0.4674560000000  0.5917460000000 1.0
C      1  0.4993750000000  0.5382200000000  0.4789570000000 1.0
C      1  0.4861500000000  0.5567750000000  0.4455510000000 1.0
C      1  0.4344740000000  0.5310790000000  0.5319730000000 1.0
C      1  0.5120310000000  0.4905100000000  0.4749110000000 1.0
C      1  0.5428450000000  0.4591700000000  0.5552330000000 1.0
C      1  0.5430890000000  0.4846900000000  0.5401960000000 1.0
C      1  0.4752700000000  0.5031020000000  0.5067510000000 1.0
C      1  0.5056820000000  0.4309710000000  0.4598610000000 1.0
C      1  0.4758070000000  0.4881160000000  0.4262200000000 1.0
C      1  0.5667560000000  0.5008040000000  0.5318040000000 1.0
C      1  0.4735130000000  0.5503690000000  0.5519740000000 1.0
C      1  0.4776760000000  0.5220240000000  0.5465630000000 1.0
C      1  0.4789570000000  0.5533150000000  0.4970540000000 1.0
C      1  0.5483650000000  0.4996220000000  0.4357140000000 1.0
C      1  0.5414460000000  0.5216920000000  0.5684140000000 1.0
C      1  0.4401880000000  0.5430720000000  0.4580920000000 1.0
C      1  0.4304440000000  0.5461990000000  0.4851630000000 1.0
C      1  0.5039100000000  0.4938330000000  0.4189340000000 1.0
C      1  0.4892220000000  0.4697120000000  0.4784630000000 1.0
C      1  0.4733260000000  0.4970720000000  0.4786050000000 1.0
C      1  0.4528740000000  0.4793310000000  0.5865400000000 1.0
C      1  0.4490600000000  0.5069330000000  0.5424970000000 1.0
C      1  0.5218200000000  0.4677850000000  0.5724480000000 1.0
C      1  0.4972450000000  0.5002980000000  0.5492230000000 1.0
C      1  0.5481400000000  0.4387340000000  0.5363750000000 1.0
C      1  0.5716420000000  0.5114930000000  0.4781080000000 1.0
C      1  0.5334800000000  0.4543390000000  0.4270290000000 1.0
C      1  0.4140310000000  0.4744740000000  0.4930850000000 1.0
C      1  0.4544670000000  0.4624030000000  0.5136020000000 1.0
C      1  0.5128510000000  0.5286910000000  0.5052040000000 1.0
C      1  0.5535810000000  0.4281080000000  0.4914110000000 1.0
C      1  0.4973070000000  0.5668520000000  0.5513070000000 1.0
C      1  0.5353260000000  0.5251080000000  0.4346010000000 1.0
C      1  0.4850530000000  0.5353500000000  0.4266980000000 1.0
C      1  0.4889590000000  0.4300820000000  0.5065740000000 1.0
C      1  0.5546450000000  0.4408650000000  0.4662310000000 1.0
C      1  0.5295790000000  0.5519860000000  0.5163240000000 1.0
C      1  0.4817910000000  0.4433300000000  0.5521220000000 1.0
C      1  0.5150250000000  0.5649580000000  0.5737490000000 1.0
C      1  0.5737720000000  0.4687540000000  0.4979660000000 1.0
C      1  0.5299120000000  0.4153040000000  0.5005710000000 1.0
C      1  0.5320840000000  0.4376590000000  0.4484080000000 1.0
C      1  0.5127470000000  0.5593540000000  0.4613510000000 1.0
C      1  0.4524030000000  0.5644340000000  0.4906930000000 1.0
C      1  0.5103190000000  0.5722980000000  0.5258970000000 1.0
C      1  0.5641230000000  0.4449580000000  0.5121060000000 1.0
C      1  0.5582000000000  0.5378130000000  0.4762390000000 1.0
C      1  0.4841380000000  0.5291620000000  0.5163960000000 1.0
C      1  0.4572560000000  0.4571360000000  0.5432620000000 1.0
C      1  0.4494710000000  0.4925290000000  0.5158700000000 1.0
C      1  0.5618120000000  0.5251900000000  0.5457010000000 1.0
C      1  0.5242960000000  0.4974000000000  0.5622010000000 1.0
C      1  0.4966760000000  0.5775230000000  0.5022270000000 1.0
C      1  0.4474470000000  0.4813210000000  0.5591370000000 1.0
C      1  0.4427830000000  0.4687910000000  0.4611050000000 1.0
C      1  0.4278670000000  0.4999650000000  0.4949230000000 1.0
C      1  0.5390320000000  0.5440970000000  0.4548900000000 1.0
END
