TITL C-216140-3415-1 0.0522617317407392 125000 -37.1688394955682 0 0 6 (D(inf)h) n - 1
REM
REM in /rds/project/t2_vol4/rds-t2-cs072/BORA/CARBON/from-Arr/AIRSS/Generating-Clusters/GAP-ML-2020/Only-C1/SD-CG/HFTN-CG
REM
REM
REM
REM
REM
REM ./C.cell (11c1c37f851c82e70ff6c80c92926a4b)
REM AIRSS Version 0.9.1 bugfix July 2018 build 013d7b7c2542+ Fri, 06 Jul 2018 19:26:36 +0100
REM compiler GCC version 9.3.0
REM options -cpp -mtune=generic -march=x86-64 -g -O0
REM seed -2035551536 1513560386 1194796554 -618417503 333292935 900480218 -1763319601 1707633482 -2112893127 1765646201 -662849989 1980276853 1675548590 -255433255 -1225416757 1673339311 1925649516 -23407103 -532648233 -67294193 -1824282682 1292148415 1882091117 -2008101169 -1355278500 -1697053050 -1814032262 -1845428451 -112533916 403368568 -621887912 994358078 -1039023683
REM
CELL 1.54180   50.00000   50.00000   50.00000   90.00000   90.00000   90.00000
LATT -1
SFAC C  
C      1  0.4944470000000  0.4900860000000  0.4949450000000 1.0
C      1  0.4714920000000  0.4491060000000  0.4740480000000 1.0
C      1  0.4828170000000  0.4693240000000  0.4843580000000 1.0
C      1  0.5171830000000  0.5306760000000  0.5156420000000 1.0
C      1  0.5285080000000  0.5508940000000  0.5259520000000 1.0
C      1  0.5055530000000  0.5099140000000  0.5050550000000 1.0
END
