TITL C-21686-8237-3 -5.98988128690535 125000 -499.047691622523 0 0 72 (C1) n - 1
REM
REM in /rds/project/t2_vol4/rds-t2-cs072/BORA/CARBON/from-Arr/AIRSS/Generating-Clusters/GAP-ML-2020/Only-C1/SD-CG/HFTN-CG
REM
REM
REM
REM
REM
REM ./C.cell (11c1c37f851c82e70ff6c80c92926a4b)
REM AIRSS Version 0.9.1 bugfix July 2018 build 013d7b7c2542+ Fri, 06 Jul 2018 19:26:36 +0100
REM compiler GCC version 9.3.0
REM options -cpp -mtune=generic -march=x86-64 -g -O0
REM seed 1405814970 94515189 459102690 281064257 1952820404 -1674495701 65032444 -1280077492 -446616856 805065419 -1640283651 605224437 -494852539 2002936268 2132472616 2002381895 1618417938 -770968598 -2075943133 1961923290 32412780 -521589701 -471416129 -2098614681 -181076997 -1510578587 448136659 1446464842 -1777753913 -742444634 1342570067 -1580247848 264528707
REM
CELL 1.54180   50.00000   50.00000   50.00000   90.00000   90.00000   90.00000
LATT -1
SFAC C  
C      1  0.4656210000000  0.5443600000000  0.5139210000000 1.0
C      1  0.5293250000000  0.5822450000000  0.4969410000000 1.0
C      1  0.5500030000000  0.5542260000000  0.4656350000000 1.0
C      1  0.4751240000000  0.4897740000000  0.4357560000000 1.0
C      1  0.5042940000000  0.5459390000000  0.4425620000000 1.0
C      1  0.5124870000000  0.5252360000000  0.5031610000000 1.0
C      1  0.4514260000000  0.4726100000000  0.5643050000000 1.0
C      1  0.5221090000000  0.5624560000000  0.5421150000000 1.0
C      1  0.4912160000000  0.4982990000000  0.5652840000000 1.0
C      1  0.4733720000000  0.4618200000000  0.4393350000000 1.0
C      1  0.5340430000000  0.4761340000000  0.5581550000000 1.0
C      1  0.4893610000000  0.5899540000000  0.5199870000000 1.0
C      1  0.5140020000000  0.5224230000000  0.4284860000000 1.0
C      1  0.4361070000000  0.5132430000000  0.5316610000000 1.0
C      1  0.4794460000000  0.5495330000000  0.4578790000000 1.0
C      1  0.4339630000000  0.5127790000000  0.5032470000000 1.0
C      1  0.5023400000000  0.4962750000000  0.4311630000000 1.0
C      1  0.4564210000000  0.4564910000000  0.4615690000000 1.0
C      1  0.5122310000000  0.5777320000000  0.4748560000000 1.0
C      1  0.5730210000000  0.4712320000000  0.4950830000000 1.0
C      1  0.4447160000000  0.4456430000000  0.5661950000000 1.0
C      1  0.5546910000000  0.4659950000000  0.4756370000000 1.0
C      1  0.5705720000000  0.5582590000000  0.5096010000000 1.0
C      1  0.5091770000000  0.4660680000000  0.4717260000000 1.0
C      1  0.4920570000000  0.4712940000000  0.5156030000000 1.0
C      1  0.4882060000000  0.4135680000000  0.5128140000000 1.0
C      1  0.5540280000000  0.5692060000000  0.4911680000000 1.0
C      1  0.4951290000000  0.4835220000000  0.4895870000000 1.0
C      1  0.5268260000000  0.5251590000000  0.5595540000000 1.0
C      1  0.5034050000000  0.4137380000000  0.4667400000000 1.0
C      1  0.5159220000000  0.5818980000000  0.5228700000000 1.0
C      1  0.4833320000000  0.4950780000000  0.5340940000000 1.0
C      1  0.4494870000000  0.5326690000000  0.4912400000000 1.0
C      1  0.5010740000000  0.5090020000000  0.4858030000000 1.0
C      1  0.4690120000000  0.4279930000000  0.5285660000000 1.0
C      1  0.5597690000000  0.5108950000000  0.5173330000000 1.0
C      1  0.4642210000000  0.4401260000000  0.4829350000000 1.0
C      1  0.4822900000000  0.5275010000000  0.5677520000000 1.0
C      1  0.4584550000000  0.5302730000000  0.4639220000000 1.0
C      1  0.5205860000000  0.4984660000000  0.5657980000000 1.0
C      1  0.4744520000000  0.4792030000000  0.5765090000000 1.0
C      1  0.4568550000000  0.5354120000000  0.5644560000000 1.0
C      1  0.4504570000000  0.4883150000000  0.5383600000000 1.0
C      1  0.5464840000000  0.4804520000000  0.4518010000000 1.0
C      1  0.4354310000000  0.4861410000000  0.4938970000000 1.0
C      1  0.5416580000000  0.5209630000000  0.4262650000000 1.0
C      1  0.5440670000000  0.5446430000000  0.5466280000000 1.0
C      1  0.5413500000000  0.4665360000000  0.5340440000000 1.0
C      1  0.5627490000000  0.4823400000000  0.5186120000000 1.0
C      1  0.5414850000000  0.5196460000000  0.4974970000000 1.0
C      1  0.5241320000000  0.4224800000000  0.4854140000000 1.0
C      1  0.4482920000000  0.5377480000000  0.5386970000000 1.0
C      1  0.4440430000000  0.4818200000000  0.4678390000000 1.0
C      1  0.4661660000000  0.4522130000000  0.5107870000000 1.0
C      1  0.5203870000000  0.4532410000000  0.5166570000000 1.0
C      1  0.4452390000000  0.4715840000000  0.5153120000000 1.0
C      1  0.4799660000000  0.4170350000000  0.4835110000000 1.0
C      1  0.4918560000000  0.5240910000000  0.5240940000000 1.0
C      1  0.5651710000000  0.5378170000000  0.5273820000000 1.0
C      1  0.5300550000000  0.4515450000000  0.4855020000000 1.0
C      1  0.5183710000000  0.4745480000000  0.4436850000000 1.0
C      1  0.5035530000000  0.4231130000000  0.4410080000000 1.0
C      1  0.5025860000000  0.5392670000000  0.5500620000000 1.0
C      1  0.4760070000000  0.5708190000000  0.5050780000000 1.0
C      1  0.4545900000000  0.4267620000000  0.5518980000000 1.0
C      1  0.4849220000000  0.5698970000000  0.4774420000000 1.0
C      1  0.4554380000000  0.5035750000000  0.4525150000000 1.0
C      1  0.5537680000000  0.5264520000000  0.4706190000000 1.0
C      1  0.5145400000000  0.4228730000000  0.5126930000000 1.0
C      1  0.5526590000000  0.5084930000000  0.4484490000000 1.0
C      1  0.5245500000000  0.5618740000000  0.4551430000000 1.0
C      1  0.4998550000000  0.4499850000000  0.4381010000000 1.0
END
