TITL C-21811-2997-8 -10.5096479305804 125000 -174.435114369764 0 0 27 (C1) n - 1
REM
REM in /rds/project/t2_vol4/rds-t2-cs072/BORA/CARBON/from-Arr/AIRSS/Generating-Clusters/GAP-ML-2020/Only-C1/SD-CG/HFTN-CG
REM
REM
REM
REM
REM
REM ./C.cell (11c1c37f851c82e70ff6c80c92926a4b)
REM AIRSS Version 0.9.1 bugfix July 2018 build 013d7b7c2542+ Fri, 06 Jul 2018 19:26:36 +0100
REM compiler GCC version 9.3.0
REM options -cpp -mtune=generic -march=x86-64 -g -O0
REM seed -1688297866 -995740926 -1347071914 -295881030 706698833 -1764917636 -298063200 -1189934792 1422764692 1801936619 1769474498 1607888230 1679398016 501669152 1713398319 -1980128742 -1877714337 -348684293 -148912085 1881241295 575419242 53964961 897549866 1007306460 -50005181 -1759844724 1682662302 1189764269 -355479463 -133812445 -767379532 -732387548 -1846996595
REM
CELL 1.54180   50.00000   50.00000   50.00000   90.00000   90.00000   90.00000
LATT -1
SFAC C  
C      1  0.5066370000000  0.4457620000000  0.5002900000000 1.0
C      1  0.5008710000000  0.5001230000000  0.5042860000000 1.0
C      1  0.4652380000000  0.5157480000000  0.5302460000000 1.0
C      1  0.4911310000000  0.5297080000000  0.5363860000000 1.0
C      1  0.4763100000000  0.4920160000000  0.5207330000000 1.0
C      1  0.5447210000000  0.5195860000000  0.4903840000000 1.0
C      1  0.5008140000000  0.5302590000000  0.5075010000000 1.0
C      1  0.4624840000000  0.4755260000000  0.4845930000000 1.0
C      1  0.4863640000000  0.4496970000000  0.5200560000000 1.0
C      1  0.4995890000000  0.5128110000000  0.4577980000000 1.0
C      1  0.4990330000000  0.4433690000000  0.4743880000000 1.0
C      1  0.5184100000000  0.5285560000000  0.4457730000000 1.0
C      1  0.5215110000000  0.4883060000000  0.5226240000000 1.0
C      1  0.5040710000000  0.4912410000000  0.4765560000000 1.0
C      1  0.5178400000000  0.5050870000000  0.5468200000000 1.0
C      1  0.4662700000000  0.4682990000000  0.5121850000000 1.0
C      1  0.4559870000000  0.5215650000000  0.5039940000000 1.0
C      1  0.5115980000000  0.4606150000000  0.5230420000000 1.0
C      1  0.5657380000000  0.5021510000000  0.4957090000000 1.0
C      1  0.5061220000000  0.5246050000000  0.5586630000000 1.0
C      1  0.5256490000000  0.5385580000000  0.4974780000000 1.0
C      1  0.4571950000000  0.5040900000000  0.4810640000000 1.0
C      1  0.5466880000000  0.4903140000000  0.5086170000000 1.0
C      1  0.4747500000000  0.5224660000000  0.4666730000000 1.0
C      1  0.4767420000000  0.5373610000000  0.4913280000000 1.0
C      1  0.5299350000000  0.5339690000000  0.4699880000000 1.0
C      1  0.4883020000000  0.4682130000000  0.4728250000000 1.0
END
