TITL C-21827-6252-1 -0.215480780670876 125000 -595.720506954867 0 0 86 (C1) n - 1
REM
REM in /rds/project/t2_vol4/rds-t2-cs072/BORA/CARBON/from-Arr/AIRSS/Generating-Clusters/GAP-ML-2020/Only-C1/SD-CG/HFTN-CG
REM
REM
REM
REM
REM
REM ./C.cell (11c1c37f851c82e70ff6c80c92926a4b)
REM AIRSS Version 0.9.1 bugfix July 2018 build 013d7b7c2542+ Fri, 06 Jul 2018 19:26:36 +0100
REM compiler GCC version 9.3.0
REM options -cpp -mtune=generic -march=x86-64 -g -O0
REM seed -374440682 399982416 408610116 -1479671491 1274539583 -1244457392 1141622774 2125380827 -1043932067 1574894149 -1592090020 816505267 1692641037 -2029398983 1253520051 -528642205 -408362449 1813933053 -357949479 -1052830511 -647654839 -603371615 1303591783 -1132789133 35649322 -2061433486 -2092836577 694773691 303228696 -189089367 349127100 1498786694 -1163938375
REM
CELL 1.54180   50.00000   50.00000   50.00000   90.00000   90.00000   90.00000
LATT -1
SFAC C  
C      1  0.4741340000000  0.4190020000000  0.5042160000000 1.0
C      1  0.4768970000000  0.5210120000000  0.4305190000000 1.0
C      1  0.5612580000000  0.5424450000000  0.4668210000000 1.0
C      1  0.4871200000000  0.4878690000000  0.4790690000000 1.0
C      1  0.4771100000000  0.5681070000000  0.5427680000000 1.0
C      1  0.5680610000000  0.5499940000000  0.5073050000000 1.0
C      1  0.4862460000000  0.4255750000000  0.5296270000000 1.0
C      1  0.4671500000000  0.5338540000000  0.4553350000000 1.0
C      1  0.5204860000000  0.5586680000000  0.5595140000000 1.0
C      1  0.4770160000000  0.5211700000000  0.5463490000000 1.0
C      1  0.5605870000000  0.4771320000000  0.5401800000000 1.0
C      1  0.4483730000000  0.4507870000000  0.5247180000000 1.0
C      1  0.5076180000000  0.5132310000000  0.5333530000000 1.0
C      1  0.4784890000000  0.4331380000000  0.4593060000000 1.0
C      1  0.5664030000000  0.4813210000000  0.5097690000000 1.0
C      1  0.5453530000000  0.5461930000000  0.5509950000000 1.0
C      1  0.5653640000000  0.4610570000000  0.4672670000000 1.0
C      1  0.4034280000000  0.5131360000000  0.5280240000000 1.0
C      1  0.4477630000000  0.5324610000000  0.4767200000000 1.0
C      1  0.4949040000000  0.4484420000000  0.4398390000000 1.0
C      1  0.5046630000000  0.5105040000000  0.5793980000000 1.0
C      1  0.4524540000000  0.4974880000000  0.5149520000000 1.0
C      1  0.5697050000000  0.4886290000000  0.4625290000000 1.0
C      1  0.5267060000000  0.4916450000000  0.5745360000000 1.0
C      1  0.5248030000000  0.5107220000000  0.4896240000000 1.0
C      1  0.5051780000000  0.5265230000000  0.4234480000000 1.0
C      1  0.5415250000000  0.4569200000000  0.5468590000000 1.0
C      1  0.4763320000000  0.4663990000000  0.4269090000000 1.0
C      1  0.4796040000000  0.4977390000000  0.5672700000000 1.0
C      1  0.4388110000000  0.4639870000000  0.4567450000000 1.0
C      1  0.5129070000000  0.4219230000000  0.5300330000000 1.0
C      1  0.5333820000000  0.4400460000000  0.5248810000000 1.0
C      1  0.5186400000000  0.4667460000000  0.5635450000000 1.0
C      1  0.5246460000000  0.5425170000000  0.4355850000000 1.0
C      1  0.5778210000000  0.5008400000000  0.4881390000000 1.0
C      1  0.5118610000000  0.5839460000000  0.4663610000000 1.0
C      1  0.5096590000000  0.5586450000000  0.4533620000000 1.0
C      1  0.4925870000000  0.5405490000000  0.4691580000000 1.0
C      1  0.4993710000000  0.4849900000000  0.5262970000000 1.0
C      1  0.4896460000000  0.4161200000000  0.4800300000000 1.0
C      1  0.4528300000000  0.4977150000000  0.5809720000000 1.0
C      1  0.4307430000000  0.4971030000000  0.5683170000000 1.0
C      1  0.5490720000000  0.5293590000000  0.4445380000000 1.0
C      1  0.4537900000000  0.4432690000000  0.4707330000000 1.0
C      1  0.5312290000000  0.4841500000000  0.4312180000000 1.0
C      1  0.5234400000000  0.4571430000000  0.4405000000000 1.0
C      1  0.4929650000000  0.5468010000000  0.4987380000000 1.0
C      1  0.4528520000000  0.4365870000000  0.4995320000000 1.0
C      1  0.4319700000000  0.4759690000000  0.5225910000000 1.0
C      1  0.5171730000000  0.4679110000000  0.5083360000000 1.0
C      1  0.4605710000000  0.5436260000000  0.5051300000000 1.0
C      1  0.4789040000000  0.5460180000000  0.5606180000000 1.0
C      1  0.5006520000000  0.4639400000000  0.4856150000000 1.0
C      1  0.5364010000000  0.4865230000000  0.4987020000000 1.0
C      1  0.5042240000000  0.5103210000000  0.4705920000000 1.0
C      1  0.5384520000000  0.4264890000000  0.4785880000000 1.0
C      1  0.5160690000000  0.4121690000000  0.4817360000000 1.0
C      1  0.5116600000000  0.5264880000000  0.5087650000000 1.0
C      1  0.4774810000000  0.4905040000000  0.5057060000000 1.0
C      1  0.4632050000000  0.5709010000000  0.5173950000000 1.0
C      1  0.4498620000000  0.4674560000000  0.4320990000000 1.0
C      1  0.4144130000000  0.4796180000000  0.4983690000000 1.0
C      1  0.4095180000000  0.5098310000000  0.5022640000000 1.0
C      1  0.4244400000000  0.4840020000000  0.4720900000000 1.0
C      1  0.5440590000000  0.4450560000000  0.4568790000000 1.0
C      1  0.5528610000000  0.5633190000000  0.4858520000000 1.0
C      1  0.4823510000000  0.4932650000000  0.4215360000000 1.0
C      1  0.4902810000000  0.4708380000000  0.5526870000000 1.0
C      1  0.5050050000000  0.5737510000000  0.5398560000000 1.0
C      1  0.5382190000000  0.5188900000000  0.5465730000000 1.0
C      1  0.5036000000000  0.5404980000000  0.5744950000000 1.0
C      1  0.5688030000000  0.4557720000000  0.4955390000000 1.0
C      1  0.4573290000000  0.5227640000000  0.5254270000000 1.0
C      1  0.5650890000000  0.5542700000000  0.5339880000000 1.0
C      1  0.5760340000000  0.5285970000000  0.4880580000000 1.0
C      1  0.5527780000000  0.5007940000000  0.4427260000000 1.0
C      1  0.4175150000000  0.4937490000000  0.5440700000000 1.0
C      1  0.5082330000000  0.5753910000000  0.5106610000000 1.0
C      1  0.4822030000000  0.5890720000000  0.5014640000000 1.0
C      1  0.5509730000000  0.4972840000000  0.5584900000000 1.0
C      1  0.5526100000000  0.4346120000000  0.5028410000000 1.0
C      1  0.4253830000000  0.5141790000000  0.4783450000000 1.0
C      1  0.4885640000000  0.5971840000000  0.4767460000000 1.0
C      1  0.5293380000000  0.5788650000000  0.4893810000000 1.0
C      1  0.5106670000000  0.4989380000000  0.4179700000000 1.0
C      1  0.4721250000000  0.4475490000000  0.5419150000000 1.0
END
