TITL C-21710-57-1 -0.045996575998794 125000 -209.68464893477 0 0 32 (C1) n - 1
REM
REM in /rds/project/t2_vol4/rds-t2-cs072/BORA/CARBON/from-Arr/AIRSS/Generating-Clusters/GAP-ML-2020/Only-C1/SD-CG/HFTN-CG
REM
REM
REM
REM
REM
REM ./C.cell (11c1c37f851c82e70ff6c80c92926a4b)
REM AIRSS Version 0.9.1 bugfix July 2018 build 013d7b7c2542+ Fri, 06 Jul 2018 19:26:36 +0100
REM compiler GCC version 9.3.0
REM options -cpp -mtune=generic -march=x86-64 -g -O0
REM seed 1851617251 1197652234 1832650702 688407943 -1468774510 -839378165 -1262343351 1394648450 -205950065 -2057437033 1797265056 1775310429 -431674974 1822183871 129945091 854822724 366766552 -539399824 -2144251457 -1480834243 375070104 -1001868878 -38305850 -1582034991 1641575973 241403697 1259160747 -478330963 -135373356 -2041005733 -1049037429 -1266670494 -1561340533
REM
CELL 1.54180   50.00000   50.00000   50.00000   90.00000   90.00000   90.00000
LATT -1
SFAC C  
C      1  0.4690150000000  0.4708180000000  0.5249050000000 1.0
C      1  0.4681900000000  0.5399840000000  0.5057780000000 1.0
C      1  0.4882250000000  0.5222550000000  0.5165260000000 1.0
C      1  0.5167390000000  0.4467200000000  0.5254690000000 1.0
C      1  0.4861310000000  0.4582320000000  0.4588490000000 1.0
C      1  0.5421330000000  0.4685270000000  0.4908270000000 1.0
C      1  0.5162870000000  0.4485690000000  0.4981100000000 1.0
C      1  0.5363390000000  0.5147050000000  0.5084790000000 1.0
C      1  0.4791840000000  0.5318100000000  0.5619740000000 1.0
C      1  0.4908830000000  0.4485550000000  0.4854660000000 1.0
C      1  0.4854900000000  0.5125700000000  0.5432030000000 1.0
C      1  0.5081200000000  0.4595740000000  0.4420150000000 1.0
C      1  0.4899820000000  0.4843390000000  0.5389550000000 1.0
C      1  0.5366940000000  0.5146460000000  0.4793980000000 1.0
C      1  0.4924810000000  0.5250020000000  0.4653430000000 1.0
C      1  0.5137660000000  0.5352510000000  0.5090470000000 1.0
C      1  0.4770270000000  0.5624370000000  0.5188830000000 1.0
C      1  0.5178040000000  0.4850170000000  0.4474520000000 1.0
C      1  0.4818910000000  0.5568920000000  0.5499340000000 1.0
C      1  0.4933450000000  0.5022370000000  0.4486160000000 1.0
C      1  0.5158100000000  0.5340540000000  0.4778160000000 1.0
C      1  0.4685710000000  0.5240940000000  0.4821840000000 1.0
C      1  0.4689760000000  0.4541700000000  0.5032080000000 1.0
C      1  0.5662810000000  0.4552620000000  0.4934680000000 1.0
C      1  0.4724690000000  0.4843450000000  0.4571060000000 1.0
C      1  0.4590600000000  0.4964600000000  0.4797640000000 1.0
C      1  0.5075870000000  0.5693240000000  0.5482500000000 1.0
C      1  0.4554030000000  0.4795070000000  0.5018840000000 1.0
C      1  0.5374350000000  0.4894830000000  0.4673350000000 1.0
C      1  0.5073060000000  0.5618840000000  0.5203960000000 1.0
C      1  0.5157730000000  0.4745920000000  0.5320240000000 1.0
C      1  0.5356020000000  0.4886860000000  0.5173360000000 1.0
END
