TITL C-21795-4724-2 -150.611350043306 125000 -197.19026073012 0 0 30 (C1) n - 1
REM
REM in /rds/project/t2_vol4/rds-t2-cs072/BORA/CARBON/from-Arr/AIRSS/Generating-Clusters/GAP-ML-2020/Only-C1/SD-CG/HFTN-CG
REM
REM
REM
REM
REM
REM ./C.cell (11c1c37f851c82e70ff6c80c92926a4b)
REM AIRSS Version 0.9.1 bugfix July 2018 build 013d7b7c2542+ Fri, 06 Jul 2018 19:26:36 +0100
REM compiler GCC version 9.3.0
REM options -cpp -mtune=generic -march=x86-64 -g -O0
REM seed 986675600 -1100583127 -844006824 850331157 -1210064551 -886909203 1391991597 973144953 -1910818593 1090597021 -1407975677 571685194 1374439793 1304142288 -1696372916 506490434 -1528410661 263090740 -1540206476 171283301 972818030 234520146 -1070122578 -76266940 2076251121 1569037480 2049388478 -641510274 372959245 966419721 -1006276523 2114034166 -1428769724
REM
CELL 1.54180   50.00000   50.00000   50.00000   90.00000   90.00000   90.00000
LATT -1
SFAC C  
C      1  0.5178080000000  0.4969150000000  0.4857990000000 1.0
C      1  0.5181350000000  0.5112140000000  0.4502230000000 1.0
C      1  0.5376070000000  0.4539810000000  0.5029250000000 1.0
C      1  0.5327650000000  0.5191170000000  0.4740970000000 1.0
C      1  0.4736080000000  0.5282920000000  0.4490530000000 1.0
C      1  0.5106420000000  0.4840110000000  0.4600430000000 1.0
C      1  0.5007130000000  0.4638560000000  0.5359190000000 1.0
C      1  0.4614930000000  0.4819230000000  0.4682420000000 1.0
C      1  0.5114670000000  0.4525230000000  0.5106750000000 1.0
C      1  0.5352050000000  0.4968390000000  0.5293650000000 1.0
C      1  0.4872300000000  0.5063650000000  0.4926130000000 1.0
C      1  0.5427040000000  0.5233290000000  0.5301560000000 1.0
C      1  0.5410690000000  0.5467130000000  0.5139970000000 1.0
C      1  0.5108860000000  0.4898560000000  0.5438090000000 1.0
C      1  0.4877540000000  0.4679700000000  0.4673260000000 1.0
C      1  0.4889270000000  0.5092240000000  0.5431680000000 1.0
C      1  0.4966580000000  0.5341370000000  0.5304690000000 1.0
C      1  0.5352020000000  0.4815750000000  0.5040100000000 1.0
C      1  0.4647510000000  0.4940800000000  0.5362800000000 1.0
C      1  0.4652760000000  0.4567750000000  0.5073900000000 1.0
C      1  0.5327820000000  0.5447500000000  0.4865910000000 1.0
C      1  0.5052490000000  0.5462950000000  0.4812210000000 1.0
C      1  0.4729880000000  0.4662120000000  0.5328330000000 1.0
C      1  0.4891380000000  0.4526920000000  0.4916820000000 1.0
C      1  0.4474230000000  0.4975760000000  0.5147000000000 1.0
C      1  0.4924240000000  0.5324530000000  0.5028640000000 1.0
C      1  0.5230780000000  0.5437310000000  0.5357160000000 1.0
C      1  0.4686240000000  0.5091790000000  0.4675010000000 1.0
C      1  0.4491680000000  0.4769240000000  0.4949670000000 1.0
C      1  0.4992270000000  0.5314940000000  0.4563660000000 1.0
END
