TITL C-211919-1659-5 15.2459029442771 125000 -389.158748637524 0 0 56 (C1) n - 1
REM
REM in /rds/project/t2_vol4/rds-t2-cs072/BORA/CARBON/from-Arr/AIRSS/Generating-Clusters/GAP-ML-2020/Only-C1/SD-CG/HFTN-CG
REM
REM
REM
REM
REM
REM ./C.cell (11c1c37f851c82e70ff6c80c92926a4b)
REM AIRSS Version 0.9.1 bugfix July 2018 build 013d7b7c2542+ Fri, 06 Jul 2018 19:26:36 +0100
REM compiler GCC version 9.3.0
REM options -cpp -mtune=generic -march=x86-64 -g -O0
REM seed 1658683900 -1945377112 -225951207 1891094354 375853955 2088348545 498204322 586766785 -289216010 11221146 1195648963 -1224878839 1737044928 -1230376309 -1622891365 -1051877417 1013272393 -1717075086 912464758 -1545857012 -452364999 -41428004 1289458988 -105015961 950414375 -587989356 432279390 430928287 -1327525327 1063579456 -1125056731 1074773375 1933234952
REM
CELL 1.54180   50.00000   50.00000   50.00000   90.00000   90.00000   90.00000
LATT -1
SFAC C  
C      1  0.5104300000000  0.4516570000000  0.4535700000000 1.0
C      1  0.4326990000000  0.4598450000000  0.5370000000000 1.0
C      1  0.4611950000000  0.4588760000000  0.5380500000000 1.0
C      1  0.5466050000000  0.4992730000000  0.5494260000000 1.0
C      1  0.4772550000000  0.4755460000000  0.5553960000000 1.0
C      1  0.5154270000000  0.5654070000000  0.4946990000000 1.0
C      1  0.5547880000000  0.4550010000000  0.4913910000000 1.0
C      1  0.4562270000000  0.5207560000000  0.5498080000000 1.0
C      1  0.4614530000000  0.5220510000000  0.5060380000000 1.0
C      1  0.4740290000000  0.4971440000000  0.5004820000000 1.0
C      1  0.5320790000000  0.5434040000000  0.5408870000000 1.0
C      1  0.4482770000000  0.4803970000000  0.4919020000000 1.0
C      1  0.5063890000000  0.4710900000000  0.4333290000000 1.0
C      1  0.4535700000000  0.5115300000000  0.4548920000000 1.0
C      1  0.5054460000000  0.5245640000000  0.5132850000000 1.0
C      1  0.4582020000000  0.4614900000000  0.4504420000000 1.0
C      1  0.4860130000000  0.5625750000000  0.4956380000000 1.0
C      1  0.5299770000000  0.5430620000000  0.5101550000000 1.0
C      1  0.5614340000000  0.5009580000000  0.5009940000000 1.0
C      1  0.5014630000000  0.5003980000000  0.4985030000000 1.0
C      1  0.4800120000000  0.4424050000000  0.4923870000000 1.0
C      1  0.4806750000000  0.4445110000000  0.5210170000000 1.0
C      1  0.4382500000000  0.4818180000000  0.5205660000000 1.0
C      1  0.4842380000000  0.5555570000000  0.4670030000000 1.0
C      1  0.5536500000000  0.4590740000000  0.5202280000000 1.0
C      1  0.5315160000000  0.4676200000000  0.4443030000000 1.0
C      1  0.5510570000000  0.5265140000000  0.5503670000000 1.0
C      1  0.4623100000000  0.4875710000000  0.4411180000000 1.0
C      1  0.5306640000000  0.4378590000000  0.4930130000000 1.0
C      1  0.5524960000000  0.5328570000000  0.4670000000000 1.0
C      1  0.5317490000000  0.5485860000000  0.4534950000000 1.0
C      1  0.5023610000000  0.5126730000000  0.5653210000000 1.0
C      1  0.5208580000000  0.4913190000000  0.5601930000000 1.0
C      1  0.5084850000000  0.5400480000000  0.5594500000000 1.0
C      1  0.4586480000000  0.4567510000000  0.4775190000000 1.0
C      1  0.5578030000000  0.4863280000000  0.5260540000000 1.0
C      1  0.5045050000000  0.4682600000000  0.5539830000000 1.0
C      1  0.5481410000000  0.5120010000000  0.4468300000000 1.0
C      1  0.5062440000000  0.4471870000000  0.5346180000000 1.0
C      1  0.5303720000000  0.4417090000000  0.5219010000000 1.0
C      1  0.5613270000000  0.4802580000000  0.4800190000000 1.0
C      1  0.4882350000000  0.4924160000000  0.4300750000000 1.0
C      1  0.4390030000000  0.5101910000000  0.5267790000000 1.0
C      1  0.4751040000000  0.5032730000000  0.5612320000000 1.0
C      1  0.4757820000000  0.5321120000000  0.4514600000000 1.0
C      1  0.5514470000000  0.4854410000000  0.4538100000000 1.0
C      1  0.5528750000000  0.5281400000000  0.4948510000000 1.0
C      1  0.4371190000000  0.5049630000000  0.4779560000000 1.0
C      1  0.5131310000000  0.5634590000000  0.4664350000000 1.0
C      1  0.4341150000000  0.5219550000000  0.5004340000000 1.0
C      1  0.5243470000000  0.5263380000000  0.4365750000000 1.0
C      1  0.4963660000000  0.5194070000000  0.4351080000000 1.0
C      1  0.4711920000000  0.5463020000000  0.5444670000000 1.0
C      1  0.4875180000000  0.5578970000000  0.5634950000000 1.0
C      1  0.4797780000000  0.5423180000000  0.5160720000000 1.0
C      1  0.5056690000000  0.4398570000000  0.4789770000000 1.0
END
