TITL C-214947-2292-1 -0.00876550271212094 125000 -585.349279561955 0 0 84 (C1) n - 1
REM
REM in /rds/project/t2_vol4/rds-t2-cs072/BORA/CARBON/from-Arr/AIRSS/Generating-Clusters/GAP-ML-2020/Only-C1/SD-CG/HFTN-CG
REM
REM
REM
REM
REM
REM ./C.cell (11c1c37f851c82e70ff6c80c92926a4b)
REM AIRSS Version 0.9.1 bugfix July 2018 build 013d7b7c2542+ Fri, 06 Jul 2018 19:26:36 +0100
REM compiler GCC version 9.3.0
REM options -cpp -mtune=generic -march=x86-64 -g -O0
REM seed 1323872879 -903349345 -818599512 -971934734 -875706472 1586490132 -1960155326 1544821997 -34707765 -1450941009 -1139391243 -1617218354 -1512904262 -1128044352 1703362472 2030082130 -466745767 1251989808 -548155145 2083024946 627705964 7784198 742265979 -1407451510 -285768940 -1702860166 -1110681926 -92671982 2055985708 1159005049 -833158024 803988663 978862702
REM
CELL 1.54180   50.00000   50.00000   50.00000   90.00000   90.00000   90.00000
LATT -1
SFAC C  
C      1  0.5274740000000  0.5606570000000  0.5484530000000 1.0
C      1  0.5240250000000  0.4237120000000  0.4936330000000 1.0
C      1  0.5218780000000  0.5612370000000  0.4554360000000 1.0
C      1  0.4541400000000  0.5379140000000  0.4463200000000 1.0
C      1  0.4802390000000  0.4589760000000  0.4392530000000 1.0
C      1  0.4757790000000  0.5568350000000  0.4493230000000 1.0
C      1  0.4657720000000  0.5664920000000  0.4754480000000 1.0
C      1  0.4648330000000  0.5284150000000  0.5124140000000 1.0
C      1  0.4530240000000  0.4649550000000  0.4395230000000 1.0
C      1  0.5108860000000  0.4591540000000  0.5615370000000 1.0
C      1  0.5370430000000  0.4419370000000  0.4581050000000 1.0
C      1  0.4599950000000  0.5479720000000  0.5515810000000 1.0
C      1  0.5491800000000  0.5459670000000  0.5358660000000 1.0
C      1  0.4769860000000  0.5735830000000  0.5003250000000 1.0
C      1  0.5203190000000  0.5090670000000  0.5269710000000 1.0
C      1  0.5196010000000  0.4725540000000  0.4972530000000 1.0
C      1  0.4848720000000  0.4407830000000  0.4619550000000 1.0
C      1  0.5107700000000  0.4312120000000  0.4681740000000 1.0
C      1  0.4982350000000  0.5097980000000  0.5730480000000 1.0
C      1  0.4654690000000  0.4755310000000  0.5672760000000 1.0
C      1  0.5222380000000  0.4963430000000  0.4813430000000 1.0
C      1  0.5568400000000  0.4595610000000  0.5459870000000 1.0
C      1  0.4540070000000  0.5019940000000  0.5590930000000 1.0
C      1  0.5239650000000  0.4281220000000  0.5228680000000 1.0
C      1  0.5702840000000  0.5072100000000  0.4570050000000 1.0
C      1  0.5495780000000  0.4327070000000  0.4826360000000 1.0
C      1  0.5746880000000  0.4775570000000  0.5321100000000 1.0
C      1  0.4282210000000  0.4871130000000  0.4632370000000 1.0
C      1  0.5607720000000  0.5450890000000  0.5099340000000 1.0
C      1  0.5034540000000  0.4368030000000  0.5417510000000 1.0
C      1  0.4855950000000  0.5065840000000  0.4232370000000 1.0
C      1  0.5444110000000  0.5178890000000  0.5458030000000 1.0
C      1  0.5063570000000  0.5259130000000  0.4254850000000 1.0
C      1  0.5523540000000  0.5238130000000  0.4434580000000 1.0
C      1  0.4928200000000  0.4802730000000  0.5725130000000 1.0
C      1  0.5056210000000  0.5590220000000  0.5279320000000 1.0
C      1  0.4135940000000  0.5092120000000  0.5299480000000 1.0
C      1  0.5653480000000  0.4404870000000  0.5044850000000 1.0
C      1  0.5678990000000  0.4783220000000  0.4564320000000 1.0
C      1  0.5814560000000  0.4787080000000  0.4826310000000 1.0
C      1  0.5251370000000  0.5509790000000  0.5746250000000 1.0
C      1  0.4589450000000  0.4527980000000  0.5518390000000 1.0
C      1  0.4332300000000  0.5409290000000  0.5464310000000 1.0
C      1  0.4646380000000  0.5038440000000  0.5298850000000 1.0
C      1  0.4577360000000  0.4366560000000  0.5119330000000 1.0
C      1  0.4201280000000  0.5359580000000  0.5207730000000 1.0
C      1  0.4756090000000  0.4347300000000  0.5360330000000 1.0
C      1  0.5104780000000  0.5328070000000  0.5146440000000 1.0
C      1  0.4900310000000  0.5274390000000  0.4968060000000 1.0
C      1  0.5013010000000  0.5508120000000  0.4393300000000 1.0
C      1  0.5310690000000  0.5118010000000  0.4283470000000 1.0
C      1  0.4275760000000  0.5136360000000  0.5549690000000 1.0
C      1  0.5756860000000  0.5206610000000  0.5091740000000 1.0
C      1  0.4971980000000  0.5089030000000  0.4777320000000 1.0
C      1  0.4738050000000  0.5566480000000  0.5271720000000 1.0
C      1  0.5803220000000  0.4645910000000  0.5064800000000 1.0
C      1  0.4584620000000  0.5134970000000  0.4310380000000 1.0
C      1  0.5340720000000  0.4938080000000  0.5064970000000 1.0
C      1  0.4437330000000  0.4562640000000  0.5277610000000 1.0
C      1  0.4973510000000  0.4801660000000  0.4271210000000 1.0
C      1  0.4370050000000  0.5308960000000  0.4953840000000 1.0
C      1  0.5260020000000  0.4833530000000  0.4295900000000 1.0
C      1  0.5812510000000  0.5076850000000  0.4841840000000 1.0
C      1  0.5237850000000  0.5711090000000  0.4828820000000 1.0
C      1  0.5245540000000  0.5234550000000  0.5713110000000 1.0
C      1  0.4236840000000  0.5043220000000  0.4847060000000 1.0
C      1  0.4936370000000  0.4735180000000  0.5094210000000 1.0
C      1  0.4439310000000  0.5474550000000  0.4722600000000 1.0
C      1  0.5049750000000  0.5761600000000  0.5031820000000 1.0
C      1  0.4421910000000  0.4913260000000  0.4378780000000 1.0
C      1  0.4409060000000  0.4598890000000  0.4650800000000 1.0
C      1  0.4621680000000  0.4469610000000  0.4823180000000 1.0
C      1  0.4762110000000  0.4933300000000  0.4719200000000 1.0
C      1  0.4928760000000  0.4937400000000  0.5285120000000 1.0
C      1  0.5451720000000  0.4655490000000  0.4436430000000 1.0
C      1  0.5702800000000  0.5051170000000  0.5334020000000 1.0
C      1  0.5502890000000  0.4374790000000  0.5284020000000 1.0
C      1  0.4692450000000  0.4749430000000  0.4928620000000 1.0
C      1  0.5362750000000  0.4677370000000  0.5609580000000 1.0
C      1  0.5465820000000  0.5469880000000  0.4585720000000 1.0
C      1  0.5489420000000  0.5560610000000  0.4863110000000 1.0
C      1  0.4216610000000  0.4915320000000  0.5097430000000 1.0
C      1  0.4732980000000  0.5231940000000  0.5645140000000 1.0
C      1  0.4485500000000  0.4818010000000  0.5145950000000 1.0
END
