TITL C-21780-1963-4 -125.306918499645 125000 -591.630398334774 0 0 85 (C1) n - 1
REM
REM in /rds/project/t2_vol4/rds-t2-cs072/BORA/CARBON/from-Arr/AIRSS/Generating-Clusters/GAP-ML-2020/Only-C1/SD-CG/HFTN-CG
REM
REM
REM
REM
REM
REM ./C.cell (11c1c37f851c82e70ff6c80c92926a4b)
REM AIRSS Version 0.9.1 bugfix July 2018 build 013d7b7c2542+ Fri, 06 Jul 2018 19:26:36 +0100
REM compiler GCC version 9.3.0
REM options -cpp -mtune=generic -march=x86-64 -g -O0
REM seed -1192878999 1080098379 -1861710328 -1431806610 -1072949180 977297699 -1173398359 -227581808 1804827564 -1324400015 2121285933 1826072673 -555712751 1241520220 -904127000 988558362 618156028 440652089 -2056741823 -492477220 -446827749 -985121566 988021324 933528661 -254488125 -1850446628 -2070768219 156881554 1043104701 -752828607 -1060561352 1770332624 -1781747554
REM
CELL 1.54180   50.00000   50.00000   50.00000   90.00000   90.00000   90.00000
LATT -1
SFAC C  
C      1  0.4346790000000  0.5074230000000  0.4660020000000 1.0
C      1  0.4627750000000  0.5423940000000  0.4331760000000 1.0
C      1  0.4966120000000  0.5492530000000  0.4611820000000 1.0
C      1  0.4345000000000  0.5279910000000  0.5432090000000 1.0
C      1  0.4908200000000  0.5841390000000  0.4992040000000 1.0
C      1  0.4487750000000  0.5664370000000  0.5078600000000 1.0
C      1  0.4212010000000  0.5294410000000  0.5179690000000 1.0
C      1  0.4502700000000  0.4315960000000  0.4726560000000 1.0
C      1  0.4761990000000  0.4230820000000  0.4693620000000 1.0
C      1  0.4829750000000  0.4741560000000  0.5301520000000 1.0
C      1  0.5467500000000  0.4997440000000  0.4377490000000 1.0
C      1  0.5753770000000  0.4703280000000  0.5142960000000 1.0
C      1  0.5072730000000  0.4449640000000  0.5575820000000 1.0
C      1  0.4921810000000  0.5723250000000  0.5273380000000 1.0
C      1  0.4321610000000  0.5354190000000  0.4711100000000 1.0
C      1  0.4533950000000  0.4978330000000  0.4451020000000 1.0
C      1  0.5317950000000  0.5313740000000  0.5345050000000 1.0
C      1  0.5550720000000  0.4504530000000  0.5227950000000 1.0
C      1  0.5283130000000  0.5293250000000  0.5639940000000 1.0
C      1  0.5539350000000  0.5122950000000  0.5675840000000 1.0
C      1  0.5597700000000  0.5365040000000  0.5281130000000 1.0
C      1  0.5025490000000  0.5132420000000  0.5708650000000 1.0
C      1  0.4832380000000  0.4432320000000  0.5395290000000 1.0
C      1  0.5705140000000  0.5149550000000  0.5436650000000 1.0
C      1  0.5132790000000  0.5782820000000  0.4826060000000 1.0
C      1  0.4587580000000  0.5401180000000  0.5484110000000 1.0
C      1  0.4352810000000  0.4387630000000  0.4971700000000 1.0
C      1  0.4418740000000  0.4549230000000  0.4588340000000 1.0
C      1  0.5051630000000  0.4739160000000  0.4894070000000 1.0
C      1  0.4935990000000  0.5214530000000  0.5213820000000 1.0
C      1  0.4372870000000  0.4988500000000  0.5397680000000 1.0
C      1  0.4808950000000  0.4812380000000  0.4991910000000 1.0
C      1  0.5416740000000  0.4513030000000  0.4522270000000 1.0
C      1  0.4945220000000  0.4356920000000  0.4516550000000 1.0
C      1  0.4272930000000  0.4630630000000  0.4824270000000 1.0
C      1  0.5424860000000  0.5402280000000  0.4822060000000 1.0
C      1  0.5058220000000  0.4788510000000  0.4310810000000 1.0
C      1  0.4649480000000  0.4928200000000  0.5452980000000 1.0
C      1  0.5120250000000  0.5496050000000  0.5204480000000 1.0
C      1  0.5334690000000  0.4738890000000  0.4363980000000 1.0
C      1  0.4718940000000  0.5158300000000  0.4321710000000 1.0
C      1  0.4833130000000  0.4135020000000  0.4946870000000 1.0
C      1  0.4859460000000  0.4596560000000  0.4382760000000 1.0
C      1  0.5829800000000  0.5132720000000  0.4980640000000 1.0
C      1  0.5812650000000  0.4976530000000  0.5228030000000 1.0
C      1  0.5609080000000  0.4508110000000  0.4745210000000 1.0
C      1  0.5108120000000  0.4630500000000  0.5801590000000 1.0
C      1  0.5241820000000  0.5601960000000  0.5675870000000 1.0
C      1  0.5337110000000  0.5458750000000  0.4525990000000 1.0
C      1  0.5008230000000  0.5074030000000  0.4299660000000 1.0
C      1  0.5781760000000  0.4700660000000  0.4855880000000 1.0
C      1  0.5095880000000  0.4114580000000  0.5031340000000 1.0
C      1  0.5191060000000  0.5049650000000  0.5219240000000 1.0
C      1  0.4547610000000  0.4322460000000  0.5425000000000 1.0
C      1  0.5503620000000  0.4363400000000  0.4971610000000 1.0
C      1  0.4796120000000  0.5636940000000  0.4436150000000 1.0
C      1  0.4303050000000  0.5466380000000  0.4980570000000 1.0
C      1  0.5236730000000  0.5160960000000  0.4822190000000 1.0
C      1  0.5520780000000  0.4896620000000  0.5831320000000 1.0
C      1  0.5699830000000  0.5032430000000  0.4512520000000 1.0
C      1  0.4218220000000  0.5006720000000  0.5139760000000 1.0
C      1  0.5290430000000  0.4214560000000  0.4859260000000 1.0
C      1  0.4638040000000  0.5630100000000  0.5318470000000 1.0
C      1  0.4376870000000  0.4300570000000  0.5235890000000 1.0
C      1  0.5817660000000  0.4963420000000  0.4745490000000 1.0
C      1  0.5219660000000  0.4323020000000  0.4593960000000 1.0
C      1  0.4596000000000  0.5746390000000  0.4611700000000 1.0
C      1  0.5325700000000  0.4583080000000  0.5441000000000 1.0
C      1  0.5269100000000  0.5211770000000  0.4354050000000 1.0
C      1  0.5129140000000  0.4811600000000  0.5362490000000 1.0
C      1  0.4244850000000  0.4902600000000  0.4871520000000 1.0
C      1  0.4594720000000  0.4702880000000  0.4439120000000 1.0
C      1  0.4899700000000  0.4216820000000  0.5201810000000 1.0
C      1  0.4431290000000  0.5521780000000  0.4518770000000 1.0
C      1  0.5033060000000  0.4895030000000  0.5837850000000 1.0
C      1  0.5253470000000  0.4923650000000  0.4961950000000 1.0
C      1  0.4648190000000  0.5801080000000  0.4884710000000 1.0
C      1  0.5279590000000  0.5606020000000  0.4983920000000 1.0
C      1  0.4805120000000  0.5181980000000  0.5501490000000 1.0
C      1  0.5391590000000  0.4682240000000  0.5725000000000 1.0
C      1  0.5167140000000  0.5680910000000  0.4559600000000 1.0
C      1  0.5665320000000  0.5359060000000  0.5001120000000 1.0
C      1  0.5111850000000  0.5749770000000  0.5504110000000 1.0
C      1  0.4966120000000  0.5236320000000  0.4758740000000 1.0
C      1  0.4797410000000  0.5123060000000  0.4958990000000 1.0
END
