TITL C-21701-8249-3 89.7543081727349 125000 -338.08033984672 0 0 51 (C1) n - 1
REM
REM in /rds/project/t2_vol4/rds-t2-cs072/BORA/CARBON/from-Arr/AIRSS/Generating-Clusters/GAP-ML-2020/Only-C1/SD-CG/HFTN-CG
REM
REM
REM
REM
REM
REM ./C.cell (11c1c37f851c82e70ff6c80c92926a4b)
REM AIRSS Version 0.9.1 bugfix July 2018 build 013d7b7c2542+ Fri, 06 Jul 2018 19:26:36 +0100
REM compiler GCC version 9.3.0
REM options -cpp -mtune=generic -march=x86-64 -g -O0
REM seed 1493772391 -75897660 -1999715724 864289668 2109402288 1135022554 -1294206427 2050570109 1505159496 -1111049032 645532971 -1944225915 1707101520 1123458037 1013963645 1669576991 -1112623560 -1544689886 818258436 397584082 -1599505120 -858821596 -1358869244 383120951 -764465522 -1774959705 -376435623 -545749859 -1147610118 -1450471827 -1404536029 620881646 -1894901105
REM
CELL 1.54180   50.00000   50.00000   50.00000   90.00000   90.00000   90.00000
LATT -1
SFAC C  
C      1  0.4812540000000  0.4728900000000  0.4455330000000 1.0
C      1  0.4731780000000  0.5395870000000  0.4836010000000 1.0
C      1  0.4773080000000  0.4445880000000  0.5583880000000 1.0
C      1  0.4812570000000  0.5121760000000  0.5565870000000 1.0
C      1  0.5186390000000  0.4736630000000  0.5109660000000 1.0
C      1  0.5032950000000  0.4508840000000  0.5517970000000 1.0
C      1  0.4593160000000  0.4600480000000  0.5437410000000 1.0
C      1  0.5192220000000  0.5329830000000  0.4546420000000 1.0
C      1  0.5467260000000  0.5090670000000  0.5265090000000 1.0
C      1  0.4714890000000  0.5347540000000  0.5353030000000 1.0
C      1  0.5167660000000  0.4978700000000  0.4922390000000 1.0
C      1  0.5313700000000  0.4487610000000  0.4740170000000 1.0
C      1  0.4843820000000  0.5607320000000  0.5335170000000 1.0
C      1  0.4711570000000  0.4649140000000  0.4717060000000 1.0
C      1  0.5480780000000  0.4792990000000  0.5225880000000 1.0
C      1  0.5318290000000  0.4728000000000  0.4582120000000 1.0
C      1  0.5118150000000  0.5656690000000  0.5216200000000 1.0
C      1  0.5114580000000  0.5521950000000  0.4759910000000 1.0
C      1  0.5234480000000  0.5445650000000  0.5028280000000 1.0
C      1  0.4373900000000  0.5002500000000  0.5299100000000 1.0
C      1  0.4890080000000  0.5748750000000  0.5097960000000 1.0
C      1  0.5119690000000  0.4509050000000  0.4947120000000 1.0
C      1  0.4522310000000  0.5018110000000  0.4594750000000 1.0
C      1  0.4782420000000  0.5200490000000  0.4322310000000 1.0
C      1  0.5472430000000  0.4606470000000  0.5449940000000 1.0
C      1  0.4740510000000  0.4700450000000  0.5188390000000 1.0
C      1  0.5471170000000  0.5297600000000  0.4557600000000 1.0
C      1  0.5505790000000  0.5288660000000  0.5058410000000 1.0
C      1  0.4640760000000  0.4936640000000  0.4345000000000 1.0
C      1  0.4586970000000  0.4947310000000  0.5088380000000 1.0
C      1  0.5088280000000  0.4842420000000  0.4456060000000 1.0
C      1  0.5302930000000  0.4471590000000  0.5590100000000 1.0
C      1  0.5081360000000  0.5196590000000  0.5104530000000 1.0
C      1  0.5555070000000  0.4472420000000  0.4869790000000 1.0
C      1  0.5458560000000  0.4913390000000  0.4780360000000 1.0
C      1  0.5033820000000  0.5059930000000  0.4668470000000 1.0
C      1  0.5567970000000  0.5192170000000  0.4788940000000 1.0
C      1  0.4999200000000  0.4747410000000  0.5334740000000 1.0
C      1  0.5594560000000  0.4720440000000  0.4963970000000 1.0
C      1  0.4867570000000  0.5636380000000  0.4836120000000 1.0
C      1  0.5217320000000  0.5144820000000  0.5372350000000 1.0
C      1  0.4748130000000  0.5206620000000  0.4621990000000 1.0
C      1  0.4423230000000  0.4809880000000  0.5519790000000 1.0
C      1  0.4520260000000  0.4848550000000  0.4809930000000 1.0
C      1  0.4771080000000  0.5224100000000  0.5082250000000 1.0
C      1  0.4557060000000  0.5043180000000  0.5658260000000 1.0
C      1  0.4840280000000  0.4546310000000  0.4943950000000 1.0
C      1  0.4448720000000  0.5233440000000  0.5451370000000 1.0
C      1  0.5117260000000  0.5012400000000  0.4219580000000 1.0
C      1  0.5033590000000  0.4981520000000  0.5502350000000 1.0
C      1  0.5047880000000  0.5265970000000  0.4278280000000 1.0
END
