TITL C-21821-6373-10 -0.0493391454707124 125000 -430.366508713598 0 0 63 (C1) n - 1
REM
REM in /rds/project/t2_vol4/rds-t2-cs072/BORA/CARBON/from-Arr/AIRSS/Generating-Clusters/GAP-ML-2020/Only-C1/SD-CG/HFTN-CG
REM
REM
REM
REM
REM
REM ./C.cell (11c1c37f851c82e70ff6c80c92926a4b)
REM AIRSS Version 0.9.1 bugfix July 2018 build 013d7b7c2542+ Fri, 06 Jul 2018 19:26:36 +0100
REM compiler GCC version 9.3.0
REM options -cpp -mtune=generic -march=x86-64 -g -O0
REM seed -1665095201 171185562 1780091373 953424373 -13547003 -604027517 478188476 -1408806777 -232906300 1155745713 -713503540 -1628806623 1866997764 1873186501 -986278795 -662943861 470762186 -1721463688 -1751324365 849294377 -608828246 1737063364 131847510 745293295 1572451273 1397359008 984094635 -1089253335 -1442676072 -1090657643 -1573434506 684663111 1653003185
REM
CELL 1.54180   50.00000   50.00000   50.00000   90.00000   90.00000   90.00000
LATT -1
SFAC C  
C      1  0.4999020000000  0.4772630000000  0.5076170000000 1.0
C      1  0.5275460000000  0.5664240000000  0.4824350000000 1.0
C      1  0.5067830000000  0.4918460000000  0.4318460000000 1.0
C      1  0.4944050000000  0.5363200000000  0.4750470000000 1.0
C      1  0.4880100000000  0.4883100000000  0.5663510000000 1.0
C      1  0.5209140000000  0.4401520000000  0.5318670000000 1.0
C      1  0.5543960000000  0.4751010000000  0.4764680000000 1.0
C      1  0.5169600000000  0.4855110000000  0.5297740000000 1.0
C      1  0.5534220000000  0.5238360000000  0.4950060000000 1.0
C      1  0.4599190000000  0.5551500000000  0.5017620000000 1.0
C      1  0.5589620000000  0.5011700000000  0.5445640000000 1.0
C      1  0.4616280000000  0.5070620000000  0.4984830000000 1.0
C      1  0.4542690000000  0.4584280000000  0.4854070000000 1.0
C      1  0.5334450000000  0.5478960000000  0.4577940000000 1.0
C      1  0.5486460000000  0.4796820000000  0.5287530000000 1.0
C      1  0.4618730000000  0.5297050000000  0.5177360000000 1.0
C      1  0.4775090000000  0.5143380000000  0.5565970000000 1.0
C      1  0.5334760000000  0.4858950000000  0.4409030000000 1.0
C      1  0.5257000000000  0.5191540000000  0.5031220000000 1.0
C      1  0.5385260000000  0.4616910000000  0.4559250000000 1.0
C      1  0.4706740000000  0.4666480000000  0.5578760000000 1.0
C      1  0.4619540000000  0.4849180000000  0.4430800000000 1.0
C      1  0.4844270000000  0.5626170000000  0.4624800000000 1.0
C      1  0.4722450000000  0.4472930000000  0.5357570000000 1.0
C      1  0.5072010000000  0.5406120000000  0.4479710000000 1.0
C      1  0.4343080000000  0.4973550000000  0.5473200000000 1.0
C      1  0.5156350000000  0.5155860000000  0.5309830000000 1.0
C      1  0.4865050000000  0.4714090000000  0.4375670000000 1.0
C      1  0.5326860000000  0.5273550000000  0.5530810000000 1.0
C      1  0.5471630000000  0.5666590000000  0.5027760000000 1.0
C      1  0.4522390000000  0.5180180000000  0.5439610000000 1.0
C      1  0.4492590000000  0.5272890000000  0.4589020000000 1.0
C      1  0.4706360000000  0.4822920000000  0.5117230000000 1.0
C      1  0.5273250000000  0.4634830000000  0.5476080000000 1.0
C      1  0.4936960000000  0.4334260000000  0.5249930000000 1.0
C      1  0.4946610000000  0.5184690000000  0.4330900000000 1.0
C      1  0.4421240000000  0.5057610000000  0.4761830000000 1.0
C      1  0.5513830000000  0.4998110000000  0.4598420000000 1.0
C      1  0.4756270000000  0.4415680000000  0.4772100000000 1.0
C      1  0.5530860000000  0.4653300000000  0.5035900000000 1.0
C      1  0.5362560000000  0.4417160000000  0.5075990000000 1.0
C      1  0.5580340000000  0.5296480000000  0.5385930000000 1.0
C      1  0.5176450000000  0.4827920000000  0.5678720000000 1.0
C      1  0.4467150000000  0.4790170000000  0.4662990000000 1.0
C      1  0.4860540000000  0.5092230000000  0.4791920000000 1.0
C      1  0.4427410000000  0.4739150000000  0.5584850000000 1.0
C      1  0.4929310000000  0.4291580000000  0.4967940000000 1.0
C      1  0.5191000000000  0.4428720000000  0.4612190000000 1.0
C      1  0.4903030000000  0.5306530000000  0.5340910000000 1.0
C      1  0.4981940000000  0.5793170000000  0.4815650000000 1.0
C      1  0.4311420000000  0.4712090000000  0.5334890000000 1.0
C      1  0.5126110000000  0.5438410000000  0.4968920000000 1.0
C      1  0.4990160000000  0.5554220000000  0.5211740000000 1.0
C      1  0.5595380000000  0.5449320000000  0.5141040000000 1.0
C      1  0.5374520000000  0.5032460000000  0.5675060000000 1.0
C      1  0.4598530000000  0.5506590000000  0.4724890000000 1.0
C      1  0.5517460000000  0.5271190000000  0.4662130000000 1.0
C      1  0.4826770000000  0.5734510000000  0.5063880000000 1.0
C      1  0.4919480000000  0.4488550000000  0.4542080000000 1.0
C      1  0.5198200000000  0.4316530000000  0.4871870000000 1.0
C      1  0.5088020000000  0.4970860000000  0.4896990000000 1.0
C      1  0.4663900000000  0.5136750000000  0.4399380000000 1.0
C      1  0.4519020000000  0.4597100000000  0.5155580000000 1.0
END
