TITL C-2114526-3908-23 32.2838654325052 125000 -910.637989313357 0 0 128 (C1) n - 1
REM
REM in /nfs/bkarasulu/CARBON/AIRSS/Generating-Clusters/GAP-ML-2020/Only-C1/SD-CG/HFTN-CG
REM
REM
REM
REM
REM
REM ./C.cell (11c1c37f851c82e70ff6c80c92926a4b)
REM
REM compiler GCC version 9.2.1 20190827 (Red Hat 9.2.1-1)
REM options -cpp -mtune=generic -march=x86-64 -g -O0 -fpre-include=/usr/include/finclude/math-vector-fortran.h
REM seed -1290881478 -523788909 1114779362 1524344093 -313465724 1101178182 -555858631 241951506 -654253936 -352112293 -891869606 209927774 1228497968 -1936810159 -777453757 -879988327 1343682755 -440013226 -563621876 221945330 814367490 -1301160833 949564035 405537882 1551975875 50301445 1056859245 1071578639 -2011122691 -2093287839 -1849093673 1123674056 1192499892
REM
CELL 1.54180   50.00000   50.00000   50.00000   90.00000   90.00000   90.00000
LATT -1
SFAC C  
C      1  0.5368850000000  0.4621140000000  0.5044160000000 1.0
C      1  0.4175110000000  0.5574340000000  0.4843890000000 1.0
C      1  0.4652700000000  0.4824270000000  0.5819920000000 1.0
C      1  0.5750320000000  0.5146080000000  0.4494600000000 1.0
C      1  0.6022720000000  0.4654450000000  0.5273870000000 1.0
C      1  0.5044730000000  0.4357560000000  0.4442970000000 1.0
C      1  0.4468520000000  0.4391440000000  0.4452250000000 1.0
C      1  0.4764320000000  0.5422130000000  0.4980290000000 1.0
C      1  0.5073750000000  0.4133020000000  0.5236150000000 1.0
C      1  0.5742580000000  0.5379100000000  0.5198290000000 1.0
C      1  0.5046090000000  0.5816900000000  0.5031560000000 1.0
C      1  0.5053240000000  0.5786500000000  0.5570650000000 1.0
C      1  0.4630830000000  0.5296030000000  0.4196100000000 1.0
C      1  0.5070270000000  0.4722610000000  0.4124070000000 1.0
C      1  0.4935690000000  0.5042800000000  0.4662000000000 1.0
C      1  0.4332310000000  0.5732000000000  0.4662450000000 1.0
C      1  0.5156680000000  0.4326600000000  0.5421910000000 1.0
C      1  0.5395740000000  0.5069800000000  0.4166120000000 1.0
C      1  0.4502760000000  0.4095020000000  0.4814380000000 1.0
C      1  0.5184620000000  0.5420240000000  0.4753740000000 1.0
C      1  0.5531600000000  0.5027720000000  0.5467440000000 1.0
C      1  0.5438880000000  0.5628330000000  0.5618310000000 1.0
C      1  0.5428380000000  0.5385170000000  0.4873140000000 1.0
C      1  0.4491400000000  0.4828120000000  0.4239900000000 1.0
C      1  0.4364330000000  0.4341790000000  0.5195030000000 1.0
C      1  0.5320150000000  0.5881120000000  0.4671390000000 1.0
C      1  0.4330050000000  0.4293700000000  0.4907070000000 1.0
C      1  0.5113380000000  0.4597210000000  0.5816160000000 1.0
C      1  0.4799430000000  0.5511680000000  0.5848100000000 1.0
C      1  0.5642820000000  0.4468390000000  0.5421770000000 1.0
C      1  0.4624740000000  0.5007990000000  0.5206160000000 1.0
C      1  0.5570010000000  0.4388450000000  0.4451870000000 1.0
C      1  0.4946650000000  0.4970750000000  0.4069250000000 1.0
C      1  0.4577890000000  0.5227220000000  0.5018010000000 1.0
C      1  0.4812460000000  0.5712270000000  0.5439910000000 1.0
C      1  0.4478100000000  0.5097450000000  0.4766040000000 1.0
C      1  0.4520450000000  0.5813270000000  0.5059950000000 1.0
C      1  0.5686930000000  0.5021500000000  0.5730120000000 1.0
C      1  0.4691010000000  0.4416540000000  0.5570550000000 1.0
C      1  0.4900430000000  0.4647860000000  0.5057410000000 1.0
C      1  0.5463180000000  0.4974910000000  0.5897320000000 1.0
C      1  0.5114410000000  0.5431500000000  0.4182520000000 1.0
C      1  0.5169440000000  0.4862280000000  0.4655070000000 1.0
C      1  0.5057670000000  0.5630140000000  0.5811970000000 1.0
C      1  0.4794290000000  0.5703270000000  0.5148770000000 1.0
C      1  0.5041700000000  0.5893660000000  0.4763240000000 1.0
C      1  0.5498150000000  0.5105280000000  0.4897840000000 1.0
C      1  0.4295720000000  0.4604380000000  0.5264580000000 1.0
C      1  0.5166500000000  0.4163220000000  0.4943550000000 1.0
C      1  0.5425650000000  0.5456610000000  0.5169940000000 1.0
C      1  0.5061470000000  0.4913670000000  0.5505760000000 1.0
C      1  0.5381440000000  0.4934340000000  0.4451220000000 1.0
C      1  0.5214560000000  0.5285850000000  0.5284040000000 1.0
C      1  0.5877660000000  0.5223160000000  0.4750690000000 1.0
C      1  0.4676500000000  0.4690730000000  0.4896940000000 1.0
C      1  0.5641780000000  0.5603580000000  0.4820760000000 1.0
C      1  0.5269220000000  0.5191420000000  0.5849400000000 1.0
C      1  0.4254810000000  0.4907420000000  0.4891430000000 1.0
C      1  0.4722610000000  0.4007300000000  0.4963400000000 1.0
C      1  0.5144480000000  0.5173090000000  0.4083720000000 1.0
C      1  0.5376360000000  0.5513740000000  0.4305980000000 1.0
C      1  0.5394560000000  0.5749040000000  0.4441140000000 1.0
C      1  0.4271190000000  0.4906150000000  0.4424010000000 1.0
C      1  0.5106900000000  0.4571920000000  0.4656210000000 1.0
C      1  0.5957460000000  0.4885140000000  0.5408320000000 1.0
C      1  0.4983560000000  0.4416420000000  0.5626430000000 1.0
C      1  0.5313900000000  0.5797690000000  0.5443670000000 1.0
C      1  0.4099100000000  0.5312030000000  0.4769820000000 1.0
C      1  0.5850980000000  0.5454190000000  0.4928080000000 1.0
C      1  0.5487860000000  0.5829630000000  0.4897450000000 1.0
C      1  0.5323360000000  0.5758080000000  0.5140590000000 1.0
C      1  0.4134220000000  0.5190300000000  0.5266100000000 1.0
C      1  0.5618030000000  0.4317830000000  0.4726990000000 1.0
C      1  0.4875510000000  0.4143330000000  0.4549420000000 1.0
C      1  0.4519160000000  0.4636170000000  0.5664150000000 1.0
C      1  0.4439890000000  0.4786320000000  0.5084400000000 1.0
C      1  0.4695130000000  0.4909750000000  0.4706760000000 1.0
C      1  0.4840760000000  0.5497850000000  0.4233900000000 1.0
C      1  0.5669900000000  0.4589430000000  0.5679970000000 1.0
C      1  0.4980590000000  0.5269040000000  0.4864830000000 1.0
C      1  0.4276860000000  0.5645090000000  0.5105110000000 1.0
C      1  0.5369550000000  0.4528400000000  0.5335950000000 1.0
C      1  0.5592310000000  0.4631810000000  0.4317910000000 1.0
C      1  0.4556960000000  0.5088140000000  0.5847060000000 1.0
C      1  0.5124120000000  0.4491990000000  0.4928710000000 1.0
C      1  0.5305570000000  0.5493710000000  0.5831730000000 1.0
C      1  0.4598980000000  0.4165670000000  0.4552290000000 1.0
C      1  0.4776850000000  0.5248740000000  0.5936300000000 1.0
C      1  0.5853330000000  0.4808930000000  0.5668140000000 1.0
C      1  0.4907740000000  0.4906000000000  0.5242630000000 1.0
C      1  0.4789360000000  0.4083940000000  0.5225360000000 1.0
C      1  0.4717520000000  0.5703230000000  0.4400000000000 1.0
C      1  0.4592640000000  0.4246870000000  0.5355980000000 1.0
C      1  0.4084330000000  0.5122450000000  0.4990630000000 1.0
C      1  0.4945080000000  0.4836520000000  0.5822070000000 1.0
C      1  0.5760890000000  0.4764360000000  0.4780900000000 1.0
C      1  0.5776190000000  0.5011710000000  0.4936420000000 1.0
C      1  0.5676450000000  0.4851520000000  0.4513550000000 1.0
C      1  0.4291390000000  0.4737080000000  0.5512180000000 1.0
C      1  0.4218480000000  0.5019510000000  0.5495290000000 1.0
C      1  0.5387220000000  0.4146060000000  0.4741730000000 1.0
C      1  0.5321520000000  0.4231880000000  0.4470330000000 1.0
C      1  0.5664100000000  0.4528850000000  0.4926920000000 1.0
C      1  0.5334680000000  0.4778340000000  0.5496340000000 1.0
C      1  0.5100320000000  0.5092320000000  0.5095070000000 1.0
C      1  0.4948460000000  0.4038840000000  0.4799160000000 1.0
C      1  0.5762980000000  0.5083740000000  0.5258420000000 1.0
C      1  0.5820270000000  0.4491010000000  0.5196280000000 1.0
C      1  0.5293190000000  0.4916600000000  0.4941010000000 1.0
C      1  0.4670990000000  0.5025600000000  0.4128730000000 1.0
C      1  0.5555100000000  0.5271940000000  0.4304140000000 1.0
C      1  0.4203550000000  0.4740640000000  0.4651390000000 1.0
C      1  0.4398900000000  0.5370400000000  0.4343630000000 1.0
C      1  0.4441120000000  0.5631510000000  0.4430320000000 1.0
C      1  0.5391460000000  0.4703290000000  0.5779840000000 1.0
C      1  0.4611890000000  0.4567240000000  0.4274460000000 1.0
C      1  0.4388290000000  0.5451030000000  0.5564430000000 1.0
C      1  0.4638070000000  0.5579000000000  0.5620650000000 1.0
C      1  0.4354030000000  0.5190550000000  0.5679710000000 1.0
C      1  0.4275560000000  0.5189220000000  0.4530550000000 1.0
C      1  0.5250630000000  0.5155870000000  0.5529340000000 1.0
C      1  0.5361730000000  0.4769050000000  0.4182340000000 1.0
C      1  0.4900770000000  0.4522450000000  0.4233060000000 1.0
C      1  0.5010240000000  0.5095070000000  0.5943640000000 1.0
C      1  0.4788920000000  0.5862530000000  0.4632290000000 1.0
C      1  0.4543870000000  0.5874750000000  0.4788690000000 1.0
C      1  0.4286230000000  0.4473640000000  0.4668490000000 1.0
C      1  0.4230760000000  0.5464520000000  0.5323570000000 1.0
END
