TITL C-21834-6251-2 -0.0824032451816173 125000 -154.363585256347 0 0 24 (C1) n - 1
REM
REM in /rds/project/t2_vol4/rds-t2-cs072/BORA/CARBON/from-Arr/AIRSS/Generating-Clusters/GAP-ML-2020/Only-C1/SD-CG/HFTN-CG
REM
REM
REM
REM
REM
REM ./C.cell (11c1c37f851c82e70ff6c80c92926a4b)
REM AIRSS Version 0.9.1 bugfix July 2018 build 013d7b7c2542+ Fri, 06 Jul 2018 19:26:36 +0100
REM compiler GCC version 9.3.0
REM options -cpp -mtune=generic -march=x86-64 -g -O0
REM seed -1528814473 732890813 -2030094987 -185312964 75123614 794560847 -731385594 -1192751515 -1486445583 1492806634 626931489 1791677911 1056466658 -268493456 1762666341 689349937 1505684321 -78738279 1346706825 215151240 1678467536 1175046704 -312411306 -877606658 804148824 1416777846 -937476295 505029904 -631192127 1394270735 -1875754058 -1934976276 -429458781
REM
CELL 1.54180   50.00000   50.00000   50.00000   90.00000   90.00000   90.00000
LATT -1
SFAC C  
C      1  0.5273280000000  0.4816570000000  0.5052340000000 1.0
C      1  0.4902920000000  0.5493500000000  0.4864280000000 1.0
C      1  0.4797310000000  0.5040590000000  0.5389210000000 1.0
C      1  0.5320910000000  0.5179840000000  0.5384240000000 1.0
C      1  0.4713100000000  0.4791730000000  0.5261190000000 1.0
C      1  0.5460550000000  0.5386040000000  0.5040630000000 1.0
C      1  0.5101700000000  0.5386510000000  0.4695930000000 1.0
C      1  0.5346850000000  0.5261080000000  0.4822430000000 1.0
C      1  0.4607320000000  0.5050520000000  0.4550010000000 1.0
C      1  0.5291650000000  0.4908830000000  0.5328250000000 1.0
C      1  0.4658540000000  0.5201050000000  0.5173610000000 1.0
C      1  0.5005110000000  0.4283260000000  0.4615000000000 1.0
C      1  0.4569220000000  0.4936960000000  0.4772880000000 1.0
C      1  0.4909590000000  0.4394480000000  0.5443320000000 1.0
C      1  0.4714320000000  0.5416630000000  0.5015930000000 1.0
C      1  0.4983630000000  0.5297590000000  0.4464780000000 1.0
C      1  0.5370910000000  0.4986700000000  0.4853200000000 1.0
C      1  0.5082430000000  0.5044110000000  0.5450740000000 1.0
C      1  0.4760540000000  0.5196020000000  0.4388960000000 1.0
C      1  0.4901380000000  0.4573400000000  0.5251470000000 1.0
C      1  0.4587190000000  0.4938030000000  0.5041510000000 1.0
C      1  0.5103430000000  0.4590310000000  0.5030260000000 1.0
C      1  0.5059290000000  0.4433430000000  0.4810750000000 1.0
C      1  0.5478830000000  0.5392820000000  0.5299100000000 1.0
END
