TITL C-21777-1989-6 22.8687539662923 125000 -1067.47150125397 0 0 150 (C1) n - 1
REM
REM in /rds/project/t2_vol4/rds-t2-cs072/BORA/CARBON/from-Arr/AIRSS/Generating-Clusters/GAP-ML-2020/Only-C1/SD-CG/HFTN-CG
REM
REM
REM
REM
REM
REM ./C.cell (11c1c37f851c82e70ff6c80c92926a4b)
REM AIRSS Version 0.9.1 bugfix July 2018 build 013d7b7c2542+ Fri, 06 Jul 2018 19:26:36 +0100
REM compiler GCC version 9.3.0
REM options -cpp -mtune=generic -march=x86-64 -g -O0
REM seed -1350246682 -828821612 -1935206330 1671777216 1676722197 -54856359 -1035631354 -167065482 1936134633 1020092431 -1617767822 1766013463 -2134739724 386899059 334871787 32483839 1429063652 1324285213 -901532217 -1262663915 -553199212 1536008429 -1855785857 2054115605 1152202706 166633696 -1812036722 -473822527 535114578 -195639638 -1964667457 -1809695055 -179837427
REM
CELL 1.54180   50.00000   50.00000   50.00000   90.00000   90.00000   90.00000
LATT -1
SFAC C  
C      1  0.5856400000000  0.5168390000000  0.5504260000000 1.0
C      1  0.6047920000000  0.4991240000000  0.5162380000000 1.0
C      1  0.5775630000000  0.4427230000000  0.4913340000000 1.0
C      1  0.5332820000000  0.4090040000000  0.5218400000000 1.0
C      1  0.5651400000000  0.4945840000000  0.4100290000000 1.0
C      1  0.4611820000000  0.5344770000000  0.4889720000000 1.0
C      1  0.5334790000000  0.5526630000000  0.5000100000000 1.0
C      1  0.4701200000000  0.5121830000000  0.5298110000000 1.0
C      1  0.4258420000000  0.5802830000000  0.4759220000000 1.0
C      1  0.4620360000000  0.4027500000000  0.5192700000000 1.0
C      1  0.5061340000000  0.5342980000000  0.4266320000000 1.0
C      1  0.5050840000000  0.4994830000000  0.5617950000000 1.0
C      1  0.5013430000000  0.6023820000000  0.4619250000000 1.0
C      1  0.5110950000000  0.4062930000000  0.5409770000000 1.0
C      1  0.5730440000000  0.5142920000000  0.4546580000000 1.0
C      1  0.4749950000000  0.4913350000000  0.4872980000000 1.0
C      1  0.4098350000000  0.5570320000000  0.4748150000000 1.0
C      1  0.5471160000000  0.5091600000000  0.5814950000000 1.0
C      1  0.4373030000000  0.4586680000000  0.4456890000000 1.0
C      1  0.4582510000000  0.5251600000000  0.4030750000000 1.0
C      1  0.5229770000000  0.4355280000000  0.4206710000000 1.0
C      1  0.4400070000000  0.4197740000000  0.5293170000000 1.0
C      1  0.4927060000000  0.5819680000000  0.4450610000000 1.0
C      1  0.4534130000000  0.5108900000000  0.6060740000000 1.0
C      1  0.4611780000000  0.4625220000000  0.6010730000000 1.0
C      1  0.4832430000000  0.5553490000000  0.5495060000000 1.0
C      1  0.5052510000000  0.4925000000000  0.4899820000000 1.0
C      1  0.5778810000000  0.5449900000000  0.4601940000000 1.0
C      1  0.5208030000000  0.4505270000000  0.5522270000000 1.0
C      1  0.5446100000000  0.5032400000000  0.4683690000000 1.0
C      1  0.4106600000000  0.5095780000000  0.5220920000000 1.0
C      1  0.4698380000000  0.5021110000000  0.4582760000000 1.0
C      1  0.5110020000000  0.5443920000000  0.4805400000000 1.0
C      1  0.4396830000000  0.4635580000000  0.5503450000000 1.0
C      1  0.4053650000000  0.5497770000000  0.5025050000000 1.0
C      1  0.5141430000000  0.5132580000000  0.5362920000000 1.0
C      1  0.5473650000000  0.5280540000000  0.5089070000000 1.0
C      1  0.5136390000000  0.4243040000000  0.5633690000000 1.0
C      1  0.4198710000000  0.4857270000000  0.4770010000000 1.0
C      1  0.5967450000000  0.5391900000000  0.4815810000000 1.0
C      1  0.5193080000000  0.4734210000000  0.5712670000000 1.0
C      1  0.5374580000000  0.5751970000000  0.4508110000000 1.0
C      1  0.4870380000000  0.4512390000000  0.4746700000000 1.0
C      1  0.5609330000000  0.4622360000000  0.5611720000000 1.0
C      1  0.5608540000000  0.5665040000000  0.4642930000000 1.0
C      1  0.4208170000000  0.4567470000000  0.4681530000000 1.0
C      1  0.4265140000000  0.4638250000000  0.5241850000000 1.0
C      1  0.3989910000000  0.5224550000000  0.5009960000000 1.0
C      1  0.4075040000000  0.5324440000000  0.4571720000000 1.0
C      1  0.4604120000000  0.6019530000000  0.4858920000000 1.0
C      1  0.4989800000000  0.5085260000000  0.4467570000000 1.0
C      1  0.5206460000000  0.4471860000000  0.4979720000000 1.0
C      1  0.4876450000000  0.5040230000000  0.6276930000000 1.0
C      1  0.5894180000000  0.4648080000000  0.4762000000000 1.0
C      1  0.4851560000000  0.4507060000000  0.5970710000000 1.0
C      1  0.5078710000000  0.5429120000000  0.5863120000000 1.0
C      1  0.5743210000000  0.5678420000000  0.5166150000000 1.0
C      1  0.4280720000000  0.4890350000000  0.5076480000000 1.0
C      1  0.4687510000000  0.4758860000000  0.4016940000000 1.0
C      1  0.5472620000000  0.4502140000000  0.4155250000000 1.0
C      1  0.4610750000000  0.5300580000000  0.4614060000000 1.0
C      1  0.5977340000000  0.5116230000000  0.4743050000000 1.0
C      1  0.5821090000000  0.4668790000000  0.4478580000000 1.0
C      1  0.4506330000000  0.4975950000000  0.4057080000000 1.0
C      1  0.4476470000000  0.4186550000000  0.4764950000000 1.0
C      1  0.4032580000000  0.5105430000000  0.4752140000000 1.0
C      1  0.4488750000000  0.5912060000000  0.4614440000000 1.0
C      1  0.4295740000000  0.4991600000000  0.4269080000000 1.0
C      1  0.4901030000000  0.5324170000000  0.5268070000000 1.0
C      1  0.4568340000000  0.5073440000000  0.5046630000000 1.0
C      1  0.4812340000000  0.4590660000000  0.5221140000000 1.0
C      1  0.5795090000000  0.4927090000000  0.4343440000000 1.0
C      1  0.5908820000000  0.4898930000000  0.5397810000000 1.0
C      1  0.4385650000000  0.5898780000000  0.5007570000000 1.0
C      1  0.5321800000000  0.4773820000000  0.4559880000000 1.0
C      1  0.4257080000000  0.4381790000000  0.5128570000000 1.0
C      1  0.5182920000000  0.5153720000000  0.5885150000000 1.0
C      1  0.4409350000000  0.5773520000000  0.5262160000000 1.0
C      1  0.5523410000000  0.5192330000000  0.4045460000000 1.0
C      1  0.4702250000000  0.4183410000000  0.5624610000000 1.0
C      1  0.4901330000000  0.4276200000000  0.5800500000000 1.0
C      1  0.5470570000000  0.4380650000000  0.5564310000000 1.0
C      1  0.4335140000000  0.4880610000000  0.5701860000000 1.0
C      1  0.5452310000000  0.4753020000000  0.4040690000000 1.0
C      1  0.5123620000000  0.5588170000000  0.4466580000000 1.0
C      1  0.4869610000000  0.5441640000000  0.4975150000000 1.0
C      1  0.4880540000000  0.6067530000000  0.4868840000000 1.0
C      1  0.5183820000000  0.4879580000000  0.5181800000000 1.0
C      1  0.4821200000000  0.4038000000000  0.5400680000000 1.0
C      1  0.5945640000000  0.5482780000000  0.5089600000000 1.0
C      1  0.4712210000000  0.4497630000000  0.4143610000000 1.0
C      1  0.4867170000000  0.4044700000000  0.4698700000000 1.0
C      1  0.4213690000000  0.5548380000000  0.5270220000000 1.0
C      1  0.4384160000000  0.5405250000000  0.4184850000000 1.0
C      1  0.4995480000000  0.4461660000000  0.4079530000000 1.0
C      1  0.4653100000000  0.5782670000000  0.4426960000000 1.0
C      1  0.5284310000000  0.5980330000000  0.4658550000000 1.0
C      1  0.4653000000000  0.4014110000000  0.4906450000000 1.0
C      1  0.5668650000000  0.4455400000000  0.4357990000000 1.0
C      1  0.5059730000000  0.4963000000000  0.6083940000000 1.0
C      1  0.4416390000000  0.4877760000000  0.4507090000000 1.0
C      1  0.5381630000000  0.5295320000000  0.5364480000000 1.0
C      1  0.5587820000000  0.5681540000000  0.5398460000000 1.0
C      1  0.4944430000000  0.5918720000000  0.5321150000000 1.0
C      1  0.4799190000000  0.5394760000000  0.4153930000000 1.0
C      1  0.5472920000000  0.4848630000000  0.5151750000000 1.0
C      1  0.4685990000000  0.4692420000000  0.5454720000000 1.0
C      1  0.5552950000000  0.4252550000000  0.4521620000000 1.0
C      1  0.5139200000000  0.4861540000000  0.4364660000000 1.0
C      1  0.5138300000000  0.4650370000000  0.4759390000000 1.0
C      1  0.5313330000000  0.5602490000000  0.5318410000000 1.0
C      1  0.5703880000000  0.4690240000000  0.5343390000000 1.0
C      1  0.4718380000000  0.4633610000000  0.4951960000000 1.0
C      1  0.5192950000000  0.4891880000000  0.4060610000000 1.0
C      1  0.4638450000000  0.5126830000000  0.6326010000000 1.0
C      1  0.4457060000000  0.4316880000000  0.5542280000000 1.0
C      1  0.5154710000000  0.5152210000000  0.4719570000000 1.0
C      1  0.5101240000000  0.5715620000000  0.5489590000000 1.0
C      1  0.4205300000000  0.5291380000000  0.5417820000000 1.0
C      1  0.4550280000000  0.5292800000000  0.5840750000000 1.0
C      1  0.5587850000000  0.4247550000000  0.4795610000000 1.0
C      1  0.6025020000000  0.4885560000000  0.4890110000000 1.0
C      1  0.4567060000000  0.4404590000000  0.4363470000000 1.0
C      1  0.5151220000000  0.4074490000000  0.4682020000000 1.0
C      1  0.5283290000000  0.4183050000000  0.4446470000000 1.0
C      1  0.5253900000000  0.5617420000000  0.5727260000000 1.0
C      1  0.4339820000000  0.5177230000000  0.5649900000000 1.0
C      1  0.5532160000000  0.5039720000000  0.4963660000000 1.0
C      1  0.5996080000000  0.5259610000000  0.5264340000000 1.0
C      1  0.4603860000000  0.5503070000000  0.4362470000000 1.0
C      1  0.4182290000000  0.5254130000000  0.4312260000000 1.0
C      1  0.5098820000000  0.4591830000000  0.5236510000000 1.0
C      1  0.5471440000000  0.4817050000000  0.5758620000000 1.0
C      1  0.4974220000000  0.4729950000000  0.3957870000000 1.0
C      1  0.5064720000000  0.4700800000000  0.5973350000000 1.0
C      1  0.5542360000000  0.5574160000000  0.5663540000000 1.0
C      1  0.5318790000000  0.4182980000000  0.4926560000000 1.0
C      1  0.5728810000000  0.4428720000000  0.5197720000000 1.0
C      1  0.5553670000000  0.4242610000000  0.5330830000000 1.0
C      1  0.5606370000000  0.5278850000000  0.5638380000000 1.0
C      1  0.4792470000000  0.5440430000000  0.5772400000000 1.0
C      1  0.5546080000000  0.5738410000000  0.4938860000000 1.0
C      1  0.4711460000000  0.4287300000000  0.4592240000000 1.0
C      1  0.4262180000000  0.4347260000000  0.4847610000000 1.0
C      1  0.4682540000000  0.5789090000000  0.5369820000000 1.0
C      1  0.5335820000000  0.5966020000000  0.4937010000000 1.0
C      1  0.4471030000000  0.4846690000000  0.5951460000000 1.0
C      1  0.5069690000000  0.6015520000000  0.5077610000000 1.0
C      1  0.5256360000000  0.5196800000000  0.4076230000000 1.0
C      1  0.4767740000000  0.4950120000000  0.5526550000000 1.0
END
