TITL C-216148-3349-9 -12.4881807989936 125000 -364.184013788789 0 0 54 (C1) n - 1
REM
REM in /rds/project/t2_vol4/rds-t2-cs072/BORA/CARBON/from-Arr/AIRSS/Generating-Clusters/GAP-ML-2020/Only-C1/SD-CG/HFTN-CG
REM
REM
REM
REM
REM
REM ./C.cell (11c1c37f851c82e70ff6c80c92926a4b)
REM AIRSS Version 0.9.1 bugfix July 2018 build 013d7b7c2542+ Fri, 06 Jul 2018 19:26:36 +0100
REM compiler GCC version 9.3.0
REM options -cpp -mtune=generic -march=x86-64 -g -O0
REM seed -1104953771 -1405149289 -580776084 862996302 503666677 982218414 1041272602 -1974596515 -655703852 -2053766594 833011729 2136646398 -1288444456 1174907534 -1177863109 -347015483 702713976 494471616 -1573955633 -1134663870 333552955 -952746152 -2042019410 -272649358 427429794 -1397381590 -1304935414 -2096774264 308200942 -847749650 1410386556 -1234709094 482430163
REM
CELL 1.54180   50.00000   50.00000   50.00000   90.00000   90.00000   90.00000
LATT -1
SFAC C  
C      1  0.4449230000000  0.5428560000000  0.5131330000000 1.0
C      1  0.4725180000000  0.5159670000000  0.5545210000000 1.0
C      1  0.4614380000000  0.5477330000000  0.4664680000000 1.0
C      1  0.5511810000000  0.5097130000000  0.5246090000000 1.0
C      1  0.5519690000000  0.5261720000000  0.4568290000000 1.0
C      1  0.4861220000000  0.4930670000000  0.5077340000000 1.0
C      1  0.4802400000000  0.5421090000000  0.5455400000000 1.0
C      1  0.5271220000000  0.5240890000000  0.5115150000000 1.0
C      1  0.4843500000000  0.4380750000000  0.5054080000000 1.0
C      1  0.4548460000000  0.5003090000000  0.5376050000000 1.0
C      1  0.4686070000000  0.5285370000000  0.4461390000000 1.0
C      1  0.5257400000000  0.4773320000000  0.5107850000000 1.0
C      1  0.4418880000000  0.5387900000000  0.4846310000000 1.0
C      1  0.4674340000000  0.4778020000000  0.5255190000000 1.0
C      1  0.4852520000000  0.5680690000000  0.5022600000000 1.0
C      1  0.4850370000000  0.5608520000000  0.4746100000000 1.0
C      1  0.4403630000000  0.5147950000000  0.5182010000000 1.0
C      1  0.4533590000000  0.5064320000000  0.4461250000000 1.0
C      1  0.5400490000000  0.5036450000000  0.5516770000000 1.0
C      1  0.4560650000000  0.4657970000000  0.4698360000000 1.0
C      1  0.4767700000000  0.4502620000000  0.4594810000000 1.0
C      1  0.5090180000000  0.5437510000000  0.5494400000000 1.0
C      1  0.5354490000000  0.4384790000000  0.4956230000000 1.0
C      1  0.5114380000000  0.5231460000000  0.4846540000000 1.0
C      1  0.4956430000000  0.5043410000000  0.5682110000000 1.0
C      1  0.5041820000000  0.4426240000000  0.4612900000000 1.0
C      1  0.4462150000000  0.4926060000000  0.4687470000000 1.0
C      1  0.5043990000000  0.4775370000000  0.5676870000000 1.0
C      1  0.4843100000000  0.5188480000000  0.4949550000000 1.0
C      1  0.5081300000000  0.4321270000000  0.4884630000000 1.0
C      1  0.5596870000000  0.4805160000000  0.4802760000000 1.0
C      1  0.4368230000000  0.5103990000000  0.4891880000000 1.0
C      1  0.5530590000000  0.4982560000000  0.4573410000000 1.0
C      1  0.5059460000000  0.5001290000000  0.4426780000000 1.0
C      1  0.5085700000000  0.4979150000000  0.4712600000000 1.0
C      1  0.4677420000000  0.5552560000000  0.5224400000000 1.0
C      1  0.5533720000000  0.4873590000000  0.5069210000000 1.0
C      1  0.5332080000000  0.4774870000000  0.5607930000000 1.0
C      1  0.4813670000000  0.4528880000000  0.5300280000000 1.0
C      1  0.5104660000000  0.4996290000000  0.5238040000000 1.0
C      1  0.5296890000000  0.4844840000000  0.4432560000000 1.0
C      1  0.5189280000000  0.5208290000000  0.5627790000000 1.0
C      1  0.5284540000000  0.4569860000000  0.4526740000000 1.0
C      1  0.4956970000000  0.5265790000000  0.4418080000000 1.0
C      1  0.5376820000000  0.5476870000000  0.4573870000000 1.0
C      1  0.5046950000000  0.4769470000000  0.4900340000000 1.0
C      1  0.4996710000000  0.4537820000000  0.5516340000000 1.0
C      1  0.5301090000000  0.4521040000000  0.5466790000000 1.0
C      1  0.5468790000000  0.4543260000000  0.4741010000000 1.0
C      1  0.5218900000000  0.5498780000000  0.5250300000000 1.0
C      1  0.4647930000000  0.4446910000000  0.4851910000000 1.0
C      1  0.5088490000000  0.5446950000000  0.4632800000000 1.0
C      1  0.5110140000000  0.5689690000000  0.5095860000000 1.0
C      1  0.5373540000000  0.4523500000000  0.5201340000000 1.0
END
