TITL C-21911-1882-1 0.020589044743775 125000 -60.9815658028471 0 0 10 (C1) n - 1
REM
REM in /rds/project/t2_vol4/rds-t2-cs072/BORA/CARBON/from-Arr/AIRSS/Generating-Clusters/GAP-ML-2020/Only-C1/SD-CG/HFTN-CG
REM
REM
REM
REM
REM
REM ./C.cell (11c1c37f851c82e70ff6c80c92926a4b)
REM AIRSS Version 0.9.1 bugfix July 2018 build 013d7b7c2542+ Fri, 06 Jul 2018 19:26:36 +0100
REM compiler GCC version 9.3.0
REM options -cpp -mtune=generic -march=x86-64 -g -O0
REM seed -977659248 -181962398 -826061373 1500301029 -1039153033 642719701 684321779 1172269767 2085344261 1093296686 1388070085 -1266091832 600874727 2042077222 198417244 243438245 -1182106904 -1613147991 1582632226 -1949914664 940744866 628149353 840475208 -1340048103 -1529697260 -624200631 666128657 -351404448 1933265883 -238563605 -1269401750 1957173438 1684545451
REM
CELL 1.54180   50.00000   50.00000   50.00000   90.00000   90.00000   90.00000
LATT -1
SFAC C  
C      1  0.4567270000000  0.5028380000000  0.5166870000000 1.0
C      1  0.4979330000000  0.4569680000000  0.4514020000000 1.0
C      1  0.5484810000000  0.5399240000000  0.4826850000000 1.0
C      1  0.5201740000000  0.5223480000000  0.5151040000000 1.0
C      1  0.4964730000000  0.5128500000000  0.5205660000000 1.0
C      1  0.4972410000000  0.4534660000000  0.4768510000000 1.0
C      1  0.5430020000000  0.5296450000000  0.5055760000000 1.0
C      1  0.4700310000000  0.5245320000000  0.5239210000000 1.0
C      1  0.4816680000000  0.4882750000000  0.5119590000000 1.0
C      1  0.4882710000000  0.4691530000000  0.4952490000000 1.0
END
