TITL C-21905-2380-6 52.6346423640021 125000 -670.360848927539 0 0 97 (C1) n - 1
REM
REM in /rds/project/t2_vol4/rds-t2-cs072/BORA/CARBON/from-Arr/AIRSS/Generating-Clusters/GAP-ML-2020/Only-C1/SD-CG/HFTN-CG
REM
REM
REM
REM
REM
REM ./C.cell (11c1c37f851c82e70ff6c80c92926a4b)
REM AIRSS Version 0.9.1 bugfix July 2018 build 013d7b7c2542+ Fri, 06 Jul 2018 19:26:36 +0100
REM compiler GCC version 9.3.0
REM options -cpp -mtune=generic -march=x86-64 -g -O0
REM seed 1544371940 -548975480 192764814 1815962429 832449332 -1751112324 234756882 1508492004 -1520154052 -1407816154 -1777049040 45167992 1076785843 -1042932873 -342887981 795403916 1601470413 454036152 202666785 -2086455272 1731448029 559829709 1915581571 1904556823 1923797670 -535976950 980939154 1313866123 2039227599 -2107455363 -659153744 -816538017 -1365959281
REM
CELL 1.54180   50.00000   50.00000   50.00000   90.00000   90.00000   90.00000
LATT -1
SFAC C  
C      1  0.5024560000000  0.5425110000000  0.5030840000000 1.0
C      1  0.4781060000000  0.4819300000000  0.4232380000000 1.0
C      1  0.5806860000000  0.4591310000000  0.5156800000000 1.0
C      1  0.4888980000000  0.4152670000000  0.4921780000000 1.0
C      1  0.5033190000000  0.5129650000000  0.5790420000000 1.0
C      1  0.4123620000000  0.4928200000000  0.5181600000000 1.0
C      1  0.4970330000000  0.4550350000000  0.5616840000000 1.0
C      1  0.5698290000000  0.5035360000000  0.5017670000000 1.0
C      1  0.4338940000000  0.5700660000000  0.4615680000000 1.0
C      1  0.5133940000000  0.5892260000000  0.4643620000000 1.0
C      1  0.4876670000000  0.5088300000000  0.4226070000000 1.0
C      1  0.4986900000000  0.4637540000000  0.4297400000000 1.0
C      1  0.5514770000000  0.4264040000000  0.5170130000000 1.0
C      1  0.4248360000000  0.4619870000000  0.4865500000000 1.0
C      1  0.4360350000000  0.5568190000000  0.5076900000000 1.0
C      1  0.5605800000000  0.5291380000000  0.4550660000000 1.0
C      1  0.5467640000000  0.5044800000000  0.5620070000000 1.0
C      1  0.5468090000000  0.5636540000000  0.4937070000000 1.0
C      1  0.5737580000000  0.4558590000000  0.4877970000000 1.0
C      1  0.4527870000000  0.4752030000000  0.4361470000000 1.0
C      1  0.5222040000000  0.4666750000000  0.5681080000000 1.0
C      1  0.5182750000000  0.5404200000000  0.4335870000000 1.0
C      1  0.4491710000000  0.5224370000000  0.4527810000000 1.0
C      1  0.5030620000000  0.4825000000000  0.5106310000000 1.0
C      1  0.5227100000000  0.4978310000000  0.4910540000000 1.0
C      1  0.5357100000000  0.4706460000000  0.4815950000000 1.0
C      1  0.5365510000000  0.5604930000000  0.5353910000000 1.0
C      1  0.4934540000000  0.5721790000000  0.5052980000000 1.0
C      1  0.4462040000000  0.4446300000000  0.4758160000000 1.0
C      1  0.4947270000000  0.4442820000000  0.4858800000000 1.0
C      1  0.4671660000000  0.4548070000000  0.4947880000000 1.0
C      1  0.5055010000000  0.5079310000000  0.4709260000000 1.0
C      1  0.5041740000000  0.5019300000000  0.5318230000000 1.0
C      1  0.4662460000000  0.5095010000000  0.5043900000000 1.0
C      1  0.4729750000000  0.4294200000000  0.4484720000000 1.0
C      1  0.4377700000000  0.4954110000000  0.4504690000000 1.0
C      1  0.4820700000000  0.4228660000000  0.5229180000000 1.0
C      1  0.4468420000000  0.5748250000000  0.4860170000000 1.0
C      1  0.4762470000000  0.4834480000000  0.4964140000000 1.0
C      1  0.5305300000000  0.5423450000000  0.5098090000000 1.0
C      1  0.4746730000000  0.5788330000000  0.4839700000000 1.0
C      1  0.5585250000000  0.4999540000000  0.4521570000000 1.0
C      1  0.5445050000000  0.4583160000000  0.5487530000000 1.0
C      1  0.4222420000000  0.4659990000000  0.5143520000000 1.0
C      1  0.4859830000000  0.5541050000000  0.5565300000000 1.0
C      1  0.5410120000000  0.5145100000000  0.5088280000000 1.0
C      1  0.5288420000000  0.4512240000000  0.4569930000000 1.0
C      1  0.4649560000000  0.5264800000000  0.4807450000000 1.0
C      1  0.5573140000000  0.5313780000000  0.5637740000000 1.0
C      1  0.4727870000000  0.5295620000000  0.4349170000000 1.0
C      1  0.4488590000000  0.4717990000000  0.5548570000000 1.0
C      1  0.4553920000000  0.5168310000000  0.5665470000000 1.0
C      1  0.5168580000000  0.4572140000000  0.5024300000000 1.0
C      1  0.4150240000000  0.5079970000000  0.4934300000000 1.0
C      1  0.4891890000000  0.5762660000000  0.4581940000000 1.0
C      1  0.4291750000000  0.5430380000000  0.4632230000000 1.0
C      1  0.5586890000000  0.4832870000000  0.5468710000000 1.0
C      1  0.5666190000000  0.5451030000000  0.4781220000000 1.0
C      1  0.4601560000000  0.4396410000000  0.5198920000000 1.0
C      1  0.5375900000000  0.4938030000000  0.4324550000000 1.0
C      1  0.5368940000000  0.4248420000000  0.4716020000000 1.0
C      1  0.5341950000000  0.5495960000000  0.5611750000000 1.0
C      1  0.4587950000000  0.5433740000000  0.5563360000000 1.0
C      1  0.5426160000000  0.5454810000000  0.4428340000000 1.0
C      1  0.5270270000000  0.4418210000000  0.5264450000000 1.0
C      1  0.4128740000000  0.5024820000000  0.5435460000000 1.0
C      1  0.4521850000000  0.5585710000000  0.5311070000000 1.0
C      1  0.5787990000000  0.5348480000000  0.5469450000000 1.0
C      1  0.4359840000000  0.4977560000000  0.5572090000000 1.0
C      1  0.4780490000000  0.5012170000000  0.5748800000000 1.0
C      1  0.5166140000000  0.5139840000000  0.4236350000000 1.0
C      1  0.4747820000000  0.4734570000000  0.5664550000000 1.0
C      1  0.4975770000000  0.4447220000000  0.4530960000000 1.0
C      1  0.5264630000000  0.4680710000000  0.4323450000000 1.0
C      1  0.5581720000000  0.4305890000000  0.4888320000000 1.0
C      1  0.5781280000000  0.5462810000000  0.5225560000000 1.0
C      1  0.5642400000000  0.4832100000000  0.4778230000000 1.0
C      1  0.4406120000000  0.4544920000000  0.5335880000000 1.0
C      1  0.4518470000000  0.4493230000000  0.4471420000000 1.0
C      1  0.4643680000000  0.4176480000000  0.4732370000000 1.0
C      1  0.4796240000000  0.5699500000000  0.5319730000000 1.0
C      1  0.4857970000000  0.4882280000000  0.4701420000000 1.0
C      1  0.5013490000000  0.4346030000000  0.5401050000000 1.0
C      1  0.5246030000000  0.4939530000000  0.5773850000000 1.0
C      1  0.5080780000000  0.5406060000000  0.5684940000000 1.0
C      1  0.4222540000000  0.4880630000000  0.4734630000000 1.0
C      1  0.5760780000000  0.4854910000000  0.5241000000000 1.0
C      1  0.5600680000000  0.5681030000000  0.5205840000000 1.0
C      1  0.5228940000000  0.5809120000000  0.4879920000000 1.0
C      1  0.4878790000000  0.5216440000000  0.5192730000000 1.0
C      1  0.5316420000000  0.5080010000000  0.5351720000000 1.0
C      1  0.5805160000000  0.5309110000000  0.4983160000000 1.0
C      1  0.5676470000000  0.4416120000000  0.5340840000000 1.0
C      1  0.5151780000000  0.4101940000000  0.4820230000000 1.0
C      1  0.4213720000000  0.5356090000000  0.4910110000000 1.0
C      1  0.4930510000000  0.5333240000000  0.4753730000000 1.0
C      1  0.4923910000000  0.5484990000000  0.4474330000000 1.0
END
