TITL C-216127-3349-3 46.2695188642985 125000 -60.6081898684382 0 0 10 (C1) n - 1
REM
REM in /rds/project/t2_vol4/rds-t2-cs072/BORA/CARBON/from-Arr/AIRSS/Generating-Clusters/GAP-ML-2020/Only-C1/SD-CG/HFTN-CG
REM
REM
REM
REM
REM
REM ./C.cell (11c1c37f851c82e70ff6c80c92926a4b)
REM AIRSS Version 0.9.1 bugfix July 2018 build 013d7b7c2542+ Fri, 06 Jul 2018 19:26:36 +0100
REM compiler GCC version 9.3.0
REM options -cpp -mtune=generic -march=x86-64 -g -O0
REM seed -341263567 1688564441 -750757275 1105997483 1061040638 -225782933 1165399180 -1605443788 -326379703 942869761 1388702790 -824840846 -971526386 -1342911537 720687413 -466716273 -385114097 222113241 -1836498536 -1479253368 -1307636625 769908426 -1381880231 -1242600465 -1388209454 -1530927946 1244189807 -1306227532 32463216 1934121211 2115658678 1787237338 -1105024424
REM
CELL 1.54180   50.00000   50.00000   50.00000   90.00000   90.00000   90.00000
LATT -1
SFAC C  
C      1  0.4742730000000  0.5127970000000  0.4857290000000 1.0
C      1  0.5170960000000  0.4821670000000  0.5221770000000 1.0
C      1  0.4987560000000  0.5007780000000  0.5350620000000 1.0
C      1  0.4831470000000  0.4894550000000  0.4786800000000 1.0
C      1  0.5446930000000  0.5423810000000  0.4821060000000 1.0
C      1  0.5211670000000  0.5317930000000  0.4838220000000 1.0
C      1  0.4796850000000  0.4816300000000  0.5308040000000 1.0
C      1  0.4955250000000  0.4688630000000  0.5099100000000 1.0
C      1  0.4965230000000  0.5258010000000  0.4882900000000 1.0
C      1  0.4891340000000  0.4643350000000  0.4834200000000 1.0
END
