TITL C-21922-1652-1 -78.1612341533269 125000 -834.88249478926 0 0 119 (C1) n - 1
REM
REM in /rds/project/t2_vol4/rds-t2-cs072/BORA/CARBON/from-Arr/AIRSS/Generating-Clusters/GAP-ML-2020/Only-C1/SD-CG/HFTN-CG
REM
REM
REM
REM
REM
REM ./C.cell (11c1c37f851c82e70ff6c80c92926a4b)
REM AIRSS Version 0.9.1 bugfix July 2018 build 013d7b7c2542+ Fri, 06 Jul 2018 19:26:36 +0100
REM compiler GCC version 9.3.0
REM options -cpp -mtune=generic -march=x86-64 -g -O0
REM seed -1093683365 1530764250 1204366516 1669648993 -2082648167 1302450743 1225503887 273811347 578555280 -1384992639 1119239110 2127767957 1052650839 1729328192 1452156111 879519018 -1004218056 -1631325596 -234142853 -2053449060 -1185279536 -322138627 -1477548041 -315924570 -504844473 -812855786 -552832790 1922511923 -757422830 725452967 237421911 2079458848 1343592638
REM
CELL 1.54180   50.00000   50.00000   50.00000   90.00000   90.00000   90.00000
LATT -1
SFAC C  
C      1  0.4562550000000  0.5344050000000  0.5816060000000 1.0
C      1  0.5257360000000  0.4756600000000  0.4146480000000 1.0
C      1  0.4744590000000  0.4172890000000  0.4738000000000 1.0
C      1  0.5013460000000  0.5187200000000  0.5429530000000 1.0
C      1  0.4247110000000  0.4511190000000  0.5197300000000 1.0
C      1  0.4442830000000  0.5572340000000  0.4803680000000 1.0
C      1  0.5371470000000  0.5592870000000  0.4269300000000 1.0
C      1  0.5949880000000  0.4953810000000  0.4998770000000 1.0
C      1  0.4973670000000  0.4827480000000  0.5876440000000 1.0
C      1  0.4432850000000  0.5501820000000  0.5609510000000 1.0
C      1  0.4644190000000  0.4144020000000  0.5238660000000 1.0
C      1  0.5105600000000  0.4855630000000  0.4924360000000 1.0
C      1  0.5201840000000  0.4330120000000  0.4822110000000 1.0
C      1  0.5319840000000  0.5934080000000  0.4639090000000 1.0
C      1  0.5110670000000  0.5303930000000  0.5184850000000 1.0
C      1  0.5055660000000  0.5629660000000  0.5172570000000 1.0
C      1  0.4949640000000  0.4405510000000  0.5524740000000 1.0
C      1  0.4255910000000  0.4998060000000  0.5725060000000 1.0
C      1  0.4177770000000  0.4585740000000  0.4919810000000 1.0
C      1  0.5687030000000  0.5453950000000  0.5417230000000 1.0
C      1  0.5237310000000  0.5496830000000  0.4762220000000 1.0
C      1  0.5481960000000  0.4131880000000  0.5176040000000 1.0
C      1  0.5474350000000  0.4819750000000  0.5594050000000 1.0
C      1  0.5171160000000  0.4480010000000  0.5330860000000 1.0
C      1  0.4748970000000  0.5256340000000  0.4969900000000 1.0
C      1  0.5767290000000  0.5409230000000  0.4875780000000 1.0
C      1  0.4015370000000  0.5045430000000  0.5046150000000 1.0
C      1  0.5138420000000  0.5462960000000  0.4161470000000 1.0
C      1  0.4326100000000  0.4488700000000  0.4685840000000 1.0
C      1  0.5433690000000  0.5106090000000  0.5727640000000 1.0
C      1  0.5746770000000  0.4918750000000  0.5486310000000 1.0
C      1  0.4678020000000  0.4529210000000  0.5475200000000 1.0
C      1  0.4080620000000  0.4851150000000  0.4847580000000 1.0
C      1  0.5579000000000  0.5449200000000  0.4400610000000 1.0
C      1  0.4590360000000  0.5806810000000  0.5163780000000 1.0
C      1  0.5367380000000  0.5024130000000  0.4155360000000 1.0
C      1  0.4148600000000  0.4699570000000  0.5388170000000 1.0
C      1  0.4580770000000  0.5032590000000  0.4956590000000 1.0
C      1  0.5016620000000  0.5163110000000  0.4934390000000 1.0
C      1  0.4879560000000  0.4688680000000  0.5006910000000 1.0
C      1  0.5047040000000  0.4462880000000  0.5054030000000 1.0
C      1  0.5767550000000  0.4454000000000  0.4337450000000 1.0
C      1  0.4592450000000  0.5504930000000  0.4222340000000 1.0
C      1  0.4878660000000  0.5555290000000  0.4302040000000 1.0
C      1  0.5456840000000  0.4324050000000  0.5690600000000 1.0
C      1  0.5333810000000  0.5398360000000  0.5694460000000 1.0
C      1  0.4235680000000  0.5382670000000  0.4742570000000 1.0
C      1  0.5448770000000  0.5576130000000  0.5504020000000 1.0
C      1  0.5030720000000  0.5895180000000  0.4691310000000 1.0
C      1  0.4899060000000  0.5060860000000  0.4144130000000 1.0
C      1  0.5085130000000  0.4580470000000  0.5778720000000 1.0
C      1  0.5680680000000  0.5577950000000  0.4642330000000 1.0
C      1  0.4846340000000  0.5338860000000  0.4531820000000 1.0
C      1  0.4996700000000  0.4269120000000  0.4618870000000 1.0
C      1  0.5249790000000  0.4806710000000  0.4678840000000 1.0
C      1  0.4814530000000  0.5474380000000  0.5769060000000 1.0
C      1  0.5655680000000  0.4331380000000  0.5222720000000 1.0
C      1  0.5355240000000  0.4875070000000  0.5094850000000 1.0
C      1  0.4706570000000  0.5106720000000  0.4371780000000 1.0
C      1  0.4839360000000  0.4640160000000  0.4321070000000 1.0
C      1  0.5694470000000  0.5188700000000  0.5560070000000 1.0
C      1  0.5500820000000  0.5769970000000  0.4780850000000 1.0
C      1  0.5747370000000  0.4571390000000  0.5127320000000 1.0
C      1  0.4383460000000  0.5673080000000  0.5061390000000 1.0
C      1  0.4777630000000  0.4788430000000  0.5286530000000 1.0
C      1  0.4496760000000  0.4277890000000  0.4684510000000 1.0
C      1  0.5465040000000  0.5284670000000  0.4857120000000 1.0
C      1  0.4975770000000  0.4795250000000  0.4136400000000 1.0
C      1  0.5010300000000  0.4909740000000  0.5412110000000 1.0
C      1  0.4801240000000  0.5726340000000  0.5312300000000 1.0
C      1  0.4044660000000  0.4960910000000  0.5316220000000 1.0
C      1  0.5267530000000  0.4766620000000  0.5361590000000 1.0
C      1  0.5870380000000  0.4805140000000  0.5243380000000 1.0
C      1  0.4900640000000  0.4121440000000  0.5378390000000 1.0
C      1  0.5541170000000  0.5137130000000  0.4385030000000 1.0
C      1  0.4989330000000  0.5659170000000  0.4874400000000 1.0
C      1  0.5507780000000  0.4451870000000  0.4447400000000 1.0
C      1  0.4591220000000  0.5001780000000  0.5226440000000 1.0
C      1  0.4682270000000  0.4845460000000  0.5860370000000 1.0
C      1  0.4254460000000  0.5208600000000  0.4520660000000 1.0
C      1  0.5022720000000  0.4431290000000  0.4390800000000 1.0
C      1  0.5407610000000  0.4294820000000  0.5415320000000 1.0
C      1  0.4692420000000  0.4808770000000  0.4804940000000 1.0
C      1  0.4657000000000  0.4812820000000  0.4491550000000 1.0
C      1  0.5589610000000  0.4698720000000  0.4908410000000 1.0
C      1  0.5778070000000  0.4711810000000  0.4332450000000 1.0
C      1  0.4359830000000  0.4723070000000  0.4508430000000 1.0
C      1  0.5054280000000  0.5315010000000  0.5728910000000 1.0
C      1  0.4502220000000  0.5073960000000  0.5853940000000 1.0
C      1  0.5139990000000  0.5064790000000  0.5867030000000 1.0
C      1  0.5325690000000  0.5722710000000  0.5273970000000 1.0
C      1  0.5267180000000  0.4085690000000  0.5004330000000 1.0
C      1  0.5099890000000  0.5256700000000  0.4665670000000 1.0
C      1  0.4984620000000  0.5812510000000  0.4418110000000 1.0
C      1  0.5146290000000  0.5196940000000  0.4095290000000 1.0
C      1  0.4460710000000  0.5283630000000  0.4328320000000 1.0
C      1  0.4190410000000  0.5495600000000  0.5186130000000 1.0
C      1  0.5267720000000  0.5837290000000  0.4378140000000 1.0
C      1  0.4540540000000  0.4642710000000  0.5710220000000 1.0
C      1  0.5788830000000  0.4873930000000  0.4769990000000 1.0
C      1  0.5362490000000  0.5173390000000  0.5098800000000 1.0
C      1  0.4189550000000  0.4932240000000  0.4590960000000 1.0
C      1  0.4123090000000  0.5146210000000  0.5523010000000 1.0
C      1  0.4690160000000  0.5629270000000  0.5554180000000 1.0
C      1  0.5756610000000  0.4942710000000  0.4477130000000 1.0
C      1  0.5347640000000  0.5088440000000  0.4621800000000 1.0
C      1  0.4485430000000  0.4369180000000  0.5303230000000 1.0
C      1  0.5729940000000  0.5554890000000  0.5138620000000 1.0
C      1  0.5529400000000  0.5743790000000  0.5073820000000 1.0
C      1  0.4733810000000  0.5483790000000  0.4785800000000 1.0
C      1  0.4093110000000  0.5317770000000  0.4982270000000 1.0
C      1  0.5950170000000  0.5191580000000  0.4878200000000 1.0
C      1  0.4212160000000  0.5410060000000  0.5458200000000 1.0
C      1  0.5025420000000  0.4007090000000  0.5131230000000 1.0
C      1  0.5279000000000  0.4502930000000  0.4285050000000 1.0
C      1  0.5367550000000  0.4568690000000  0.5769500000000 1.0
C      1  0.5408210000000  0.4540360000000  0.4716510000000 1.0
C      1  0.4276800000000  0.4728630000000  0.5642550000000 1.0
C      1  0.4774700000000  0.4046090000000  0.4993230000000 1.0
END
