TITL C-2114519-1652-3 -117.267479349757 125000 -409.175549827172 0 0 61 (C1) n - 1
REM
REM in /nfs/bkarasulu/CARBON/AIRSS/Generating-Clusters/GAP-ML-2020/Only-C1/SD-CG/HFTN-CG
REM
REM
REM
REM
REM
REM ./C.cell (11c1c37f851c82e70ff6c80c92926a4b)
REM
REM compiler GCC version 9.2.1 20190827 (Red Hat 9.2.1-1)
REM options -cpp -mtune=generic -march=x86-64 -g -O0 -fpre-include=/usr/include/finclude/math-vector-fortran.h
REM seed -138491395 2017635907 -859207365 2135833043 1028684749 1307484182 974740332 1810044864 -755150104 -435214357 1097063004 2128008147 194362187 -251488101 -1516790698 2087635210 1404446797 -313913250 1662424999 -1796781599 -219279739 1855810314 -992731210 1133549244 344014283 -1640264334 -1124781514 1170279950 2072328128 1363812885 -268898948 538468690 320283666
REM
CELL 1.54180   50.00000   50.00000   50.00000   90.00000   90.00000   90.00000
LATT -1
SFAC C  
C      1  0.4618550000000  0.4819750000000  0.5323790000000 1.0
C      1  0.5284920000000  0.5159000000000  0.4983740000000 1.0
C      1  0.4765140000000  0.4784510000000  0.5554990000000 1.0
C      1  0.4760230000000  0.5730610000000  0.5427320000000 1.0
C      1  0.5339590000000  0.5025130000000  0.5596250000000 1.0
C      1  0.5592310000000  0.5293610000000  0.5238720000000 1.0
C      1  0.4363490000000  0.5191500000000  0.5094440000000 1.0
C      1  0.4943590000000  0.5532800000000  0.4480040000000 1.0
C      1  0.5246990000000  0.5600460000000  0.4848560000000 1.0
C      1  0.5687910000000  0.4822100000000  0.4976700000000 1.0
C      1  0.5121590000000  0.4954000000000  0.5147110000000 1.0
C      1  0.4955540000000  0.5682000000000  0.5227820000000 1.0
C      1  0.4584120000000  0.5110780000000  0.5276620000000 1.0
C      1  0.4293810000000  0.5090100000000  0.4846460000000 1.0
C      1  0.5234710000000  0.5397280000000  0.5551310000000 1.0
C      1  0.4842110000000  0.5286190000000  0.4366610000000 1.0
C      1  0.4486620000000  0.4684210000000  0.4560510000000 1.0
C      1  0.4529080000000  0.5449240000000  0.4667000000000 1.0
C      1  0.4836430000000  0.5102550000000  0.5091470000000 1.0
C      1  0.4683420000000  0.5521380000000  0.5562980000000 1.0
C      1  0.4831880000000  0.4497520000000  0.5575100000000 1.0
C      1  0.5058340000000  0.4381130000000  0.4839210000000 1.0
C      1  0.4661170000000  0.5246560000000  0.5536170000000 1.0
C      1  0.4992500000000  0.4897970000000  0.4721380000000 1.0
C      1  0.5538030000000  0.5044250000000  0.4843320000000 1.0
C      1  0.5505060000000  0.4460360000000  0.5267590000000 1.0
C      1  0.5716610000000  0.5080240000000  0.5080190000000 1.0
C      1  0.4595450000000  0.5217360000000  0.4501650000000 1.0
C      1  0.5245240000000  0.4837570000000  0.5403540000000 1.0
C      1  0.4571430000000  0.4442170000000  0.4965700000000 1.0
C      1  0.5309260000000  0.4546050000000  0.5443680000000 1.0
C      1  0.4912150000000  0.5316490000000  0.4910460000000 1.0
C      1  0.5512120000000  0.4789560000000  0.4432560000000 1.0
C      1  0.4656720000000  0.4364440000000  0.5402980000000 1.0
C      1  0.4914070000000  0.4429060000000  0.4606310000000 1.0
C      1  0.5105170000000  0.5168780000000  0.5687010000000 1.0
C      1  0.4842170000000  0.5056330000000  0.5659990000000 1.0
C      1  0.5356410000000  0.4586420000000  0.4529890000000 1.0
C      1  0.4348050000000  0.5363990000000  0.4869020000000 1.0
C      1  0.5276020000000  0.5224390000000  0.4489620000000 1.0
C      1  0.5186960000000  0.5534070000000  0.5307270000000 1.0
C      1  0.4542090000000  0.4276270000000  0.5191140000000 1.0
C      1  0.5105070000000  0.5170020000000  0.4752660000000 1.0
C      1  0.5224630000000  0.5495170000000  0.4575030000000 1.0
C      1  0.4633400000000  0.4479100000000  0.4663860000000 1.0
C      1  0.4501210000000  0.4965990000000  0.4653540000000 1.0
C      1  0.5487730000000  0.5254750000000  0.5498600000000 1.0
C      1  0.5332350000000  0.4526250000000  0.4811730000000 1.0
C      1  0.4736220000000  0.4918890000000  0.4868940000000 1.0
C      1  0.5491760000000  0.5032500000000  0.4556750000000 1.0
C      1  0.5056340000000  0.5103790000000  0.4321150000000 1.0
C      1  0.5081220000000  0.4577700000000  0.4425090000000 1.0
C      1  0.4682980000000  0.4687460000000  0.5062980000000 1.0
C      1  0.5130320000000  0.4746620000000  0.4931430000000 1.0
C      1  0.4959480000000  0.5626660000000  0.4936530000000 1.0
C      1  0.4774770000000  0.5608150000000  0.4694520000000 1.0
C      1  0.4999660000000  0.4842590000000  0.4427260000000 1.0
C      1  0.5100290000000  0.4422570000000  0.5581190000000 1.0
C      1  0.4944390000000  0.4545350000000  0.5050110000000 1.0
C      1  0.5556220000000  0.4558380000000  0.5014030000000 1.0
C      1  0.5354900000000  0.5439860000000  0.5088410000000 1.0
END
