TITL C-2114525-70-22 77.4911527114563 125000 -270.535739571541 0 0 41 (C1) n - 1
REM
REM in /nfs/bkarasulu/CARBON/AIRSS/Generating-Clusters/GAP-ML-2020/Only-C1/SD-CG/HFTN-CG
REM
REM
REM
REM
REM
REM ./C.cell (11c1c37f851c82e70ff6c80c92926a4b)
REM
REM compiler GCC version 9.2.1 20190827 (Red Hat 9.2.1-1)
REM options -cpp -mtune=generic -march=x86-64 -g -O0 -fpre-include=/usr/include/finclude/math-vector-fortran.h
REM seed -2003918355 953732909 -674384082 951400790 1019149544 -1866514485 -1779171433 -1245220435 -358280522 -720476466 -1129018678 1239056139 -832585026 1789396998 -310087595 -447581500 -1984147060 766149160 148416596 3954446 1867956265 -1854467315 2126345460 -2089521881 -1748973717 476421441 1666244093 -2057582566 207925034 57799301 -241291785 2086920148 -1561700978
REM
CELL 1.54180   50.00000   50.00000   50.00000   90.00000   90.00000   90.00000
LATT -1
SFAC C  
C      1  0.5179160000000  0.5048080000000  0.4446260000000 1.0
C      1  0.4423550000000  0.5125590000000  0.5033620000000 1.0
C      1  0.4941520000000  0.5191970000000  0.5550270000000 1.0
C      1  0.4824150000000  0.4618700000000  0.5353900000000 1.0
C      1  0.5215920000000  0.4454890000000  0.5124860000000 1.0
C      1  0.4472980000000  0.4877030000000  0.4915790000000 1.0
C      1  0.4977230000000  0.5088170000000  0.4755580000000 1.0
C      1  0.4886700000000  0.5044330000000  0.4468590000000 1.0
C      1  0.4752920000000  0.4489080000000  0.5104310000000 1.0
C      1  0.5309340000000  0.4800150000000  0.4509950000000 1.0
C      1  0.4987080000000  0.4424920000000  0.4703970000000 1.0
C      1  0.5062890000000  0.5369510000000  0.4811060000000 1.0
C      1  0.5319400000000  0.5389920000000  0.5307910000000 1.0
C      1  0.5520860000000  0.4833140000000  0.4937260000000 1.0
C      1  0.4781430000000  0.4783010000000  0.4446370000000 1.0
C      1  0.4651840000000  0.5531390000000  0.5189710000000 1.0
C      1  0.5385910000000  0.4575130000000  0.4926400000000 1.0
C      1  0.4546040000000  0.5257060000000  0.5251980000000 1.0
C      1  0.4869540000000  0.5620300000000  0.5335130000000 1.0
C      1  0.5412850000000  0.5035730000000  0.5658270000000 1.0
C      1  0.5390300000000  0.5018110000000  0.5124930000000 1.0
C      1  0.4978990000000  0.4361340000000  0.4989680000000 1.0
C      1  0.4692410000000  0.5088610000000  0.5445270000000 1.0
C      1  0.4693670000000  0.4693840000000  0.4900900000000 1.0
C      1  0.5048700000000  0.5428770000000  0.5414440000000 1.0
C      1  0.5120210000000  0.4647580000000  0.5315930000000 1.0
C      1  0.4797870000000  0.5480720000000  0.4752320000000 1.0
C      1  0.5411390000000  0.5191220000000  0.4573320000000 1.0
C      1  0.5352710000000  0.5317920000000  0.5033310000000 1.0
C      1  0.5528610000000  0.4941230000000  0.4659510000000 1.0
C      1  0.4476700000000  0.5107870000000  0.4754690000000 1.0
C      1  0.5148720000000  0.5027610000000  0.5632050000000 1.0
C      1  0.5434480000000  0.5131630000000  0.5405010000000 1.0
C      1  0.4673290000000  0.4812370000000  0.5457270000000 1.0
C      1  0.4750560000000  0.4580680000000  0.4618550000000 1.0
C      1  0.5120290000000  0.4894600000000  0.5156520000000 1.0
C      1  0.5341370000000  0.5396740000000  0.4762400000000 1.0
C      1  0.5187620000000  0.4633350000000  0.4712920000000 1.0
C      1  0.4703690000000  0.5224130000000  0.4632140000000 1.0
C      1  0.4988460000000  0.4842080000000  0.4905340000000 1.0
C      1  0.4638670000000  0.5621480000000  0.4922290000000 1.0
END
