TITL C-21925-1701-4 -377.233668040429 125000 -383.869154629898 0 0 56 (C1) n - 1
REM
REM in /rds/project/t2_vol4/rds-t2-cs072/BORA/CARBON/from-Arr/AIRSS/Generating-Clusters/GAP-ML-2020/Only-C1/SD-CG/HFTN-CG
REM
REM
REM
REM
REM
REM ./C.cell (11c1c37f851c82e70ff6c80c92926a4b)
REM AIRSS Version 0.9.1 bugfix July 2018 build 013d7b7c2542+ Fri, 06 Jul 2018 19:26:36 +0100
REM compiler GCC version 9.3.0
REM options -cpp -mtune=generic -march=x86-64 -g -O0
REM seed -674434991 676309202 1619440962 -879481553 -889413434 1786677860 792902346 1990713939 -145110082 873634138 370122163 53801394 -2004958952 483969898 -649451839 -937011474 297887689 -875579529 2021367464 1148387774 -836594611 1385987784 -655023535 35935986 1930391683 -1819289387 -1555087384 -1617048168 -150182602 -1916268938 -577414912 585486619 440028864
REM
CELL 1.54180   50.00000   50.00000   50.00000   90.00000   90.00000   90.00000
LATT -1
SFAC C  
C      1  0.5177070000000  0.5357390000000  0.5541390000000 1.0
C      1  0.5663880000000  0.4954030000000  0.4781110000000 1.0
C      1  0.4418280000000  0.4887090000000  0.4699990000000 1.0
C      1  0.4905750000000  0.5535300000000  0.4870960000000 1.0
C      1  0.4969970000000  0.5016650000000  0.4220170000000 1.0
C      1  0.4545930000000  0.5296110000000  0.5418540000000 1.0
C      1  0.4781580000000  0.5304350000000  0.5841930000000 1.0
C      1  0.4398760000000  0.4866160000000  0.5211570000000 1.0
C      1  0.4602200000000  0.5174250000000  0.5668010000000 1.0
C      1  0.5280070000000  0.4607910000000  0.4418510000000 1.0
C      1  0.4587960000000  0.4733020000000  0.5411150000000 1.0
C      1  0.5387150000000  0.5534750000000  0.4947300000000 1.0
C      1  0.5008540000000  0.5212000000000  0.5724590000000 1.0
C      1  0.5374050000000  0.4573960000000  0.4941310000000 1.0
C      1  0.5433440000000  0.5407720000000  0.4687710000000 1.0
C      1  0.5407690000000  0.4904650000000  0.5487190000000 1.0
C      1  0.5235260000000  0.5083190000000  0.5007640000000 1.0
C      1  0.5027920000000  0.4589110000000  0.4550150000000 1.0
C      1  0.4818880000000  0.4801050000000  0.4904700000000 1.0
C      1  0.4740000000000  0.5475890000000  0.5298000000000 1.0
C      1  0.4487610000000  0.5166510000000  0.4725120000000 1.0
C      1  0.5203790000000  0.5276110000000  0.4558740000000 1.0
C      1  0.4785680000000  0.4550360000000  0.5317750000000 1.0
C      1  0.4737530000000  0.4511290000000  0.4550900000000 1.0
C      1  0.4972630000000  0.4918770000000  0.5682230000000 1.0
C      1  0.4783120000000  0.4980680000000  0.4427150000000 1.0
C      1  0.5026160000000  0.5512980000000  0.5331690000000 1.0
C      1  0.4707580000000  0.5233400000000  0.4556300000000 1.0
C      1  0.4690030000000  0.4894410000000  0.5621380000000 1.0
C      1  0.5643780000000  0.5238040000000  0.4803010000000 1.0
C      1  0.4931930000000  0.5392340000000  0.4629790000000 1.0
C      1  0.5185980000000  0.5030690000000  0.4735490000000 1.0
C      1  0.5405490000000  0.5200940000000  0.5489280000000 1.0
C      1  0.4669000000000  0.5489170000000  0.5023090000000 1.0
C      1  0.4857770000000  0.4514220000000  0.5024000000000 1.0
C      1  0.5040660000000  0.5057000000000  0.5189600000000 1.0
C      1  0.4458520000000  0.5305420000000  0.4966450000000 1.0
C      1  0.5156300000000  0.4507440000000  0.5112120000000 1.0
C      1  0.5130380000000  0.5570020000000  0.5061740000000 1.0
C      1  0.5605080000000  0.5203680000000  0.5283020000000 1.0
C      1  0.5589150000000  0.4899850000000  0.5261350000000 1.0
C      1  0.5069380000000  0.4564070000000  0.5381880000000 1.0
C      1  0.4398990000000  0.5157820000000  0.5214580000000 1.0
C      1  0.5291960000000  0.4509440000000  0.4677720000000 1.0
C      1  0.4585430000000  0.4758750000000  0.4497180000000 1.0
C      1  0.4365760000000  0.4737960000000  0.4954420000000 1.0
C      1  0.5583780000000  0.4773090000000  0.5008850000000 1.0
C      1  0.5214940000000  0.5094630000000  0.4310160000000 1.0
C      1  0.5173720000000  0.4761740000000  0.5562980000000 1.0
C      1  0.5393050000000  0.4867190000000  0.4361520000000 1.0
C      1  0.4422770000000  0.4472790000000  0.4907390000000 1.0
C      1  0.4967860000000  0.4860240000000  0.4668370000000 1.0
C      1  0.5613730000000  0.5364480000000  0.5057970000000 1.0
C      1  0.5607410000000  0.4908880000000  0.4520980000000 1.0
C      1  0.4810900000000  0.5006370000000  0.5086830000000 1.0
C      1  0.4667790000000  0.4394630000000  0.4807070000000 1.0
END
