TITL C-2109087-2355-21 0.287897097955201 125000 -1095.58430959114 0 0 157 (C1) n - 1
REM
REM in /nfs/bkarasulu/CARBON/AIRSS/Generating-Clusters/GAP-ML-2020/Only-C1/SD-CG/HFTN-CG
REM
REM
REM
REM
REM
REM ./C.cell (11c1c37f851c82e70ff6c80c92926a4b)
REM
REM compiler GCC version 9.2.1 20190827 (Red Hat 9.2.1-1)
REM options -cpp -mtune=generic -march=x86-64 -g -O0 -fpre-include=/usr/include/finclude/math-vector-fortran.h
REM seed -1518886649 -1093065413 -1935763445 -1989175014 -1010984589 -1428410099 413327529 733703705 -628635116 665125481 35389004 321376928 -1845053306 -747622236 793310476 -394949 -660785564 -925797232 -1592637981 -1757091320 1154596124 1031290832 -917595347 -806554184 338734022 901471424 1696183291 -2097918050 -290756319 538040619 -277876028 -141912469 815893010
REM
CELL 1.54180   50.00000   50.00000   50.00000   90.00000   90.00000   90.00000
LATT -1
SFAC C  
C      1  0.4145170000000  0.5182430000000  0.5581940000000 1.0
C      1  0.5525470000000  0.4796920000000  0.3968180000000 1.0
C      1  0.5387130000000  0.5523360000000  0.5380770000000 1.0
C      1  0.5160050000000  0.5614960000000  0.4693120000000 1.0
C      1  0.4342480000000  0.4390230000000  0.4818120000000 1.0
C      1  0.5447790000000  0.4764630000000  0.5278490000000 1.0
C      1  0.5277190000000  0.4089720000000  0.4606760000000 1.0
C      1  0.4164710000000  0.5558090000000  0.5038720000000 1.0
C      1  0.5302180000000  0.4250270000000  0.4357620000000 1.0
C      1  0.4792210000000  0.4292230000000  0.5718680000000 1.0
C      1  0.5413470000000  0.5052770000000  0.4018800000000 1.0
C      1  0.4335850000000  0.5599630000000  0.4538830000000 1.0
C      1  0.4547740000000  0.4646220000000  0.5563350000000 1.0
C      1  0.4344220000000  0.4102300000000  0.4871620000000 1.0
C      1  0.4533220000000  0.4903400000000  0.4807080000000 1.0
C      1  0.4909400000000  0.5204080000000  0.5536460000000 1.0
C      1  0.4841940000000  0.5207730000000  0.4024350000000 1.0
C      1  0.5702340000000  0.5851840000000  0.4836010000000 1.0
C      1  0.4707030000000  0.5959150000000  0.4765510000000 1.0
C      1  0.3901070000000  0.4874920000000  0.4953130000000 1.0
C      1  0.4868140000000  0.4475520000000  0.4221430000000 1.0
C      1  0.4929920000000  0.4804050000000  0.5248570000000 1.0
C      1  0.4317310000000  0.4522090000000  0.5120030000000 1.0
C      1  0.4106780000000  0.4652440000000  0.5320830000000 1.0
C      1  0.4410260000000  0.4939920000000  0.5890260000000 1.0
C      1  0.4276910000000  0.4684450000000  0.4438840000000 1.0
C      1  0.4058660000000  0.5143870000000  0.4573510000000 1.0
C      1  0.4485980000000  0.4054610000000  0.5099390000000 1.0
C      1  0.4743830000000  0.5401980000000  0.4387880000000 1.0
C      1  0.5553140000000  0.5862560000000  0.4598500000000 1.0
C      1  0.5349050000000  0.4517810000000  0.5782340000000 1.0
C      1  0.5174610000000  0.5606950000000  0.4229470000000 1.0
C      1  0.5560990000000  0.4354840000000  0.4282870000000 1.0
C      1  0.5270840000000  0.5905760000000  0.4649520000000 1.0
C      1  0.4823520000000  0.5326620000000  0.5287630000000 1.0
C      1  0.5935760000000  0.4231470000000  0.4912780000000 1.0
C      1  0.4846740000000  0.5295230000000  0.4669670000000 1.0
C      1  0.4221920000000  0.5353760000000  0.4448650000000 1.0
C      1  0.5164700000000  0.3957620000000  0.5502340000000 1.0
C      1  0.4170870000000  0.4950730000000  0.4385220000000 1.0
C      1  0.5560400000000  0.5253040000000  0.4177240000000 1.0
C      1  0.4720190000000  0.5108870000000  0.4865510000000 1.0
C      1  0.5155070000000  0.4973230000000  0.4097610000000 1.0
C      1  0.5846540000000  0.5173620000000  0.4611500000000 1.0
C      1  0.5531150000000  0.4701290000000  0.4571620000000 1.0
C      1  0.5202270000000  0.4706840000000  0.4525850000000 1.0
C      1  0.5301270000000  0.5197250000000  0.5356490000000 1.0
C      1  0.5121720000000  0.4470840000000  0.4335720000000 1.0
C      1  0.5095350000000  0.4711660000000  0.4823860000000 1.0
C      1  0.4434510000000  0.4293150000000  0.5276690000000 1.0
C      1  0.4375230000000  0.5804360000000  0.5438850000000 1.0
C      1  0.5174340000000  0.6024510000000  0.4909950000000 1.0
C      1  0.5649900000000  0.4420790000000  0.4538980000000 1.0
C      1  0.4279140000000  0.5705340000000  0.4796850000000 1.0
C      1  0.5514000000000  0.5372320000000  0.5793480000000 1.0
C      1  0.5007620000000  0.5420270000000  0.5093860000000 1.0
C      1  0.4804750000000  0.5916580000000  0.5225500000000 1.0
C      1  0.5095580000000  0.3925980000000  0.4728120000000 1.0
C      1  0.5306600000000  0.5360880000000  0.4652500000000 1.0
C      1  0.4571120000000  0.4754040000000  0.4568900000000 1.0
C      1  0.6070800000000  0.4997970000000  0.4757970000000 1.0
C      1  0.5533550000000  0.5041190000000  0.5332140000000 1.0
C      1  0.4473200000000  0.5878150000000  0.4902870000000 1.0
C      1  0.5720050000000  0.4254110000000  0.4752210000000 1.0
C      1  0.5612210000000  0.5521650000000  0.5575980000000 1.0
C      1  0.5746600000000  0.4869220000000  0.5735390000000 1.0
C      1  0.4670620000000  0.4828010000000  0.5356470000000 1.0
C      1  0.5271240000000  0.5049960000000  0.5854770000000 1.0
C      1  0.4601910000000  0.5249250000000  0.5125080000000 1.0
C      1  0.5469490000000  0.5519670000000  0.4239110000000 1.0
C      1  0.4005540000000  0.5152370000000  0.5320940000000 1.0
C      1  0.4102600000000  0.5915160000000  0.5436980000000 1.0
C      1  0.5068100000000  0.4942400000000  0.4395650000000 1.0
C      1  0.5423600000000  0.5285280000000  0.4905950000000 1.0
C      1  0.5836730000000  0.5481590000000  0.4604000000000 1.0
C      1  0.5166080000000  0.4745870000000  0.5409500000000 1.0
C      1  0.4436170000000  0.4798750000000  0.5051320000000 1.0
C      1  0.4846270000000  0.4504670000000  0.5895920000000 1.0
C      1  0.4493850000000  0.5208440000000  0.5890980000000 1.0
C      1  0.5432030000000  0.4318260000000  0.5339430000000 1.0
C      1  0.3947660000000  0.4663420000000  0.4795260000000 1.0
C      1  0.5312460000000  0.5935170000000  0.5142230000000 1.0
C      1  0.5221850000000  0.4438650000000  0.5530050000000 1.0
C      1  0.5553360000000  0.5817370000000  0.5070160000000 1.0
C      1  0.4941700000000  0.5820920000000  0.5457590000000 1.0
C      1  0.4769580000000  0.5221970000000  0.5937460000000 1.0
C      1  0.5121370000000  0.4587850000000  0.5950780000000 1.0
C      1  0.4925970000000  0.4952720000000  0.3945020000000 1.0
C      1  0.3952630000000  0.4879170000000  0.5235310000000 1.0
C      1  0.5539690000000  0.5524020000000  0.5115450000000 1.0
C      1  0.4496490000000  0.5621740000000  0.5632030000000 1.0
C      1  0.5071030000000  0.5785790000000  0.4450260000000 1.0
C      1  0.4792550000000  0.5652600000000  0.5650990000000 1.0
C      1  0.5138720000000  0.5021990000000  0.5546230000000 1.0
C      1  0.4903080000000  0.6011390000000  0.4970810000000 1.0
C      1  0.4755180000000  0.4000630000000  0.5154320000000 1.0
C      1  0.5018590000000  0.4307570000000  0.5044370000000 1.0
C      1  0.5671740000000  0.4813990000000  0.4346990000000 1.0
C      1  0.5841640000000  0.5469500000000  0.5110890000000 1.0
C      1  0.4985340000000  0.4957010000000  0.4993390000000 1.0
C      1  0.4351930000000  0.5369210000000  0.5703390000000 1.0
C      1  0.5372700000000  0.4669840000000  0.5000520000000 1.0
C      1  0.5212910000000  0.5784930000000  0.5365520000000 1.0
C      1  0.5925060000000  0.4518070000000  0.5297370000000 1.0
C      1  0.5608580000000  0.4617330000000  0.5700730000000 1.0
C      1  0.5228550000000  0.5345000000000  0.5862460000000 1.0
C      1  0.4641710000000  0.4391220000000  0.4367980000000 1.0
C      1  0.4404250000000  0.4517090000000  0.4235210000000 1.0
C      1  0.4544270000000  0.5803950000000  0.5181780000000 1.0
C      1  0.6026890000000  0.4314380000000  0.5135090000000 1.0
C      1  0.4144230000000  0.4548110000000  0.4659880000000 1.0
C      1  0.5201070000000  0.3900950000000  0.5232590000000 1.0
C      1  0.4089580000000  0.5757970000000  0.5233660000000 1.0
C      1  0.4932880000000  0.5522980000000  0.4845390000000 1.0
C      1  0.4941340000000  0.5402580000000  0.5772030000000 1.0
C      1  0.5571850000000  0.4807300000000  0.4835770000000 1.0
C      1  0.5640880000000  0.5636260000000  0.4439060000000 1.0
C      1  0.4635100000000  0.5153340000000  0.4247710000000 1.0
C      1  0.5816010000000  0.5147010000000  0.5371270000000 1.0
C      1  0.4196260000000  0.4924550000000  0.5707150000000 1.0
C      1  0.4849370000000  0.4247010000000  0.5297390000000 1.0
C      1  0.5726090000000  0.5094970000000  0.4352980000000 1.0
C      1  0.5189020000000  0.5190120000000  0.5077490000000 1.0
C      1  0.5569110000000  0.5083990000000  0.5828760000000 1.0
C      1  0.4345220000000  0.5155170000000  0.4272410000000 1.0
C      1  0.4764380000000  0.4732020000000  0.4078200000000 1.0
C      1  0.5872370000000  0.5624140000000  0.4846430000000 1.0
C      1  0.5611480000000  0.4616100000000  0.4144790000000 1.0
C      1  0.5408360000000  0.4017030000000  0.5383030000000 1.0
C      1  0.4649780000000  0.4742600000000  0.5865440000000 1.0
C      1  0.4491490000000  0.4672740000000  0.4029180000000 1.0
C      1  0.5017960000000  0.3964200000000  0.5003420000000 1.0
C      1  0.4752200000000  0.4891370000000  0.4351590000000 1.0
C      1  0.5327470000000  0.4369850000000  0.5052260000000 1.0
C      1  0.4780250000000  0.5850640000000  0.4509510000000 1.0
C      1  0.4592790000000  0.5653030000000  0.4429670000000 1.0
C      1  0.4237400000000  0.4689270000000  0.5559440000000 1.0
C      1  0.4621380000000  0.4360720000000  0.5484510000000 1.0
C      1  0.5101590000000  0.5177900000000  0.4566920000000 1.0
C      1  0.4839490000000  0.4949270000000  0.5978760000000 1.0
C      1  0.3951070000000  0.5132580000000  0.4843880000000 1.0
C      1  0.5829390000000  0.5436630000000  0.5413670000000 1.0
C      1  0.5940600000000  0.4933970000000  0.5520660000000 1.0
C      1  0.5105970000000  0.4863970000000  0.6007360000000 1.0
C      1  0.5019250000000  0.4215440000000  0.5546950000000 1.0
C      1  0.4006730000000  0.5305970000000  0.5068250000000 1.0
C      1  0.5879130000000  0.5168490000000  0.5081320000000 1.0
C      1  0.4895700000000  0.4487100000000  0.4849000000000 1.0
C      1  0.4490530000000  0.5002500000000  0.5240230000000 1.0
C      1  0.6085280000000  0.4964300000000  0.5026820000000 1.0
C      1  0.4957850000000  0.5436980000000  0.4164370000000 1.0
C      1  0.5639250000000  0.4526850000000  0.5410940000000 1.0
C      1  0.6034430000000  0.4782970000000  0.5293630000000 1.0
C      1  0.5654060000000  0.5090580000000  0.4863600000000 1.0
C      1  0.4455110000000  0.5508370000000  0.5118270000000 1.0
C      1  0.4638580000000  0.4470660000000  0.4669120000000 1.0
C      1  0.5445160000000  0.4210960000000  0.4816680000000 1.0
END
