TITL C-2114532-4476-6 432.818579787253 125000 -776.332213668715 0 0 113 (C1) n - 1
REM
REM in /nfs/bkarasulu/CARBON/AIRSS/Generating-Clusters/GAP-ML-2020/Only-C1/SD-CG/HFTN-CG
REM
REM
REM
REM
REM
REM ./C.cell (11c1c37f851c82e70ff6c80c92926a4b)
REM
REM compiler GCC version 9.2.1 20190827 (Red Hat 9.2.1-1)
REM options -cpp -mtune=generic -march=x86-64 -g -O0 -fpre-include=/usr/include/finclude/math-vector-fortran.h
REM seed 1026108990 -1740226543 -1453377962 -1716748638 213848137 1851968284 -690685249 -174880437 -106735031 -1405007044 1794167054 -921180020 145633402 -263481073 -868240456 -1881692655 -1188643286 774789817 -87641250 -1463618818 -51578509 866145676 939395307 859053772 -1602292305 -1970393765 -641031735 1027731547 -2111182627 2114494971 -167057392 483027810 -554502185
REM
CELL 1.54180   50.00000   50.00000   50.00000   90.00000   90.00000   90.00000
LATT -1
SFAC C  
C      1  0.5201400000000  0.4789340000000  0.5514520000000 1.0
C      1  0.4985250000000  0.4747470000000  0.4173010000000 1.0
C      1  0.4992490000000  0.4934900000000  0.4727290000000 1.0
C      1  0.4967720000000  0.4050760000000  0.4984880000000 1.0
C      1  0.4570680000000  0.5589420000000  0.5113920000000 1.0
C      1  0.4200150000000  0.5460130000000  0.4672130000000 1.0
C      1  0.5151750000000  0.4322860000000  0.4633530000000 1.0
C      1  0.4770550000000  0.4911560000000  0.4959920000000 1.0
C      1  0.4748310000000  0.4691770000000  0.4022460000000 1.0
C      1  0.5350240000000  0.4264110000000  0.5545720000000 1.0
C      1  0.5068250000000  0.4012640000000  0.5239500000000 1.0
C      1  0.5253670000000  0.5542340000000  0.5654080000000 1.0
C      1  0.5320260000000  0.5783330000000  0.4966750000000 1.0
C      1  0.5157860000000  0.5735490000000  0.4507580000000 1.0
C      1  0.4770990000000  0.5066060000000  0.5803640000000 1.0
C      1  0.4854480000000  0.4392680000000  0.5543270000000 1.0
C      1  0.5792310000000  0.4823740000000  0.5227000000000 1.0
C      1  0.5295290000000  0.5364610000000  0.5183370000000 1.0
C      1  0.4231500000000  0.4776160000000  0.4484100000000 1.0
C      1  0.5436940000000  0.4731660000000  0.4539270000000 1.0
C      1  0.5125920000000  0.4487130000000  0.5135460000000 1.0
C      1  0.4921490000000  0.4378310000000  0.4443140000000 1.0
C      1  0.5325630000000  0.4658500000000  0.5265010000000 1.0
C      1  0.4211400000000  0.5210810000000  0.4519660000000 1.0
C      1  0.4746580000000  0.4810300000000  0.5670940000000 1.0
C      1  0.4461850000000  0.4283490000000  0.4990710000000 1.0
C      1  0.4075020000000  0.5448450000000  0.4908950000000 1.0
C      1  0.5507910000000  0.5149830000000  0.5719880000000 1.0
C      1  0.4836610000000  0.4839220000000  0.4489980000000 1.0
C      1  0.5619450000000  0.4390750000000  0.4374830000000 1.0
C      1  0.5408470000000  0.5099190000000  0.5231850000000 1.0
C      1  0.5594190000000  0.5140820000000  0.4612080000000 1.0
C      1  0.5107500000000  0.4369610000000  0.5667220000000 1.0
C      1  0.5215940000000  0.4630980000000  0.5784270000000 1.0
C      1  0.5336050000000  0.4449570000000  0.4411510000000 1.0
C      1  0.5070240000000  0.5228910000000  0.4693100000000 1.0
C      1  0.4536760000000  0.4813760000000  0.4122630000000 1.0
C      1  0.4443850000000  0.4661530000000  0.4365060000000 1.0
C      1  0.5215200000000  0.4120660000000  0.4845730000000 1.0
C      1  0.4685150000000  0.4631540000000  0.5049800000000 1.0
C      1  0.4695920000000  0.5726680000000  0.4571000000000 1.0
C      1  0.4239600000000  0.4995950000000  0.4966250000000 1.0
C      1  0.5329370000000  0.5801100000000  0.5249750000000 1.0
C      1  0.5685880000000  0.4555270000000  0.4590470000000 1.0
C      1  0.4989750000000  0.5433150000000  0.4189570000000 1.0
C      1  0.4624340000000  0.5091710000000  0.4136380000000 1.0
C      1  0.4633330000000  0.4544650000000  0.5650330000000 1.0
C      1  0.5151670000000  0.4515000000000  0.4852580000000 1.0
C      1  0.5332630000000  0.5035620000000  0.5512630000000 1.0
C      1  0.4171020000000  0.4965640000000  0.4668680000000 1.0
C      1  0.4926000000000  0.5291990000000  0.4448690000000 1.0
C      1  0.5052800000000  0.5099860000000  0.5896490000000 1.0
C      1  0.4741690000000  0.5415170000000  0.5300760000000 1.0
C      1  0.4614210000000  0.5385090000000  0.4874090000000 1.0
C      1  0.5637880000000  0.4568690000000  0.5308930000000 1.0
C      1  0.4496570000000  0.5507690000000  0.4613610000000 1.0
C      1  0.4467510000000  0.5280370000000  0.4412940000000 1.0
C      1  0.5063720000000  0.5747940000000  0.5631870000000 1.0
C      1  0.4385560000000  0.5116760000000  0.5482900000000 1.0
C      1  0.4881050000000  0.4553070000000  0.5269650000000 1.0
C      1  0.4913780000000  0.5364340000000  0.4892040000000 1.0
C      1  0.5443120000000  0.4172610000000  0.5048760000000 1.0
C      1  0.4690390000000  0.4554910000000  0.4525270000000 1.0
C      1  0.5096780000000  0.5003130000000  0.4081770000000 1.0
C      1  0.4119660000000  0.5251300000000  0.5093260000000 1.0
C      1  0.5488510000000  0.4984040000000  0.4395350000000 1.0
C      1  0.4420210000000  0.4590690000000  0.5473800000000 1.0
C      1  0.4776490000000  0.5752950000000  0.5578090000000 1.0
C      1  0.5252480000000  0.5286700000000  0.5785270000000 1.0
C      1  0.4827920000000  0.5849150000000  0.4806220000000 1.0
C      1  0.5425010000000  0.5522510000000  0.5416060000000 1.0
C      1  0.5648830000000  0.4379020000000  0.5069620000000 1.0
C      1  0.5785720000000  0.5054700000000  0.4811210000000 1.0
C      1  0.5438760000000  0.5508990000000  0.4930070000000 1.0
C      1  0.5522760000000  0.4629510000000  0.5793000000000 1.0
C      1  0.5247550000000  0.4781840000000  0.4798010000000 1.0
C      1  0.4224590000000  0.4778000000000  0.5157240000000 1.0
C      1  0.5722560000000  0.5122000000000  0.5273240000000 1.0
C      1  0.4383730000000  0.5562660000000  0.5359740000000 1.0
C      1  0.5833890000000  0.4801110000000  0.4949660000000 1.0
C      1  0.5770150000000  0.4534970000000  0.4861120000000 1.0
C      1  0.5215780000000  0.4873610000000  0.5960180000000 1.0
C      1  0.4603310000000  0.5154960000000  0.5265670000000 1.0
C      1  0.4570100000000  0.5245240000000  0.5695720000000 1.0
C      1  0.5334420000000  0.4872500000000  0.5071120000000 1.0
C      1  0.4702910000000  0.5108420000000  0.4415950000000 1.0
C      1  0.4599190000000  0.5519400000000  0.5565490000000 1.0
C      1  0.5098160000000  0.4489980000000  0.4251080000000 1.0
C      1  0.5813420000000  0.5244380000000  0.5024230000000 1.0
C      1  0.4536520000000  0.5111760000000  0.4975450000000 1.0
C      1  0.5580040000000  0.4453920000000  0.5580930000000 1.0
C      1  0.4880720000000  0.5194340000000  0.4045040000000 1.0
C      1  0.4283820000000  0.4841740000000  0.5431860000000 1.0
C      1  0.5654340000000  0.5307470000000  0.5508690000000 1.0
C      1  0.4925500000000  0.4816630000000  0.5422630000000 1.0
C      1  0.5719070000000  0.5489030000000  0.4987470000000 1.0
C      1  0.4829790000000  0.5905910000000  0.5323320000000 1.0
C      1  0.5279350000000  0.5396170000000  0.4215080000000 1.0
C      1  0.5387900000000  0.5349960000000  0.4676010000000 1.0
C      1  0.5323920000000  0.4102850000000  0.5307650000000 1.0
C      1  0.4717450000000  0.5838720000000  0.5071230000000 1.0
C      1  0.5353950000000  0.5537790000000  0.4444920000000 1.0
C      1  0.5121770000000  0.5853220000000  0.4766360000000 1.0
C      1  0.4655520000000  0.4443610000000  0.4811780000000 1.0
C      1  0.5509470000000  0.4902440000000  0.5884860000000 1.0
C      1  0.5335200000000  0.5115080000000  0.4193320000000 1.0
C      1  0.4880140000000  0.5027410000000  0.5217500000000 1.0
C      1  0.4401710000000  0.4533580000000  0.5171920000000 1.0
C      1  0.5117110000000  0.5908960000000  0.5390620000000 1.0
C      1  0.4993570000000  0.5308450000000  0.5164120000000 1.0
C      1  0.4910310000000  0.5652650000000  0.4388670000000 1.0
C      1  0.4706770000000  0.4166540000000  0.4910490000000 1.0
C      1  0.4240110000000  0.5322380000000  0.5336470000000 1.0
END
