TITL C-21797-2987-4 -12.5597206901319 125000 -584.317898582933 0 0 84 (C1) n - 1
REM
REM in /rds/project/t2_vol4/rds-t2-cs072/BORA/CARBON/from-Arr/AIRSS/Generating-Clusters/GAP-ML-2020/Only-C1/SD-CG/HFTN-CG
REM
REM
REM
REM
REM
REM ./C.cell (11c1c37f851c82e70ff6c80c92926a4b)
REM AIRSS Version 0.9.1 bugfix July 2018 build 013d7b7c2542+ Fri, 06 Jul 2018 19:26:36 +0100
REM compiler GCC version 9.3.0
REM options -cpp -mtune=generic -march=x86-64 -g -O0
REM seed 331405322 -1604663197 -1065330886 -15591913 1568562984 605318325 1247785890 1520078150 -316893878 -45991341 -13826598 1889535876 -1235052332 1120029773 -678280821 -1098027962 -631955466 301499671 817748078 1229258448 1479156054 -71839645 1764647844 258239221 -1692810962 399388474 -816632231 480687447 740907993 1604627393 1583723363 -275650750 1684212824
REM
CELL 1.54180   50.00000   50.00000   50.00000   90.00000   90.00000   90.00000
LATT -1
SFAC C  
C      1  0.4335980000000  0.5561700000000  0.4913160000000 1.0
C      1  0.4593570000000  0.5622640000000  0.4997580000000 1.0
C      1  0.4664160000000  0.5682380000000  0.5271660000000 1.0
C      1  0.5163290000000  0.4341720000000  0.4499000000000 1.0
C      1  0.4875930000000  0.5506180000000  0.4590960000000 1.0
C      1  0.5308460000000  0.5088390000000  0.4877710000000 1.0
C      1  0.4519700000000  0.5528100000000  0.5473890000000 1.0
C      1  0.5787200000000  0.5076730000000  0.4999690000000 1.0
C      1  0.5112450000000  0.4464790000000  0.4238540000000 1.0
C      1  0.4177620000000  0.5190670000000  0.4900210000000 1.0
C      1  0.5046250000000  0.5854170000000  0.5036240000000 1.0
C      1  0.5352640000000  0.4437510000000  0.4695060000000 1.0
C      1  0.4321360000000  0.5330730000000  0.5367330000000 1.0
C      1  0.5497730000000  0.4712670000000  0.5507430000000 1.0
C      1  0.4741430000000  0.5339490000000  0.4404070000000 1.0
C      1  0.4912730000000  0.4222140000000  0.5091980000000 1.0
C      1  0.5387360000000  0.4893850000000  0.4442170000000 1.0
C      1  0.4213160000000  0.5383450000000  0.5110080000000 1.0
C      1  0.4788430000000  0.5431990000000  0.4862950000000 1.0
C      1  0.5014510000000  0.4750370000000  0.4821000000000 1.0
C      1  0.4731380000000  0.4324400000000  0.5287440000000 1.0
C      1  0.5405320000000  0.5690920000000  0.5221300000000 1.0
C      1  0.5395550000000  0.5212680000000  0.5385950000000 1.0
C      1  0.5099760000000  0.5282310000000  0.5756260000000 1.0
C      1  0.5729810000000  0.5362790000000  0.4993920000000 1.0
C      1  0.4689270000000  0.5116240000000  0.4845650000000 1.0
C      1  0.4525380000000  0.4362170000000  0.4867770000000 1.0
C      1  0.4980750000000  0.4836310000000  0.5780970000000 1.0
C      1  0.4373430000000  0.4606180000000  0.5302470000000 1.0
C      1  0.5232510000000  0.4562190000000  0.4936310000000 1.0
C      1  0.5011770000000  0.4588210000000  0.5648360000000 1.0
C      1  0.4852460000000  0.4638770000000  0.4262420000000 1.0
C      1  0.5203690000000  0.5323350000000  0.4349240000000 1.0
C      1  0.5198130000000  0.5672540000000  0.5414080000000 1.0
C      1  0.4890600000000  0.4313190000000  0.4591120000000 1.0
C      1  0.4736320000000  0.4996340000000  0.5779000000000 1.0
C      1  0.5206190000000  0.5017070000000  0.5767270000000 1.0
C      1  0.5562690000000  0.4930580000000  0.4860430000000 1.0
C      1  0.5280220000000  0.4529600000000  0.5545170000000 1.0
C      1  0.5283880000000  0.5366900000000  0.4953490000000 1.0
C      1  0.4226410000000  0.4916560000000  0.4938570000000 1.0
C      1  0.5352470000000  0.5590180000000  0.4755010000000 1.0
C      1  0.4820850000000  0.4890510000000  0.4979360000000 1.0
C      1  0.5650090000000  0.5308970000000  0.4518240000000 1.0
C      1  0.4702510000000  0.4501010000000  0.4464530000000 1.0
C      1  0.4263780000000  0.4853970000000  0.5220340000000 1.0
C      1  0.4941050000000  0.5780250000000  0.5289300000000 1.0
C      1  0.5261150000000  0.4991930000000  0.5174040000000 1.0
C      1  0.5671230000000  0.4678030000000  0.5249620000000 1.0
C      1  0.4491370000000  0.4401910000000  0.5149050000000 1.0
C      1  0.4534930000000  0.5022340000000  0.4609460000000 1.0
C      1  0.5256480000000  0.4806910000000  0.4195120000000 1.0
C      1  0.5423040000000  0.4980630000000  0.5583850000000 1.0
C      1  0.4968760000000  0.4905940000000  0.4209680000000 1.0
C      1  0.5156490000000  0.4948740000000  0.4673710000000 1.0
C      1  0.4809780000000  0.5276970000000  0.5794920000000 1.0
C      1  0.4507780000000  0.4909440000000  0.5625980000000 1.0
C      1  0.4770400000000  0.4484980000000  0.5527310000000 1.0
C      1  0.5295760000000  0.4563890000000  0.4065140000000 1.0
C      1  0.5154930000000  0.5532130000000  0.4534420000000 1.0
C      1  0.4533190000000  0.4642390000000  0.5536800000000 1.0
C      1  0.5426900000000  0.4750230000000  0.5073210000000 1.0
C      1  0.5862250000000  0.4899240000000  0.5184850000000 1.0
C      1  0.5629330000000  0.4493150000000  0.4746080000000 1.0
C      1  0.5304310000000  0.5796300000000  0.4967550000000 1.0
C      1  0.4482530000000  0.4552140000000  0.4653240000000 1.0
C      1  0.4949150000000  0.5184070000000  0.4277230000000 1.0
C      1  0.5291460000000  0.4346050000000  0.5351860000000 1.0
C      1  0.5231240000000  0.5418940000000  0.5545830000000 1.0
C      1  0.4365180000000  0.4803410000000  0.4708730000000 1.0
C      1  0.4782080000000  0.4238180000000  0.4837930000000 1.0
C      1  0.5636670000000  0.5470800000000  0.4733540000000 1.0
C      1  0.4307390000000  0.5360980000000  0.4695560000000 1.0
C      1  0.4913090000000  0.5228440000000  0.5253330000000 1.0
C      1  0.4965230000000  0.4961900000000  0.5215810000000 1.0
C      1  0.5583880000000  0.4757330000000  0.4626610000000 1.0
C      1  0.5451220000000  0.5178770000000  0.4388630000000 1.0
C      1  0.5174110000000  0.4324180000000  0.5114250000000 1.0
C      1  0.5506740000000  0.5416580000000  0.5175310000000 1.0
C      1  0.5686990000000  0.4485430000000  0.5029500000000 1.0
C      1  0.4641170000000  0.5476910000000  0.5715620000000 1.0
C      1  0.5009040000000  0.5399360000000  0.5049680000000 1.0
C      1  0.4467120000000  0.5269320000000  0.4486130000000 1.0
C      1  0.4337410000000  0.5048220000000  0.5425750000000 1.0
END
