TITL C-21805-4470-2 -175.083917637871 125000 -130.236974453143 0 0 21 (C1) n - 1
REM
REM in /rds/project/t2_vol4/rds-t2-cs072/BORA/CARBON/from-Arr/AIRSS/Generating-Clusters/GAP-ML-2020/Only-C1/SD-CG/HFTN-CG
REM
REM
REM
REM
REM
REM ./C.cell (11c1c37f851c82e70ff6c80c92926a4b)
REM AIRSS Version 0.9.1 bugfix July 2018 build 013d7b7c2542+ Fri, 06 Jul 2018 19:26:36 +0100
REM compiler GCC version 9.3.0
REM options -cpp -mtune=generic -march=x86-64 -g -O0
REM seed 929325478 2104806962 -666064587 -1238057827 1803959609 -1214861465 574864287 -454305879 -44728287 -555433872 241051845 -373446094 1199801322 -1465842375 1576342693 925494375 967669338 -251574175 -520930660 -1460648129 1328008986 -1687111699 -627190057 1100327232 865705170 -427450687 783670411 480851091 -1906909976 -675534363 -1780661039 -1694529671 -1531712119
REM
CELL 1.54180   50.00000   50.00000   50.00000   90.00000   90.00000   90.00000
LATT -1
SFAC C  
C      1  0.5490850000000  0.5446310000000  0.5143980000000 1.0
C      1  0.4972150000000  0.4782430000000  0.4733820000000 1.0
C      1  0.5035330000000  0.5031120000000  0.4922250000000 1.0
C      1  0.5463070000000  0.5181400000000  0.5017590000000 1.0
C      1  0.4477430000000  0.4653370000000  0.4740410000000 1.0
C      1  0.5133950000000  0.4655410000000  0.4931450000000 1.0
C      1  0.4915250000000  0.4848980000000  0.5335020000000 1.0
C      1  0.4663160000000  0.4880060000000  0.5219490000000 1.0
C      1  0.5205410000000  0.5202000000000  0.5398200000000 1.0
C      1  0.5135680000000  0.4858160000000  0.4514350000000 1.0
C      1  0.5306030000000  0.5050940000000  0.4546850000000 1.0
C      1  0.5289680000000  0.5145290000000  0.4802850000000 1.0
C      1  0.4939460000000  0.5131000000000  0.5401660000000 1.0
C      1  0.4703290000000  0.5171700000000  0.5238360000000 1.0
C      1  0.5326930000000  0.5457170000000  0.5350400000000 1.0
C      1  0.4319970000000  0.4537020000000  0.4900550000000 1.0
C      1  0.4688350000000  0.4829330000000  0.4717860000000 1.0
C      1  0.5143620000000  0.4823050000000  0.5156120000000 1.0
C      1  0.4768320000000  0.5193170000000  0.4966810000000 1.0
C      1  0.4676530000000  0.5110900000000  0.4733580000000 1.0
C      1  0.5345530000000  0.5011200000000  0.5228380000000 1.0
END
