TITL C-21800-3045-7 33.785756739263 125000 -302.577885827289 0 0 46 (C1) n - 1
REM
REM in /rds/project/t2_vol4/rds-t2-cs072/BORA/CARBON/from-Arr/AIRSS/Generating-Clusters/GAP-ML-2020/Only-C1/SD-CG/HFTN-CG
REM
REM
REM
REM
REM
REM ./C.cell (11c1c37f851c82e70ff6c80c92926a4b)
REM AIRSS Version 0.9.1 bugfix July 2018 build 013d7b7c2542+ Fri, 06 Jul 2018 19:26:36 +0100
REM compiler GCC version 9.3.0
REM options -cpp -mtune=generic -march=x86-64 -g -O0
REM seed -1471226636 918489058 -1914491121 730174288 -1039223641 1010353036 579203349 1817218871 -435987748 787679315 -1181856796 1175486242 1427696705 1235601383 362297013 434184552 -1348969769 906356278 -572838632 -647520774 -1647468743 650123764 -595235435 -94939671 945068144 -93581114 -595299432 -2112888441 878576980 -1711522354 -1712218110 -1243927346 1984428482
REM
CELL 1.54180   50.00000   50.00000   50.00000   90.00000   90.00000   90.00000
LATT -1
SFAC C  
C      1  0.5554560000000  0.4803460000000  0.4854450000000 1.0
C      1  0.4836450000000  0.4682090000000  0.5566520000000 1.0
C      1  0.4528140000000  0.4980000000000  0.4747790000000 1.0
C      1  0.4931020000000  0.4705110000000  0.4761070000000 1.0
C      1  0.4284760000000  0.5371410000000  0.4931240000000 1.0
C      1  0.4776590000000  0.5119200000000  0.5512730000000 1.0
C      1  0.4942240000000  0.5217030000000  0.4164890000000 1.0
C      1  0.4931170000000  0.4693180000000  0.5076690000000 1.0
C      1  0.4455050000000  0.4787340000000  0.5269420000000 1.0
C      1  0.4610690000000  0.4624300000000  0.5059990000000 1.0
C      1  0.5020120000000  0.4487230000000  0.5263480000000 1.0
C      1  0.5196690000000  0.5180540000000  0.4190070000000 1.0
C      1  0.5468400000000  0.5196990000000  0.5080140000000 1.0
C      1  0.4764000000000  0.5184960000000  0.4346600000000 1.0
C      1  0.4943430000000  0.5571530000000  0.4891230000000 1.0
C      1  0.5510230000000  0.4740890000000  0.5137020000000 1.0
C      1  0.5023200000000  0.4986370000000  0.5087390000000 1.0
C      1  0.5468080000000  0.5234090000000  0.4594680000000 1.0
C      1  0.4754560000000  0.5166630000000  0.4639610000000 1.0
C      1  0.5321190000000  0.4972140000000  0.5204570000000 1.0
C      1  0.5321420000000  0.4789380000000  0.4434420000000 1.0
C      1  0.4261440000000  0.4937580000000  0.5154420000000 1.0
C      1  0.5143590000000  0.4604510000000  0.4576560000000 1.0
C      1  0.5369480000000  0.5486950000000  0.4653100000000 1.0
C      1  0.5556900000000  0.4614590000000  0.5370420000000 1.0
C      1  0.4643390000000  0.4859600000000  0.5488780000000 1.0
C      1  0.5152190000000  0.5387890000000  0.5352210000000 1.0
C      1  0.5365740000000  0.5071200000000  0.4375190000000 1.0
C      1  0.4772850000000  0.5480810000000  0.5111900000000 1.0
C      1  0.4630200000000  0.4726830000000  0.4780780000000 1.0
C      1  0.4867720000000  0.4246260000000  0.5204180000000 1.0
C      1  0.5092700000000  0.4606030000000  0.5521360000000 1.0
C      1  0.5229940000000  0.5557300000000  0.4882940000000 1.0
C      1  0.5327890000000  0.5433760000000  0.5131650000000 1.0
C      1  0.4729880000000  0.5467630000000  0.4728950000000 1.0
C      1  0.5351520000000  0.4721340000000  0.5562750000000 1.0
C      1  0.4648140000000  0.4332310000000  0.5099850000000 1.0
C      1  0.5545790000000  0.5090530000000  0.4829640000000 1.0
C      1  0.5000620000000  0.5006250000000  0.4786530000000 1.0
C      1  0.4957600000000  0.5169270000000  0.5718350000000 1.0
C      1  0.4314680000000  0.5089700000000  0.4926350000000 1.0
C      1  0.5426260000000  0.4659950000000  0.4645540000000 1.0
C      1  0.5336030000000  0.5003610000000  0.5495180000000 1.0
C      1  0.4529970000000  0.5474870000000  0.4943830000000 1.0
C      1  0.4898480000000  0.5246810000000  0.5258610000000 1.0
C      1  0.5205020000000  0.5230560000000  0.5586890000000 1.0
END
