TITL C-2114521-4255-27 0.0698088998270086 125000 -519.48826325012 0 0 73 (C1) n - 1
REM
REM in /nfs/bkarasulu/CARBON/AIRSS/Generating-Clusters/GAP-ML-2020/Only-C1/SD-CG/HFTN-CG
REM
REM
REM
REM
REM
REM ./C.cell (11c1c37f851c82e70ff6c80c92926a4b)
REM
REM compiler GCC version 9.2.1 20190827 (Red Hat 9.2.1-1)
REM options -cpp -mtune=generic -march=x86-64 -g -O0 -fpre-include=/usr/include/finclude/math-vector-fortran.h
REM seed -1393376871 767580408 -919206492 564308480 17233908 -1066470020 1266266352 -706884516 -878921688 1458923137 2009073406 94823524 -1545131609 -1948629209 -1430799732 1375254656 1187666202 338735727 -1067305075 1814166728 195883602 -1770717467 1369770764 1965188421 356824975 1136996362 623680648 -30061626 -1503532212 8739232 373876078 -767711808 340822239
REM
CELL 1.54180   50.00000   50.00000   50.00000   90.00000   90.00000   90.00000
LATT -1
SFAC C  
C      1  0.5105660000000  0.4316290000000  0.4900020000000 1.0
C      1  0.5680020000000  0.4944050000000  0.5364910000000 1.0
C      1  0.4734240000000  0.5239480000000  0.5675740000000 1.0
C      1  0.5266010000000  0.5171590000000  0.4253120000000 1.0
C      1  0.5106430000000  0.5703120000000  0.5257460000000 1.0
C      1  0.5779210000000  0.4955110000000  0.5093040000000 1.0
C      1  0.5378350000000  0.4469900000000  0.4530180000000 1.0
C      1  0.4856840000000  0.4516530000000  0.5551020000000 1.0
C      1  0.5486900000000  0.4516440000000  0.5273480000000 1.0
C      1  0.5632210000000  0.5233510000000  0.5360860000000 1.0
C      1  0.5431920000000  0.5571520000000  0.4966990000000 1.0
C      1  0.4958960000000  0.5040120000000  0.5163160000000 1.0
C      1  0.4485640000000  0.5271380000000  0.5544820000000 1.0
C      1  0.4396640000000  0.4653080000000  0.5242850000000 1.0
C      1  0.5076990000000  0.5064870000000  0.4682620000000 1.0
C      1  0.5053140000000  0.4295800000000  0.5180150000000 1.0
C      1  0.5200780000000  0.4806370000000  0.4676220000000 1.0
C      1  0.5417740000000  0.5390190000000  0.5454360000000 1.0
C      1  0.5282130000000  0.5274450000000  0.4520720000000 1.0
C      1  0.4763920000000  0.4619570000000  0.4938790000000 1.0
C      1  0.4660440000000  0.5626280000000  0.5261730000000 1.0
C      1  0.4340860000000  0.5042270000000  0.5470030000000 1.0
C      1  0.4849200000000  0.4979040000000  0.5719120000000 1.0
C      1  0.5612390000000  0.5370600000000  0.4880380000000 1.0
C      1  0.4909470000000  0.4484300000000  0.4463480000000 1.0
C      1  0.5429990000000  0.4763050000000  0.4485770000000 1.0
C      1  0.4453780000000  0.5456720000000  0.5325090000000 1.0
C      1  0.5604140000000  0.4927100000000  0.4651080000000 1.0
C      1  0.5136980000000  0.4522440000000  0.5579130000000 1.0
C      1  0.5247640000000  0.4803290000000  0.4960720000000 1.0
C      1  0.4226520000000  0.5078640000000  0.5211000000000 1.0
C      1  0.5255920000000  0.4379800000000  0.5357100000000 1.0
C      1  0.5010970000000  0.4743090000000  0.5117500000000 1.0
C      1  0.4631470000000  0.5521350000000  0.4761450000000 1.0
C      1  0.4886100000000  0.4430040000000  0.4748910000000 1.0
C      1  0.4800430000000  0.4368300000000  0.5309640000000 1.0
C      1  0.4736530000000  0.5666780000000  0.4984100000000 1.0
C      1  0.5138510000000  0.5005200000000  0.5698240000000 1.0
C      1  0.4650900000000  0.4959280000000  0.4420310000000 1.0
C      1  0.4947750000000  0.5420810000000  0.5615300000000 1.0
C      1  0.5159460000000  0.4400260000000  0.4386330000000 1.0
C      1  0.5198710000000  0.5284720000000  0.5621520000000 1.0
C      1  0.4791600000000  0.5020060000000  0.4670950000000 1.0
C      1  0.5515680000000  0.4739110000000  0.5453120000000 1.0
C      1  0.5360970000000  0.5590550000000  0.5251390000000 1.0
C      1  0.5158100000000  0.5095980000000  0.4972200000000 1.0
C      1  0.5372180000000  0.4389430000000  0.4805290000000 1.0
C      1  0.4247490000000  0.4836210000000  0.5066340000000 1.0
C      1  0.4774880000000  0.5235880000000  0.4340100000000 1.0
C      1  0.4599970000000  0.4484070000000  0.5147770000000 1.0
C      1  0.5511950000000  0.4571550000000  0.4986310000000 1.0
C      1  0.5740770000000  0.5241460000000  0.5091740000000 1.0
C      1  0.4897660000000  0.5623280000000  0.5425910000000 1.0
C      1  0.5311070000000  0.4880030000000  0.4245420000000 1.0
C      1  0.4359720000000  0.4876190000000  0.4804590000000 1.0
C      1  0.5202000000000  0.5649420000000  0.4809460000000 1.0
C      1  0.5541420000000  0.5208930000000  0.4656760000000 1.0
C      1  0.4305520000000  0.5157140000000  0.4679690000000 1.0
C      1  0.5032230000000  0.4857210000000  0.4187130000000 1.0
C      1  0.4650480000000  0.4888720000000  0.4876760000000 1.0
C      1  0.4367470000000  0.4948390000000  0.4518240000000 1.0
C      1  0.4309580000000  0.5332880000000  0.5109790000000 1.0
C      1  0.4449930000000  0.4782320000000  0.5497690000000 1.0
C      1  0.4820880000000  0.5453470000000  0.4547780000000 1.0
C      1  0.4692800000000  0.5055120000000  0.5118170000000 1.0
C      1  0.5008110000000  0.5737700000000  0.4993100000000 1.0
C      1  0.5692820000000  0.4790420000000  0.4889550000000 1.0
C      1  0.5283470000000  0.4762010000000  0.5631960000000 1.0
C      1  0.4990920000000  0.5151580000000  0.4188920000000 1.0
C      1  0.5105520000000  0.5512960000000  0.4583600000000 1.0
C      1  0.4394900000000  0.5367860000000  0.4836240000000 1.0
C      1  0.4823340000000  0.4730130000000  0.4322200000000 1.0
C      1  0.4704680000000  0.4743150000000  0.5633380000000 1.0
END
