TITL C-2114526-3908-3 0.221063799731663 125000 -626.97227183789 0 0 89 (C1) n - 1
REM
REM in /nfs/bkarasulu/CARBON/AIRSS/Generating-Clusters/GAP-ML-2020/Only-C1/SD-CG/HFTN-CG
REM
REM
REM
REM
REM
REM ./C.cell (11c1c37f851c82e70ff6c80c92926a4b)
REM
REM compiler GCC version 9.2.1 20190827 (Red Hat 9.2.1-1)
REM options -cpp -mtune=generic -march=x86-64 -g -O0 -fpre-include=/usr/include/finclude/math-vector-fortran.h
REM seed -990050999 829163824 1415105404 1911883736 1969291478 -1767013254 724697379 -1440046782 1967310547 1479891367 1328723892 337635313 1056635736 13776752 -466292449 -20149730 728478200 1988939991 183439155 131581414 832969287 -1396161399 -1012649004 1064225280 -1959863329 -1674537077 470874770 -1667341014 1320433260 -1761259802 -1695828336 2074476193 1774458220
REM
CELL 1.54180   50.00000   50.00000   50.00000   90.00000   90.00000   90.00000
LATT -1
SFAC C  
C      1  0.5290240000000  0.4706200000000  0.5740340000000 1.0
C      1  0.5522220000000  0.5626060000000  0.4621710000000 1.0
C      1  0.4258420000000  0.5444280000000  0.4792000000000 1.0
C      1  0.5255470000000  0.4779180000000  0.5146550000000 1.0
C      1  0.4331950000000  0.4708590000000  0.5160950000000 1.0
C      1  0.5176720000000  0.5213350000000  0.4984660000000 1.0
C      1  0.5770340000000  0.4864840000000  0.4921040000000 1.0
C      1  0.4617390000000  0.5264350000000  0.5623540000000 1.0
C      1  0.4214630000000  0.5182400000000  0.4889500000000 1.0
C      1  0.4848570000000  0.4168030000000  0.4948700000000 1.0
C      1  0.5423600000000  0.4509950000000  0.5125300000000 1.0
C      1  0.5524780000000  0.4720170000000  0.4485060000000 1.0
C      1  0.4998430000000  0.5644490000000  0.4551250000000 1.0
C      1  0.4343720000000  0.4950290000000  0.5327150000000 1.0
C      1  0.5665820000000  0.5413660000000  0.4744400000000 1.0
C      1  0.5198060000000  0.5501120000000  0.5076690000000 1.0
C      1  0.5012800000000  0.4746240000000  0.4970410000000 1.0
C      1  0.5847040000000  0.5091650000000  0.5079570000000 1.0
C      1  0.4865180000000  0.4014150000000  0.5194710000000 1.0
C      1  0.5835130000000  0.5493230000000  0.5458480000000 1.0
C      1  0.5105790000000  0.4552380000000  0.5564200000000 1.0
C      1  0.4867370000000  0.5612100000000  0.5353120000000 1.0
C      1  0.4375470000000  0.4223970000000  0.5096930000000 1.0
C      1  0.4319250000000  0.4713670000000  0.4866950000000 1.0
C      1  0.5716980000000  0.4758120000000  0.5383660000000 1.0
C      1  0.5832560000000  0.5018370000000  0.5362350000000 1.0
C      1  0.4894560000000  0.4967040000000  0.5849150000000 1.0
C      1  0.5435380000000  0.4775950000000  0.4232160000000 1.0
C      1  0.4415780000000  0.5592380000000  0.4595850000000 1.0
C      1  0.5307950000000  0.4580240000000  0.4637690000000 1.0
C      1  0.4806970000000  0.4550450000000  0.5603780000000 1.0
C      1  0.5383400000000  0.5058860000000  0.5127550000000 1.0
C      1  0.4684050000000  0.5079380000000  0.4851520000000 1.0
C      1  0.4614640000000  0.5473130000000  0.5428860000000 1.0
C      1  0.4696340000000  0.4867040000000  0.4153510000000 1.0
C      1  0.5742590000000  0.5363280000000  0.5018120000000 1.0
C      1  0.4400770000000  0.5589250000000  0.5000180000000 1.0
C      1  0.4336890000000  0.4997590000000  0.4440950000000 1.0
C      1  0.4835860000000  0.5249230000000  0.5803070000000 1.0
C      1  0.4645910000000  0.4380820000000  0.5445170000000 1.0
C      1  0.4546530000000  0.5490120000000  0.4379280000000 1.0
C      1  0.5183780000000  0.4880830000000  0.4180770000000 1.0
C      1  0.4858630000000  0.5717640000000  0.4810780000000 1.0
C      1  0.5095480000000  0.5557330000000  0.5519630000000 1.0
C      1  0.5582480000000  0.5181710000000  0.4592250000000 1.0
C      1  0.5166060000000  0.5170030000000  0.4226840000000 1.0
C      1  0.5077740000000  0.5392040000000  0.5761530000000 1.0
C      1  0.5646700000000  0.5502400000000  0.5260290000000 1.0
C      1  0.5682570000000  0.4662460000000  0.5117580000000 1.0
C      1  0.5345150000000  0.5189420000000  0.5396170000000 1.0
C      1  0.5119400000000  0.5109330000000  0.4698490000000 1.0
C      1  0.4464430000000  0.5227420000000  0.4300760000000 1.0
C      1  0.4481970000000  0.4777870000000  0.4328960000000 1.0
C      1  0.5061550000000  0.5073630000000  0.5422530000000 1.0
C      1  0.4964460000000  0.5659390000000  0.5072300000000 1.0
C      1  0.4937510000000  0.4727260000000  0.4198260000000 1.0
C      1  0.5293390000000  0.5199470000000  0.5828960000000 1.0
C      1  0.5075690000000  0.4263290000000  0.4796130000000 1.0
C      1  0.5075380000000  0.4405250000000  0.4542820000000 1.0
C      1  0.5766170000000  0.5238590000000  0.5539590000000 1.0
C      1  0.4414750000000  0.5435710000000  0.5232330000000 1.0
C      1  0.5666070000000  0.4916070000000  0.4656270000000 1.0
C      1  0.5124950000000  0.4812420000000  0.4721230000000 1.0
C      1  0.4833160000000  0.5156570000000  0.4651870000000 1.0
C      1  0.4944310000000  0.5137160000000  0.5171770000000 1.0
C      1  0.4801760000000  0.4926340000000  0.5049400000000 1.0
C      1  0.4687960000000  0.5144230000000  0.4143860000000 1.0
C      1  0.5179760000000  0.4938150000000  0.5870970000000 1.0
C      1  0.4576040000000  0.5717790000000  0.4806470000000 1.0
C      1  0.4246870000000  0.4953530000000  0.4720090000000 1.0
C      1  0.5328050000000  0.5484790000000  0.5335510000000 1.0
C      1  0.4474590000000  0.4504110000000  0.4733310000000 1.0
C      1  0.4727460000000  0.4121200000000  0.5382140000000 1.0
C      1  0.5273040000000  0.5551260000000  0.4531260000000 1.0
C      1  0.4868580000000  0.4519660000000  0.4389400000000 1.0
C      1  0.4834430000000  0.5528820000000  0.4344290000000 1.0
C      1  0.5324850000000  0.4386260000000  0.4874850000000 1.0
C      1  0.5117690000000  0.4797100000000  0.5395700000000 1.0
C      1  0.5503800000000  0.5183230000000  0.5643960000000 1.0
C      1  0.4922160000000  0.5304090000000  0.4185740000000 1.0
C      1  0.4433180000000  0.4452040000000  0.5251820000000 1.0
C      1  0.4587230000000  0.4559740000000  0.4476690000000 1.0
C      1  0.4712750000000  0.4812880000000  0.5693000000000 1.0
C      1  0.5365450000000  0.4441100000000  0.5416590000000 1.0
C      1  0.5301660000000  0.5250690000000  0.4482330000000 1.0
C      1  0.4569110000000  0.4290360000000  0.4906880000000 1.0
C      1  0.4290290000000  0.5182090000000  0.5169970000000 1.0
C      1  0.4518870000000  0.4996280000000  0.5564450000000 1.0
C      1  0.5527110000000  0.4625340000000  0.5567120000000 1.0
END
