TITL C-2114526-3908-14 6.98612301342219 125000 -367.319362355688 0 0 55 (C1) n - 1
REM
REM in /nfs/bkarasulu/CARBON/AIRSS/Generating-Clusters/GAP-ML-2020/Only-C1/SD-CG/HFTN-CG
REM
REM
REM
REM
REM
REM ./C.cell (11c1c37f851c82e70ff6c80c92926a4b)
REM
REM compiler GCC version 9.2.1 20190827 (Red Hat 9.2.1-1)
REM options -cpp -mtune=generic -march=x86-64 -g -O0 -fpre-include=/usr/include/finclude/math-vector-fortran.h
REM seed 1818526379 88414771 -1187572614 659224832 -1913118600 -1384814039 942310751 -1286243760 1968627963 1728731586 -1559614481 -1303026323 -1363622086 -329265875 470706744 1733835907 985917923 21342426 -976187601 243073995 -230721998 -707627675 566195749 209926280 80681011 -347492997 -636940914 892397248 1633748879 -1534160332 321493576 -997960677 2057097981
REM
CELL 1.54180   50.00000   50.00000   50.00000   90.00000   90.00000   90.00000
LATT -1
SFAC C  
C      1  0.5500830000000  0.4831950000000  0.4837580000000 1.0
C      1  0.4471880000000  0.5308630000000  0.4950610000000 1.0
C      1  0.4904340000000  0.5430110000000  0.4661440000000 1.0
C      1  0.5697570000000  0.5395030000000  0.5185880000000 1.0
C      1  0.5394220000000  0.4901710000000  0.5500850000000 1.0
C      1  0.5335820000000  0.4936620000000  0.5066690000000 1.0
C      1  0.4593860000000  0.4944870000000  0.5252220000000 1.0
C      1  0.5318350000000  0.4493710000000  0.5140660000000 1.0
C      1  0.5006900000000  0.4542010000000  0.5692590000000 1.0
C      1  0.5133180000000  0.5263640000000  0.4774710000000 1.0
C      1  0.5055330000000  0.5075310000000  0.5049950000000 1.0
C      1  0.4809960000000  0.4650050000000  0.4365780000000 1.0
C      1  0.4914040000000  0.4809460000000  0.5626750000000 1.0
C      1  0.4553430000000  0.4420000000000  0.4852580000000 1.0
C      1  0.4448380000000  0.4944280000000  0.4335010000000 1.0
C      1  0.5752490000000  0.5114370000000  0.5196060000000 1.0
C      1  0.4848240000000  0.5614570000000  0.4869960000000 1.0
C      1  0.5541000000000  0.5377330000000  0.5436410000000 1.0
C      1  0.4932230000000  0.4402940000000  0.5472050000000 1.0
C      1  0.5387120000000  0.4549790000000  0.4865310000000 1.0
C      1  0.5282490000000  0.5429670000000  0.5390610000000 1.0
C      1  0.5250110000000  0.4574180000000  0.4609030000000 1.0
C      1  0.5111020000000  0.4998270000000  0.5544780000000 1.0
C      1  0.5053550000000  0.5221220000000  0.5350080000000 1.0
C      1  0.4881680000000  0.5483860000000  0.5383080000000 1.0
C      1  0.4768080000000  0.5299550000000  0.4456420000000 1.0
C      1  0.4440470000000  0.5177280000000  0.5216850000000 1.0
C      1  0.4502880000000  0.4646310000000  0.4694480000000 1.0
C      1  0.4957070000000  0.5096810000000  0.4386970000000 1.0
C      1  0.4648070000000  0.4775030000000  0.5473110000000 1.0
C      1  0.4807720000000  0.4889830000000  0.5033000000000 1.0
C      1  0.4599180000000  0.4456020000000  0.5127740000000 1.0
C      1  0.4877440000000  0.4570420000000  0.5037700000000 1.0
C      1  0.5191490000000  0.5079000000000  0.4543760000000 1.0
C      1  0.4859760000000  0.4875930000000  0.4525410000000 1.0
C      1  0.5057710000000  0.4418540000000  0.5216960000000 1.0
C      1  0.5688480000000  0.5252370000000  0.4756910000000 1.0
C      1  0.4489170000000  0.5185240000000  0.4447360000000 1.0
C      1  0.4622420000000  0.5548950000000  0.5312170000000 1.0
C      1  0.5102410000000  0.5657390000000  0.5008800000000 1.0
C      1  0.5390450000000  0.4732800000000  0.5276120000000 1.0
C      1  0.4521290000000  0.4681660000000  0.4407140000000 1.0
C      1  0.4661480000000  0.4899690000000  0.4766680000000 1.0
C      1  0.4834160000000  0.4438380000000  0.4772840000000 1.0
C      1  0.5717370000000  0.5016630000000  0.4912720000000 1.0
C      1  0.5107010000000  0.5639530000000  0.5292550000000 1.0
C      1  0.4421670000000  0.5379660000000  0.5405970000000 1.0
C      1  0.5603080000000  0.5087440000000  0.5450670000000 1.0
C      1  0.5351660000000  0.4845760000000  0.4578200000000 1.0
C      1  0.4609670000000  0.5558020000000  0.5010520000000 1.0
C      1  0.4628710000000  0.4491570000000  0.5397910000000 1.0
C      1  0.4504380000000  0.5143830000000  0.4733040000000 1.0
C      1  0.5302740000000  0.5490060000000  0.4882560000000 1.0
C      1  0.4975280000000  0.4497560000000  0.4537710000000 1.0
C      1  0.5580690000000  0.5455150000000  0.4927080000000 1.0
END
