TITL C-214949-4203-2 0.0426060575181639 125000 -306.634734719748 0 0 46 (C1) n - 1
REM
REM in /rds/project/t2_vol4/rds-t2-cs072/BORA/CARBON/from-Arr/AIRSS/Generating-Clusters/GAP-ML-2020/Only-C1/SD-CG/HFTN-CG
REM
REM
REM
REM
REM
REM ./C.cell (11c1c37f851c82e70ff6c80c92926a4b)
REM AIRSS Version 0.9.1 bugfix July 2018 build 013d7b7c2542+ Fri, 06 Jul 2018 19:26:36 +0100
REM compiler GCC version 9.3.0
REM options -cpp -mtune=generic -march=x86-64 -g -O0
REM seed 11394571 -2022764725 667245103 -1833206124 707062407 1662835377 -422184484 1716353447 1425727660 -409864580 657626681 -2030197365 -441542827 1683569648 -1113242378 -20429999 -59621619 -1393437091 1730968298 -520407407 -1291375942 -1746521559 -4955423 -1854174652 -1199385837 -1914116702 1267991432 -659268500 -1327186925 1237167542 -1284997186 -1106244140 -1015602089
REM
CELL 1.54180   50.00000   50.00000   50.00000   90.00000   90.00000   90.00000
LATT -1
SFAC C  
C      1  0.4558810000000  0.5275320000000  0.4554280000000 1.0
C      1  0.5393930000000  0.5328430000000  0.4843650000000 1.0
C      1  0.5176790000000  0.4939470000000  0.5150860000000 1.0
C      1  0.5247990000000  0.5458760000000  0.5054550000000 1.0
C      1  0.5392210000000  0.4935200000000  0.4603820000000 1.0
C      1  0.4843730000000  0.4861370000000  0.4837140000000 1.0
C      1  0.4992160000000  0.4490940000000  0.5082340000000 1.0
C      1  0.5093890000000  0.5188350000000  0.5056960000000 1.0
C      1  0.5292440000000  0.5209590000000  0.4609990000000 1.0
C      1  0.4991930000000  0.4705180000000  0.5580480000000 1.0
C      1  0.4866920000000  0.5193710000000  0.5632490000000 1.0
C      1  0.5217380000000  0.4616560000000  0.5472890000000 1.0
C      1  0.4432270000000  0.4958940000000  0.5014710000000 1.0
C      1  0.4770980000000  0.4791000000000  0.4404550000000 1.0
C      1  0.4826430000000  0.4932930000000  0.5561890000000 1.0
C      1  0.4987320000000  0.4979800000000  0.4377130000000 1.0
C      1  0.5179460000000  0.4778370000000  0.4493240000000 1.0
C      1  0.5401840000000  0.5411360000000  0.5301080000000 1.0
C      1  0.4718830000000  0.4911040000000  0.5275160000000 1.0
C      1  0.5267690000000  0.5455670000000  0.5527040000000 1.0
C      1  0.4939600000000  0.4644750000000  0.4612510000000 1.0
C      1  0.5580610000000  0.5154760000000  0.4962520000000 1.0
C      1  0.4634140000000  0.5155790000000  0.5087010000000 1.0
C      1  0.4862650000000  0.5149580000000  0.4882060000000 1.0
C      1  0.4535350000000  0.4893880000000  0.4519230000000 1.0
C      1  0.4860500000000  0.4438830000000  0.4822850000000 1.0
C      1  0.4854600000000  0.5547890000000  0.5291700000000 1.0
C      1  0.5496180000000  0.4462200000000  0.5107240000000 1.0
C      1  0.5574710000000  0.4893930000000  0.4836660000000 1.0
C      1  0.4810490000000  0.5347420000000  0.4663040000000 1.0
C      1  0.5590530000000  0.4965860000000  0.5382720000000 1.0
C      1  0.4580340000000  0.4508620000000  0.4868020000000 1.0
C      1  0.4984210000000  0.5414720000000  0.5510730000000 1.0
C      1  0.4653040000000  0.5447250000000  0.5113490000000 1.0
C      1  0.5236610000000  0.4450070000000  0.5222330000000 1.0
C      1  0.4542350000000  0.4801580000000  0.4793110000000 1.0
C      1  0.4797920000000  0.5551470000000  0.4875030000000 1.0
C      1  0.4444290000000  0.4501110000000  0.5107610000000 1.0
C      1  0.5604090000000  0.4664010000000  0.4991100000000 1.0
C      1  0.5582320000000  0.5197100000000  0.5240720000000 1.0
C      1  0.4397690000000  0.5121270000000  0.4422990000000 1.0
C      1  0.5009390000000  0.5625360000000  0.5049550000000 1.0
C      1  0.5037760000000  0.5229390000000  0.4495360000000 1.0
C      1  0.5330710000000  0.4872050000000  0.5385860000000 1.0
C      1  0.4469880000000  0.4754820000000  0.5213200000000 1.0
C      1  0.4937050000000  0.4784310000000  0.5109130000000 1.0
END
