TITL C-216142-3287-1 -0.0492693717147961 125000 -296.926644070614 0 0 45 (C1) n - 1
REM
REM in /rds/project/t2_vol4/rds-t2-cs072/BORA/CARBON/from-Arr/AIRSS/Generating-Clusters/GAP-ML-2020/Only-C1/SD-CG/HFTN-CG
REM
REM
REM
REM
REM
REM ./C.cell (11c1c37f851c82e70ff6c80c92926a4b)
REM AIRSS Version 0.9.1 bugfix July 2018 build 013d7b7c2542+ Fri, 06 Jul 2018 19:26:36 +0100
REM compiler GCC version 9.3.0
REM options -cpp -mtune=generic -march=x86-64 -g -O0
REM seed 356053880 -413824356 152521666 -1358781483 1921707148 -1527339801 -651295515 -327605766 562055899 1474552063 529086010 1143625034 -1403183927 928649519 6022862 -1670148230 1598594215 -1759991822 1093908411 1993112360 1710852674 2117872691 -389538664 -1436770291 723049331 -678061761 -919934774 464074674 1090780585 2097274210 654058400 -2072464870 -329831194
REM
CELL 1.54180   50.00000   50.00000   50.00000   90.00000   90.00000   90.00000
LATT -1
SFAC C  
C      1  0.4476440000000  0.4698100000000  0.4526170000000 1.0
C      1  0.4453870000000  0.4835820000000  0.4959690000000 1.0
C      1  0.4589140000000  0.4918720000000  0.5514870000000 1.0
C      1  0.5434120000000  0.5271710000000  0.5380720000000 1.0
C      1  0.5006290000000  0.4652580000000  0.4589990000000 1.0
C      1  0.4905500000000  0.4869810000000  0.4422810000000 1.0
C      1  0.4981520000000  0.5347000000000  0.4489040000000 1.0
C      1  0.5252690000000  0.4608220000000  0.5095160000000 1.0
C      1  0.5604170000000  0.5434230000000  0.5241050000000 1.0
C      1  0.4723290000000  0.4671480000000  0.5560750000000 1.0
C      1  0.5588560000000  0.5303360000000  0.4993800000000 1.0
C      1  0.4392920000000  0.5065450000000  0.4790460000000 1.0
C      1  0.4523720000000  0.5481520000000  0.5047010000000 1.0
C      1  0.5011200000000  0.5481170000000  0.5193320000000 1.0
C      1  0.5190540000000  0.5071890000000  0.4882440000000 1.0
C      1  0.4994830000000  0.5164180000000  0.5560630000000 1.0
C      1  0.5656370000000  0.5017190000000  0.5032990000000 1.0
C      1  0.5640020000000  0.4799400000000  0.4885050000000 1.0
C      1  0.4569340000000  0.4633380000000  0.4786360000000 1.0
C      1  0.4798980000000  0.5073340000000  0.5143560000000 1.0
C      1  0.4777640000000  0.5301320000000  0.4711110000000 1.0
C      1  0.4781870000000  0.4603280000000  0.5263120000000 1.0
C      1  0.4734540000000  0.5384330000000  0.5196930000000 1.0
C      1  0.5284030000000  0.4987470000000  0.4612760000000 1.0
C      1  0.4380920000000  0.4960790000000  0.4516650000000 1.0
C      1  0.5131650000000  0.5520430000000  0.4932660000000 1.0
C      1  0.4965470000000  0.4525460000000  0.5060340000000 1.0
C      1  0.5157770000000  0.5349550000000  0.5412380000000 1.0
C      1  0.5276230000000  0.4702020000000  0.4632920000000 1.0
C      1  0.4966320000000  0.5519930000000  0.4698710000000 1.0
C      1  0.5499570000000  0.4982840000000  0.5286840000000 1.0
C      1  0.5247050000000  0.4914520000000  0.5144160000000 1.0
C      1  0.5424640000000  0.4524580000000  0.5339040000000 1.0
C      1  0.5083460000000  0.5094430000000  0.4437480000000 1.0
C      1  0.4726510000000  0.5134350000000  0.5622980000000 1.0
C      1  0.5548140000000  0.4729600000000  0.5433540000000 1.0
C      1  0.4596650000000  0.4871300000000  0.5203290000000 1.0
C      1  0.4963680000000  0.4721270000000  0.5458140000000 1.0
C      1  0.4842360000000  0.4552760000000  0.4804980000000 1.0
C      1  0.5024250000000  0.4980940000000  0.5328260000000 1.0
C      1  0.4630710000000  0.4877160000000  0.4381800000000 1.0
C      1  0.5429550000000  0.4621660000000  0.4852800000000 1.0
C      1  0.4500050000000  0.5328420000000  0.4822040000000 1.0
C      1  0.5333180000000  0.5326890000000  0.4880240000000 1.0
C      1  0.4900260000000  0.5086140000000  0.4870970000000 1.0
END
