TITL C-21713-8264-8 -318.760256165963 125000 -577.843199727262 0 0 84 (C1) n - 1
REM
REM in /rds/project/t2_vol4/rds-t2-cs072/BORA/CARBON/from-Arr/AIRSS/Generating-Clusters/GAP-ML-2020/Only-C1/SD-CG/HFTN-CG
REM
REM
REM
REM
REM
REM ./C.cell (11c1c37f851c82e70ff6c80c92926a4b)
REM AIRSS Version 0.9.1 bugfix July 2018 build 013d7b7c2542+ Fri, 06 Jul 2018 19:26:36 +0100
REM compiler GCC version 9.3.0
REM options -cpp -mtune=generic -march=x86-64 -g -O0
REM seed 1313897771 -445067055 1444279267 1044124826 1177751166 140760093 -1789969725 1888754825 -684640977 -1406929519 91841118 1053006743 -648300931 -655781427 1976982841 1562894124 1798009736 -967770971 -138369599 -1679411189 1636661119 -133326525 1292908303 2037776542 -1654636667 1611786086 -1136847794 -884968914 -777531365 -1657026525 -76789648 -1622920182 -634654774
REM
CELL 1.54180   50.00000   50.00000   50.00000   90.00000   90.00000   90.00000
LATT -1
SFAC C  
C      1  0.4382020000000  0.5040100000000  0.5116620000000 1.0
C      1  0.5011750000000  0.5310810000000  0.5619610000000 1.0
C      1  0.5606680000000  0.4905360000000  0.5445310000000 1.0
C      1  0.4531100000000  0.4857110000000  0.5317990000000 1.0
C      1  0.5743150000000  0.4836040000000  0.4978120000000 1.0
C      1  0.5414660000000  0.5016910000000  0.5634370000000 1.0
C      1  0.4957020000000  0.5583210000000  0.5458520000000 1.0
C      1  0.4409890000000  0.5297540000000  0.5821810000000 1.0
C      1  0.4942620000000  0.4398850000000  0.5350250000000 1.0
C      1  0.4603590000000  0.5110400000000  0.5900540000000 1.0
C      1  0.4751940000000  0.4398560000000  0.4596930000000 1.0
C      1  0.5033320000000  0.5757150000000  0.4504550000000 1.0
C      1  0.4684440000000  0.4471970000000  0.5483210000000 1.0
C      1  0.4983330000000  0.5163010000000  0.5356340000000 1.0
C      1  0.4773490000000  0.4413260000000  0.4897240000000 1.0
C      1  0.5729000000000  0.5255610000000  0.4850470000000 1.0
C      1  0.5305260000000  0.5000260000000  0.5056260000000 1.0
C      1  0.4154840000000  0.4910450000000  0.4987530000000 1.0
C      1  0.5205420000000  0.5665920000000  0.5400650000000 1.0
C      1  0.4513310000000  0.4530720000000  0.4541740000000 1.0
C      1  0.4289180000000  0.4911490000000  0.4509860000000 1.0
C      1  0.4868910000000  0.4901390000000  0.5375120000000 1.0
C      1  0.4413320000000  0.5141770000000  0.4584600000000 1.0
C      1  0.5085100000000  0.5103980000000  0.4830310000000 1.0
C      1  0.4856450000000  0.4701580000000  0.4966890000000 1.0
C      1  0.4503600000000  0.4467640000000  0.5009920000000 1.0
C      1  0.5229710000000  0.4804690000000  0.5709890000000 1.0
C      1  0.4519190000000  0.5423840000000  0.4889310000000 1.0
C      1  0.5309780000000  0.5750390000000  0.4582130000000 1.0
C      1  0.5769860000000  0.4991710000000  0.5227600000000 1.0
C      1  0.4762860000000  0.4891180000000  0.4284350000000 1.0
C      1  0.5206940000000  0.5241130000000  0.5194970000000 1.0
C      1  0.4787840000000  0.5615590000000  0.5224190000000 1.0
C      1  0.4849570000000  0.5688880000000  0.4709890000000 1.0
C      1  0.5297310000000  0.4708550000000  0.4680060000000 1.0
C      1  0.5347360000000  0.5043400000000  0.4365460000000 1.0
C      1  0.4343890000000  0.4537770000000  0.4781480000000 1.0
C      1  0.5318240000000  0.5283090000000  0.5625780000000 1.0
C      1  0.5271560000000  0.4784710000000  0.4267880000000 1.0
C      1  0.4526480000000  0.5506500000000  0.5164710000000 1.0
C      1  0.5681180000000  0.4595770000000  0.4844370000000 1.0
C      1  0.5315340000000  0.4552650000000  0.5601610000000 1.0
C      1  0.4510270000000  0.4771490000000  0.4387540000000 1.0
C      1  0.5304630000000  0.5317670000000  0.4321760000000 1.0
C      1  0.4625140000000  0.5528980000000  0.4651690000000 1.0
C      1  0.5098830000000  0.5368620000000  0.4961340000000 1.0
C      1  0.5565740000000  0.5644060000000  0.4957060000000 1.0
C      1  0.5278420000000  0.4284280000000  0.4787890000000 1.0
C      1  0.5140350000000  0.4354340000000  0.5556000000000 1.0
C      1  0.4971690000000  0.4450520000000  0.4428680000000 1.0
C      1  0.5000000000000  0.4687630000000  0.5213500000000 1.0
C      1  0.4506790000000  0.4827250000000  0.5794990000000 1.0
C      1  0.4787370000000  0.5189590000000  0.4285450000000 1.0
C      1  0.4868410000000  0.5126250000000  0.5806750000000 1.0
C      1  0.5463630000000  0.4668270000000  0.5386250000000 1.0
C      1  0.5415560000000  0.4575540000000  0.4438030000000 1.0
C      1  0.4508840000000  0.4560790000000  0.5279420000000 1.0
C      1  0.5550160000000  0.5024210000000  0.4852630000000 1.0
C      1  0.5422490000000  0.5837330000000  0.4826250000000 1.0
C      1  0.4547750000000  0.5129050000000  0.4864430000000 1.0
C      1  0.5390220000000  0.5452070000000  0.5390300000000 1.0
C      1  0.4182340000000  0.4771140000000  0.4756700000000 1.0
C      1  0.4945760000000  0.5612590000000  0.4976300000000 1.0
C      1  0.5625230000000  0.5477190000000  0.4720110000000 1.0
C      1  0.5320730000000  0.4993680000000  0.4660110000000 1.0
C      1  0.4589560000000  0.5316200000000  0.4450120000000 1.0
C      1  0.4990560000000  0.4708410000000  0.4290370000000 1.0
C      1  0.5445610000000  0.5509110000000  0.4496140000000 1.0
C      1  0.4826940000000  0.4965100000000  0.4862470000000 1.0
C      1  0.5140430000000  0.4107200000000  0.4952060000000 1.0
C      1  0.5024170000000  0.5372820000000  0.4250930000000 1.0
C      1  0.5231530000000  0.4356690000000  0.4510750000000 1.0
C      1  0.4981440000000  0.5645670000000  0.4253040000000 1.0
C      1  0.5777380000000  0.5271660000000  0.5134290000000 1.0
C      1  0.4942720000000  0.4852810000000  0.5704260000000 1.0
C      1  0.5622850000000  0.5499560000000  0.5209610000000 1.0
C      1  0.5387250000000  0.4552660000000  0.4909110000000 1.0
C      1  0.4940400000000  0.4243890000000  0.5081790000000 1.0
C      1  0.5666500000000  0.4575640000000  0.4563220000000 1.0
C      1  0.4374670000000  0.5294910000000  0.5291350000000 1.0
C      1  0.5290520000000  0.4715280000000  0.5144360000000 1.0
C      1  0.4388170000000  0.4921110000000  0.5561000000000 1.0
C      1  0.4719080000000  0.4654620000000  0.5719240000000 1.0
C      1  0.4339350000000  0.5213180000000  0.5564230000000 1.0
END
