TITL C-216134-3272-5 0.107704692016704 125000 -465.38166296142 0 0 68 (C1) n - 1
REM
REM in /rds/project/t2_vol4/rds-t2-cs072/BORA/CARBON/from-Arr/AIRSS/Generating-Clusters/GAP-ML-2020/Only-C1/SD-CG/HFTN-CG
REM
REM
REM
REM
REM
REM ./C.cell (11c1c37f851c82e70ff6c80c92926a4b)
REM AIRSS Version 0.9.1 bugfix July 2018 build 013d7b7c2542+ Fri, 06 Jul 2018 19:26:36 +0100
REM compiler GCC version 9.3.0
REM options -cpp -mtune=generic -march=x86-64 -g -O0
REM seed -1926963926 -1189414462 548876236 1661709605 -767324068 2126096816 -1285993968 2063485466 1707060975 2041440617 351275265 -1519520470 -1045806338 -318252803 -163328567 228967349 -1927776379 230739769 40492773 -465810524 -1425995495 365330186 -847783474 356843996 45663738 -43044979 -83591070 -1305772724 -513128891 1773449961 -1527375319 1385512882 -1079116060
REM
CELL 1.54180   50.00000   50.00000   50.00000   90.00000   90.00000   90.00000
LATT -1
SFAC C  
C      1  0.5644400000000  0.4660240000000  0.4982470000000 1.0
C      1  0.4597250000000  0.4455330000000  0.4992540000000 1.0
C      1  0.4421360000000  0.5333090000000  0.5348910000000 1.0
C      1  0.5376260000000  0.4957140000000  0.5607730000000 1.0
C      1  0.5041360000000  0.5677850000000  0.5055220000000 1.0
C      1  0.4580540000000  0.5540940000000  0.4880670000000 1.0
C      1  0.4504970000000  0.4673630000000  0.5684730000000 1.0
C      1  0.4880240000000  0.5247020000000  0.5107170000000 1.0
C      1  0.4590420000000  0.5361840000000  0.4442460000000 1.0
C      1  0.5171320000000  0.4908830000000  0.5793230000000 1.0
C      1  0.5362160000000  0.5495430000000  0.5461100000000 1.0
C      1  0.4442340000000  0.5180510000000  0.4612260000000 1.0
C      1  0.4934940000000  0.4763170000000  0.4405290000000 1.0
C      1  0.4613580000000  0.5527920000000  0.5362260000000 1.0
C      1  0.5281200000000  0.4502910000000  0.5379200000000 1.0
C      1  0.4686480000000  0.4689200000000  0.4539340000000 1.0
C      1  0.4794180000000  0.4309740000000  0.5151880000000 1.0
C      1  0.5444730000000  0.5307430000000  0.4496030000000 1.0
C      1  0.4964110000000  0.4328760000000  0.4740320000000 1.0
C      1  0.4337820000000  0.5176910000000  0.5116880000000 1.0
C      1  0.4515670000000  0.4905420000000  0.4578680000000 1.0
C      1  0.5482410000000  0.5510880000000  0.5204720000000 1.0
C      1  0.4554350000000  0.4562910000000  0.5437250000000 1.0
C      1  0.4458070000000  0.4637550000000  0.5172280000000 1.0
C      1  0.5142660000000  0.5570400000000  0.4797340000000 1.0
C      1  0.4807640000000  0.5270820000000  0.4275760000000 1.0
C      1  0.5611740000000  0.4833720000000  0.5201470000000 1.0
C      1  0.4949830000000  0.5009470000000  0.4236920000000 1.0
C      1  0.5569440000000  0.5075760000000  0.5011790000000 1.0
C      1  0.4686190000000  0.5569370000000  0.4618060000000 1.0
C      1  0.4995410000000  0.5115590000000  0.4654870000000 1.0
C      1  0.5443430000000  0.4753170000000  0.5416410000000 1.0
C      1  0.5150390000000  0.4815800000000  0.4951280000000 1.0
C      1  0.5035410000000  0.4277520000000  0.5015170000000 1.0
C      1  0.5620070000000  0.4873340000000  0.4798520000000 1.0
C      1  0.5284760000000  0.4367500000000  0.5121950000000 1.0
C      1  0.4766170000000  0.5140370000000  0.5725500000000 1.0
C      1  0.4916020000000  0.4784490000000  0.5104340000000 1.0
C      1  0.4961690000000  0.4889490000000  0.5368490000000 1.0
C      1  0.5039780000000  0.4487550000000  0.5532730000000 1.0
C      1  0.5085240000000  0.5263960000000  0.4882510000000 1.0
C      1  0.4389840000000  0.5320780000000  0.4871940000000 1.0
C      1  0.5240600000000  0.5240750000000  0.5551110000000 1.0
C      1  0.4767440000000  0.5554650000000  0.5110520000000 1.0
C      1  0.5046510000000  0.5168340000000  0.5767520000000 1.0
C      1  0.5395680000000  0.4494950000000  0.4642340000000 1.0
C      1  0.4963360000000  0.5616130000000  0.4568770000000 1.0
C      1  0.5170220000000  0.4367950000000  0.4571140000000 1.0
C      1  0.4713770000000  0.4841730000000  0.5737190000000 1.0
C      1  0.5224940000000  0.5085950000000  0.4213690000000 1.0
C      1  0.5241530000000  0.5643200000000  0.5241790000000 1.0
C      1  0.4444730000000  0.4914380000000  0.5101180000000 1.0
C      1  0.5438570000000  0.5012620000000  0.4389850000000 1.0
C      1  0.5421970000000  0.5449800000000  0.4740560000000 1.0
C      1  0.5572850000000  0.5373450000000  0.4979450000000 1.0
C      1  0.5015190000000  0.5473860000000  0.4328260000000 1.0
C      1  0.5433360000000  0.4801490000000  0.4583060000000 1.0
C      1  0.5255160000000  0.5079410000000  0.5046710000000 1.0
C      1  0.4728220000000  0.4994610000000  0.5019100000000 1.0
C      1  0.4796000000000  0.4403560000000  0.5412960000000 1.0
C      1  0.4729710000000  0.5021000000000  0.4737040000000 1.0
C      1  0.4709280000000  0.4474410000000  0.4728810000000 1.0
C      1  0.5478280000000  0.4444130000000  0.4916420000000 1.0
C      1  0.4985820000000  0.4735020000000  0.5673980000000 1.0
C      1  0.5090600000000  0.5135820000000  0.5305720000000 1.0
C      1  0.5131240000000  0.4850040000000  0.4650160000000 1.0
C      1  0.4608560000000  0.5325340000000  0.5565080000000 1.0
C      1  0.5260510000000  0.5363630000000  0.4279940000000 1.0
END
