TITL C-21810-3078-2 0.0345199162798419 125000 -803.650490963962 0 0 116 (C1) n - 1
REM
REM in /rds/project/t2_vol4/rds-t2-cs072/BORA/CARBON/from-Arr/AIRSS/Generating-Clusters/GAP-ML-2020/Only-C1/SD-CG/HFTN-CG
REM
REM
REM
REM
REM
REM ./C.cell (11c1c37f851c82e70ff6c80c92926a4b)
REM AIRSS Version 0.9.1 bugfix July 2018 build 013d7b7c2542+ Fri, 06 Jul 2018 19:26:36 +0100
REM compiler GCC version 9.3.0
REM options -cpp -mtune=generic -march=x86-64 -g -O0
REM seed 1835285346 1300396550 113867087 589080741 -344948501 534758872 160918823 705782604 -1429239541 333768616 1394890351 60857495 1573710540 -1661349626 135446630 915061484 791019406 -366812457 1599063001 285237062 -1143044719 890529210 1039005879 -1442935777 1521763312 1707900967 -1318562830 -753504902 591069138 923195442 -777753941 1656363368 -1023340114
REM
CELL 1.54180   50.00000   50.00000   50.00000   90.00000   90.00000   90.00000
LATT -1
SFAC C  
C      1  0.4673830000000  0.5429500000000  0.4934490000000 1.0
C      1  0.5598820000000  0.5713230000000  0.5449160000000 1.0
C      1  0.4839730000000  0.5461160000000  0.4696450000000 1.0
C      1  0.5853100000000  0.4538890000000  0.5126670000000 1.0
C      1  0.5561150000000  0.4910470000000  0.5676810000000 1.0
C      1  0.4220400000000  0.5445670000000  0.5116610000000 1.0
C      1  0.5118810000000  0.5442240000000  0.4768830000000 1.0
C      1  0.4636940000000  0.4598920000000  0.5773470000000 1.0
C      1  0.4617840000000  0.4237250000000  0.4922830000000 1.0
C      1  0.4564070000000  0.4702630000000  0.4913750000000 1.0
C      1  0.5256240000000  0.5688500000000  0.5121430000000 1.0
C      1  0.4788140000000  0.5245980000000  0.4515400000000 1.0
C      1  0.5847730000000  0.5069750000000  0.5169040000000 1.0
C      1  0.4590170000000  0.5132190000000  0.5772900000000 1.0
C      1  0.5305540000000  0.4853440000000  0.5786180000000 1.0
C      1  0.4952830000000  0.5560240000000  0.4212500000000 1.0
C      1  0.4456750000000  0.5584220000000  0.5756160000000 1.0
C      1  0.5182330000000  0.4135120000000  0.4822420000000 1.0
C      1  0.5133980000000  0.4753420000000  0.4447580000000 1.0
C      1  0.5772690000000  0.5151370000000  0.4618180000000 1.0
C      1  0.5737510000000  0.4624340000000  0.4645850000000 1.0
C      1  0.5610830000000  0.4909330000000  0.4249560000000 1.0
C      1  0.5121300000000  0.4219980000000  0.5500000000000 1.0
C      1  0.5331530000000  0.5236910000000  0.4697020000000 1.0
C      1  0.5506570000000  0.5273810000000  0.4944740000000 1.0
C      1  0.4621970000000  0.5043510000000  0.4154440000000 1.0
C      1  0.4632920000000  0.5786820000000  0.5073450000000 1.0
C      1  0.5229090000000  0.4953430000000  0.4703850000000 1.0
C      1  0.4080650000000  0.5066600000000  0.4904010000000 1.0
C      1  0.5041990000000  0.4915240000000  0.5374550000000 1.0
C      1  0.4370340000000  0.5570670000000  0.4634900000000 1.0
C      1  0.4349680000000  0.4995970000000  0.5293410000000 1.0
C      1  0.5544960000000  0.5634780000000  0.4709580000000 1.0
C      1  0.5414820000000  0.5470530000000  0.4292430000000 1.0
C      1  0.5125350000000  0.4883700000000  0.4174780000000 1.0
C      1  0.5747460000000  0.5266340000000  0.5352010000000 1.0
C      1  0.4372670000000  0.4560250000000  0.5389620000000 1.0
C      1  0.4821190000000  0.4587500000000  0.4783310000000 1.0
C      1  0.5459610000000  0.4258120000000  0.5168440000000 1.0
C      1  0.4327830000000  0.5317850000000  0.4515360000000 1.0
C      1  0.5707920000000  0.4343320000000  0.5287120000000 1.0
C      1  0.5742670000000  0.4888220000000  0.4486900000000 1.0
C      1  0.4833350000000  0.5326220000000  0.5153650000000 1.0
C      1  0.4864180000000  0.5227200000000  0.5782010000000 1.0
C      1  0.4834260000000  0.5888450000000  0.4893680000000 1.0
C      1  0.5315370000000  0.5284560000000  0.4104600000000 1.0
C      1  0.4632620000000  0.5417560000000  0.5331860000000 1.0
C      1  0.4966280000000  0.4958150000000  0.4877020000000 1.0
C      1  0.4478600000000  0.4908110000000  0.4704660000000 1.0
C      1  0.5896530000000  0.4554260000000  0.4857170000000 1.0
C      1  0.5033210000000  0.5318120000000  0.4082130000000 1.0
C      1  0.5048170000000  0.4067380000000  0.5066280000000 1.0
C      1  0.4765160000000  0.4993880000000  0.4645920000000 1.0
C      1  0.5337530000000  0.4728430000000  0.4885630000000 1.0
C      1  0.4408360000000  0.5332420000000  0.5659800000000 1.0
C      1  0.5572120000000  0.5387730000000  0.4531040000000 1.0
C      1  0.5094560000000  0.5059880000000  0.5679300000000 1.0
C      1  0.4509310000000  0.4858460000000  0.5739040000000 1.0
C      1  0.4647950000000  0.5705350000000  0.5343250000000 1.0
C      1  0.4606820000000  0.4885060000000  0.5150760000000 1.0
C      1  0.5427880000000  0.4257750000000  0.4880580000000 1.0
C      1  0.5385240000000  0.5006320000000  0.4131360000000 1.0
C      1  0.4547360000000  0.5723500000000  0.4470990000000 1.0
C      1  0.4159110000000  0.4867990000000  0.5105640000000 1.0
C      1  0.4007920000000  0.5318340000000  0.5000550000000 1.0
C      1  0.5460320000000  0.4498580000000  0.4704590000000 1.0
C      1  0.5767780000000  0.5148000000000  0.4904550000000 1.0
C      1  0.4662460000000  0.5568170000000  0.4254370000000 1.0
C      1  0.4905470000000  0.5061340000000  0.4095650000000 1.0
C      1  0.4857200000000  0.4731150000000  0.4519200000000 1.0
C      1  0.5773450000000  0.4794200000000  0.5254980000000 1.0
C      1  0.5256590000000  0.4579260000000  0.5840630000000 1.0
C      1  0.5258570000000  0.5711690000000  0.4661740000000 1.0
C      1  0.4606460000000  0.4449970000000  0.5523800000000 1.0
C      1  0.4810150000000  0.4516550000000  0.5977720000000 1.0
C      1  0.5290570000000  0.5283860000000  0.5635660000000 1.0
C      1  0.5238580000000  0.4096290000000  0.5278390000000 1.0
C      1  0.4915490000000  0.5506830000000  0.5713300000000 1.0
C      1  0.4349610000000  0.4758990000000  0.4488780000000 1.0
C      1  0.4796190000000  0.4183680000000  0.5136820000000 1.0
C      1  0.4568880000000  0.4377180000000  0.4466060000000 1.0
C      1  0.4499450000000  0.4799920000000  0.4240740000000 1.0
C      1  0.4363750000000  0.5296830000000  0.5346980000000 1.0
C      1  0.4682610000000  0.4595830000000  0.4318470000000 1.0
C      1  0.4859570000000  0.4361760000000  0.5379400000000 1.0
C      1  0.5107430000000  0.5423840000000  0.5080620000000 1.0
C      1  0.5341610000000  0.4413720000000  0.5608950000000 1.0
C      1  0.5321030000000  0.4994910000000  0.5288080000000 1.0
C      1  0.5320330000000  0.4535710000000  0.5302550000000 1.0
C      1  0.4764210000000  0.4293020000000  0.4666370000000 1.0
C      1  0.5320530000000  0.5713530000000  0.5419260000000 1.0
C      1  0.5704110000000  0.5545080000000  0.5260370000000 1.0
C      1  0.5198380000000  0.5642860000000  0.4367060000000 1.0
C      1  0.4395950000000  0.4450790000000  0.4902000000000 1.0
C      1  0.4344180000000  0.4809470000000  0.5516800000000 1.0
C      1  0.4421800000000  0.5583870000000  0.4935340000000 1.0
C      1  0.5058400000000  0.4499360000000  0.6024770000000 1.0
C      1  0.4251260000000  0.5085240000000  0.4670390000000 1.0
C      1  0.5230930000000  0.4473010000000  0.4511510000000 1.0
C      1  0.5716470000000  0.4721470000000  0.5541470000000 1.0
C      1  0.5040590000000  0.4669760000000  0.4964050000000 1.0
C      1  0.5034320000000  0.4619360000000  0.5261900000000 1.0
C      1  0.4851210000000  0.5035490000000  0.5163240000000 1.0
C      1  0.5055780000000  0.4259560000000  0.4602940000000 1.0
C      1  0.5453990000000  0.4767420000000  0.5164710000000 1.0
C      1  0.5631160000000  0.4448850000000  0.5542690000000 1.0
C      1  0.5519250000000  0.5148810000000  0.5513880000000 1.0
C      1  0.4687320000000  0.5676850000000  0.5626670000000 1.0
C      1  0.5539200000000  0.5574480000000  0.4992250000000 1.0
C      1  0.4760690000000  0.5780090000000  0.4635190000000 1.0
C      1  0.5179370000000  0.5538590000000  0.5608550000000 1.0
C      1  0.4553480000000  0.5289580000000  0.4313140000000 1.0
C      1  0.4253700000000  0.4584160000000  0.5124170000000 1.0
C      1  0.5304420000000  0.5221810000000  0.5130580000000 1.0
C      1  0.4351470000000  0.4484580000000  0.4600680000000 1.0
C      1  0.5122400000000  0.5858140000000  0.4904850000000 1.0
END
