TITL C-2114528-2131-15 0.136433936481026 125000 -414.823969404729 0 0 62 (C1) n - 1
REM
REM in /nfs/bkarasulu/CARBON/AIRSS/Generating-Clusters/GAP-ML-2020/Only-C1/SD-CG/HFTN-CG
REM
REM
REM
REM
REM
REM ./C.cell (11c1c37f851c82e70ff6c80c92926a4b)
REM
REM compiler GCC version 9.2.1 20190827 (Red Hat 9.2.1-1)
REM options -cpp -mtune=generic -march=x86-64 -g -O0 -fpre-include=/usr/include/finclude/math-vector-fortran.h
REM seed -2023061383 1621003 1263811774 1512845190 1196655479 -908693219 1635078968 126780920 202831831 -639818541 -1488803239 -220094952 -562644426 1921422256 1094797116 1423508719 74181850 -426516134 1670217092 1380770258 471605855 631125391 414929167 -711740993 1752393436 1534467284 947419415 -1360130910 1508532026 -1475593491 635837640 -1945337808 765336648
REM
CELL 1.54180   50.00000   50.00000   50.00000   90.00000   90.00000   90.00000
LATT -1
SFAC C  
C      1  0.5302200000000  0.4393340000000  0.4955120000000 1.0
C      1  0.4414520000000  0.5209230000000  0.4867220000000 1.0
C      1  0.4818230000000  0.5086160000000  0.4516150000000 1.0
C      1  0.4415420000000  0.4732580000000  0.5116670000000 1.0
C      1  0.4589380000000  0.4457750000000  0.4660070000000 1.0
C      1  0.5554660000000  0.5557540000000  0.5100700000000 1.0
C      1  0.5184830000000  0.5032430000000  0.4948850000000 1.0
C      1  0.4882240000000  0.5000350000000  0.5310180000000 1.0
C      1  0.5149170000000  0.4148030000000  0.4999720000000 1.0
C      1  0.5317170000000  0.5725840000000  0.5120190000000 1.0
C      1  0.5438240000000  0.5225960000000  0.5625660000000 1.0
C      1  0.5587550000000  0.5066970000000  0.5178790000000 1.0
C      1  0.4635020000000  0.5390390000000  0.5369660000000 1.0
C      1  0.5365990000000  0.5040250000000  0.4675770000000 1.0
C      1  0.4993260000000  0.4481020000000  0.5338950000000 1.0
C      1  0.5143770000000  0.5367850000000  0.5300790000000 1.0
C      1  0.5475880000000  0.5661610000000  0.5347080000000 1.0
C      1  0.4387030000000  0.5034930000000  0.5098330000000 1.0
C      1  0.4945560000000  0.5161940000000  0.5718110000000 1.0
C      1  0.5311240000000  0.4517700000000  0.4693430000000 1.0
C      1  0.5354810000000  0.5475300000000  0.4656510000000 1.0
C      1  0.4597540000000  0.5654040000000  0.5294520000000 1.0
C      1  0.4901440000000  0.5274720000000  0.5433770000000 1.0
C      1  0.4837100000000  0.4311180000000  0.4667390000000 1.0
C      1  0.4630810000000  0.4650430000000  0.4460330000000 1.0
C      1  0.4389790000000  0.5034480000000  0.4667480000000 1.0
C      1  0.4527330000000  0.4674680000000  0.5376830000000 1.0
C      1  0.5086340000000  0.5466150000000  0.4802290000000 1.0
C      1  0.4645480000000  0.5418870000000  0.4835070000000 1.0
C      1  0.4987810000000  0.4776020000000  0.4150240000000 1.0
C      1  0.4581680000000  0.4925340000000  0.4521000000000 1.0
C      1  0.5001250000000  0.4512550000000  0.5042900000000 1.0
C      1  0.4721830000000  0.5013990000000  0.5751070000000 1.0
C      1  0.5349720000000  0.5470220000000  0.5499480000000 1.0
C      1  0.4754280000000  0.5585850000000  0.5075520000000 1.0
C      1  0.5223410000000  0.5152880000000  0.4421560000000 1.0
C      1  0.4879610000000  0.4239440000000  0.4940470000000 1.0
C      1  0.4878430000000  0.4736620000000  0.4890970000000 1.0
C      1  0.5630540000000  0.5109810000000  0.5454830000000 1.0
C      1  0.5235470000000  0.4633110000000  0.5368250000000 1.0
C      1  0.5556350000000  0.4785810000000  0.5027660000000 1.0
C      1  0.5210830000000  0.5059390000000  0.5665320000000 1.0
C      1  0.4486320000000  0.4496140000000  0.4938230000000 1.0
C      1  0.5061120000000  0.5567930000000  0.5073300000000 1.0
C      1  0.4709720000000  0.4451000000000  0.5351130000000 1.0
C      1  0.4904980000000  0.4611200000000  0.4349810000000 1.0
C      1  0.5198070000000  0.5437090000000  0.4420490000000 1.0
C      1  0.5167070000000  0.4915510000000  0.5406630000000 1.0
C      1  0.5006710000000  0.5001970000000  0.4310940000000 1.0
C      1  0.5460320000000  0.4764140000000  0.4746660000000 1.0
C      1  0.5052940000000  0.4454310000000  0.4542710000000 1.0
C      1  0.5536030000000  0.5272740000000  0.4742980000000 1.0
C      1  0.4909350000000  0.4993180000000  0.4990500000000 1.0
C      1  0.4611850000000  0.4931050000000  0.5494720000000 1.0
C      1  0.5631670000000  0.5307260000000  0.5000830000000 1.0
C      1  0.5430710000000  0.4572720000000  0.5158750000000 1.0
C      1  0.4472540000000  0.5146320000000  0.5339930000000 1.0
C      1  0.4637860000000  0.4316720000000  0.5100860000000 1.0
C      1  0.4882270000000  0.5229060000000  0.4787050000000 1.0
C      1  0.4960010000000  0.5588350000000  0.4527410000000 1.0
C      1  0.5287730000000  0.5109780000000  0.5200790000000 1.0
C      1  0.4699530000000  0.5580790000000  0.4571410000000 1.0
END
