TITL C-211918-455-4 0.0528817960763233 125000 -551.382494122247 0 0 80 (C1) n - 1
REM
REM in /rds/project/t2_vol4/rds-t2-cs072/BORA/CARBON/from-Arr/AIRSS/Generating-Clusters/GAP-ML-2020/Only-C1/SD-CG/HFTN-CG
REM
REM
REM
REM
REM
REM ./C.cell (11c1c37f851c82e70ff6c80c92926a4b)
REM AIRSS Version 0.9.1 bugfix July 2018 build 013d7b7c2542+ Fri, 06 Jul 2018 19:26:36 +0100
REM compiler GCC version 9.3.0
REM options -cpp -mtune=generic -march=x86-64 -g -O0
REM seed -400760094 -1666968103 902501824 -750056160 -456443291 -1399191045 152755812 2061930082 938773707 -563438470 -1276135962 1257409595 -223549946 1552828319 -194974668 -151267143 365046466 -1856735790 -690782305 -274449687 -1642893811 -73907605 -1989484841 1894067668 -1265903568 1944961934 -1153002793 1698384837 -667593786 622482714 889030810 -1166089324 605560226
REM
CELL 1.54180   50.00000   50.00000   50.00000   90.00000   90.00000   90.00000
LATT -1
SFAC C  
C      1  0.5242940000000  0.4680150000000  0.5026610000000 1.0
C      1  0.5277990000000  0.5755390000000  0.4924960000000 1.0
C      1  0.4371780000000  0.5211660000000  0.5333090000000 1.0
C      1  0.5146780000000  0.4151360000000  0.5114870000000 1.0
C      1  0.5478890000000  0.5413340000000  0.5511490000000 1.0
C      1  0.4560410000000  0.5723330000000  0.5204660000000 1.0
C      1  0.5378530000000  0.4831770000000  0.5688480000000 1.0
C      1  0.4902580000000  0.4989820000000  0.5754070000000 1.0
C      1  0.4771590000000  0.4814050000000  0.5120560000000 1.0
C      1  0.5218470000000  0.5265680000000  0.5559350000000 1.0
C      1  0.5024130000000  0.4550330000000  0.4900240000000 1.0
C      1  0.5013100000000  0.5325180000000  0.4254620000000 1.0
C      1  0.5667170000000  0.4905320000000  0.5281710000000 1.0
C      1  0.4811120000000  0.4408100000000  0.5361630000000 1.0
C      1  0.5478500000000  0.5606400000000  0.5063750000000 1.0
C      1  0.4844250000000  0.5461530000000  0.4436570000000 1.0
C      1  0.4637680000000  0.4249910000000  0.4977180000000 1.0
C      1  0.4740810000000  0.4879180000000  0.4286780000000 1.0
C      1  0.4852250000000  0.5078960000000  0.5188810000000 1.0
C      1  0.4552180000000  0.5039660000000  0.4444850000000 1.0
C      1  0.4748830000000  0.5415380000000  0.5552470000000 1.0
C      1  0.4241350000000  0.4838280000000  0.5028260000000 1.0
C      1  0.5686180000000  0.5189690000000  0.5294280000000 1.0
C      1  0.5037750000000  0.5738390000000  0.5097930000000 1.0
C      1  0.5400590000000  0.5076290000000  0.4352250000000 1.0
C      1  0.4705090000000  0.5250990000000  0.4586690000000 1.0
C      1  0.4233380000000  0.4756200000000  0.4736680000000 1.0
C      1  0.5304810000000  0.4223620000000  0.4889400000000 1.0
C      1  0.4489680000000  0.4678100000000  0.5042550000000 1.0
C      1  0.4533980000000  0.4749000000000  0.5541660000000 1.0
C      1  0.4573140000000  0.5319750000000  0.4829790000000 1.0
C      1  0.5472620000000  0.4719020000000  0.5436870000000 1.0
C      1  0.5681060000000  0.4858680000000  0.5008250000000 1.0
C      1  0.5139830000000  0.5283410000000  0.4811820000000 1.0
C      1  0.4931910000000  0.4836710000000  0.4883400000000 1.0
C      1  0.4956080000000  0.5049980000000  0.4191100000000 1.0
C      1  0.4987020000000  0.5456140000000  0.4997500000000 1.0
C      1  0.5262300000000  0.5253290000000  0.5065300000000 1.0
C      1  0.4893120000000  0.4299940000000  0.5096630000000 1.0
C      1  0.4572200000000  0.5453000000000  0.5308220000000 1.0
C      1  0.5135420000000  0.5082940000000  0.5267840000000 1.0
C      1  0.5286640000000  0.5336530000000  0.4349930000000 1.0
C      1  0.5541050000000  0.4974500000000  0.4583030000000 1.0
C      1  0.5747160000000  0.5343610000000  0.5517110000000 1.0
C      1  0.5295320000000  0.5459340000000  0.4602420000000 1.0
C      1  0.4848480000000  0.4389260000000  0.4537150000000 1.0
C      1  0.5130950000000  0.5682640000000  0.5371250000000 1.0
C      1  0.4472240000000  0.5034950000000  0.5538900000000 1.0
C      1  0.5208470000000  0.4781610000000  0.5290150000000 1.0
C      1  0.4535930000000  0.4480290000000  0.5408690000000 1.0
C      1  0.4454200000000  0.4411180000000  0.5151680000000 1.0
C      1  0.4868610000000  0.4606730000000  0.4341100000000 1.0
C      1  0.4329080000000  0.5191080000000  0.4838430000000 1.0
C      1  0.5564460000000  0.5301350000000  0.5036360000000 1.0
C      1  0.5190010000000  0.5026870000000  0.5742860000000 1.0
C      1  0.5496100000000  0.4694110000000  0.4621540000000 1.0
C      1  0.4807070000000  0.4766390000000  0.5617780000000 1.0
C      1  0.5302020000000  0.4533370000000  0.4498080000000 1.0
C      1  0.4330530000000  0.4995670000000  0.4619210000000 1.0
C      1  0.4609960000000  0.4343230000000  0.4699410000000 1.0
C      1  0.4750190000000  0.5834930000000  0.4750240000000 1.0
C      1  0.4743160000000  0.5327120000000  0.5074290000000 1.0
C      1  0.5406880000000  0.5632820000000  0.5342830000000 1.0
C      1  0.5017360000000  0.5486750000000  0.5539380000000 1.0
C      1  0.4977460000000  0.5066310000000  0.4708350000000 1.0
C      1  0.4246860000000  0.5111160000000  0.5100270000000 1.0
C      1  0.4748540000000  0.5825370000000  0.5026900000000 1.0
C      1  0.4920590000000  0.5705490000000  0.4579830000000 1.0
C      1  0.5147880000000  0.4650370000000  0.4297170000000 1.0
C      1  0.5637120000000  0.5082000000000  0.4839390000000 1.0
C      1  0.5525210000000  0.4638240000000  0.4901520000000 1.0
C      1  0.5207230000000  0.4912240000000  0.4218050000000 1.0
C      1  0.4428530000000  0.4552920000000  0.4748850000000 1.0
C      1  0.4693780000000  0.5171660000000  0.5675690000000 1.0
C      1  0.4939100000000  0.4664250000000  0.5374220000000 1.0
C      1  0.5132500000000  0.4373140000000  0.4673540000000 1.0
C      1  0.5298310000000  0.4224370000000  0.5340920000000 1.0
C      1  0.5516480000000  0.4378320000000  0.5016580000000 1.0
C      1  0.5206650000000  0.5717690000000  0.4654260000000 1.0
C      1  0.5480400000000  0.4422290000000  0.5319480000000 1.0
END
