TITL C-214947-2292-2 -235.24100725352 125000 -590.708927290918 0 0 86 (C1) n - 1
REM
REM in /rds/project/t2_vol4/rds-t2-cs072/BORA/CARBON/from-Arr/AIRSS/Generating-Clusters/GAP-ML-2020/Only-C1/SD-CG/HFTN-CG
REM
REM
REM
REM
REM
REM ./C.cell (11c1c37f851c82e70ff6c80c92926a4b)
REM AIRSS Version 0.9.1 bugfix July 2018 build 013d7b7c2542+ Fri, 06 Jul 2018 19:26:36 +0100
REM compiler GCC version 9.3.0
REM options -cpp -mtune=generic -march=x86-64 -g -O0
REM seed -808195194 -358039239 -768012653 -1370836966 -980637528 1560707530 -2072523022 357222060 94879693 -1399809715 938989760 -1873506818 1154663163 1405577844 96253692 3118768 1323751248 -530263408 226149279 1530759808 825441950 -1016346908 479099291 -643786059 1607400217 -1595573788 188321999 -380042687 -79384965 1733074523 -234100626 -93797012 1038917822
REM
CELL 1.54180   50.00000   50.00000   50.00000   90.00000   90.00000   90.00000
LATT -1
SFAC C  
C      1  0.5571270000000  0.5515330000000  0.5013350000000 1.0
C      1  0.4506530000000  0.5157690000000  0.5641670000000 1.0
C      1  0.5024170000000  0.4229360000000  0.4726350000000 1.0
C      1  0.4944260000000  0.4907970000000  0.4206840000000 1.0
C      1  0.5644340000000  0.4612410000000  0.4635170000000 1.0
C      1  0.4756690000000  0.5014060000000  0.5557820000000 1.0
C      1  0.4992090000000  0.5653660000000  0.4604490000000 1.0
C      1  0.4854000000000  0.5780370000000  0.5123630000000 1.0
C      1  0.4429920000000  0.4959900000000  0.5066340000000 1.0
C      1  0.4766290000000  0.5639570000000  0.5361140000000 1.0
C      1  0.5680800000000  0.5277500000000  0.5334970000000 1.0
C      1  0.4239840000000  0.4614370000000  0.4911190000000 1.0
C      1  0.4531580000000  0.4723680000000  0.4477660000000 1.0
C      1  0.5414140000000  0.4830370000000  0.4295650000000 1.0
C      1  0.4293670000000  0.4733060000000  0.4634780000000 1.0
C      1  0.5221130000000  0.4962400000000  0.5072740000000 1.0
C      1  0.4635220000000  0.4721270000000  0.4973160000000 1.0
C      1  0.5349490000000  0.5059400000000  0.4730460000000 1.0
C      1  0.4816740000000  0.5217410000000  0.5088270000000 1.0
C      1  0.5457420000000  0.5452550000000  0.5286990000000 1.0
C      1  0.5136220000000  0.4359990000000  0.5336720000000 1.0
C      1  0.5805190000000  0.5100550000000  0.4872230000000 1.0
C      1  0.5027870000000  0.4692040000000  0.4368160000000 1.0
C      1  0.4401450000000  0.5143290000000  0.4851880000000 1.0
C      1  0.5518100000000  0.5365800000000  0.4513910000000 1.0
C      1  0.5206120000000  0.5732680000000  0.4782620000000 1.0
C      1  0.5283850000000  0.4306200000000  0.4803620000000 1.0
C      1  0.5228800000000  0.4505490000000  0.5576380000000 1.0
C      1  0.4822620000000  0.5151420000000  0.4595900000000 1.0
C      1  0.5094790000000  0.5256040000000  0.5073320000000 1.0
C      1  0.4676240000000  0.5034880000000  0.5258300000000 1.0
C      1  0.5041100000000  0.5364330000000  0.4547020000000 1.0
C      1  0.5275150000000  0.5292120000000  0.4363080000000 1.0
C      1  0.5068650000000  0.4698690000000  0.5723930000000 1.0
C      1  0.4471690000000  0.4491090000000  0.5093390000000 1.0
C      1  0.5331460000000  0.4339180000000  0.5096840000000 1.0
C      1  0.5171440000000  0.5353150000000  0.5347740000000 1.0
C      1  0.5589010000000  0.4457500000000  0.5117320000000 1.0
C      1  0.5221870000000  0.5045970000000  0.4233560000000 1.0
C      1  0.5828260000000  0.4849590000000  0.5009150000000 1.0
C      1  0.5219000000000  0.4976310000000  0.5734310000000 1.0
C      1  0.4679020000000  0.4273000000000  0.5113670000000 1.0
C      1  0.4654570000000  0.4937660000000  0.4275710000000 1.0
C      1  0.4839510000000  0.4824390000000  0.5156190000000 1.0
C      1  0.4375480000000  0.5422070000000  0.4802280000000 1.0
C      1  0.5484580000000  0.4624820000000  0.5568850000000 1.0
C      1  0.4347050000000  0.5007880000000  0.4605660000000 1.0
C      1  0.5767530000000  0.5312960000000  0.5057290000000 1.0
C      1  0.4791260000000  0.4370680000000  0.4666790000000 1.0
C      1  0.5210740000000  0.5313430000000  0.4800960000000 1.0
C      1  0.4458370000000  0.5449730000000  0.4523970000000 1.0
C      1  0.4986610000000  0.5530210000000  0.5512780000000 1.0
C      1  0.5062150000000  0.5453930000000  0.5776500000000 1.0
C      1  0.4369670000000  0.5342030000000  0.5474300000000 1.0
C      1  0.5727120000000  0.4606790000000  0.4900690000000 1.0
C      1  0.5151530000000  0.5230760000000  0.5874460000000 1.0
C      1  0.5689730000000  0.5028850000000  0.5468510000000 1.0
C      1  0.4731860000000  0.4663060000000  0.4691300000000 1.0
C      1  0.4277420000000  0.5067580000000  0.5518740000000 1.0
C      1  0.5425440000000  0.5529170000000  0.4763620000000 1.0
C      1  0.5090250000000  0.4849980000000  0.5284050000000 1.0
C      1  0.4488530000000  0.5538650000000  0.5299530000000 1.0
C      1  0.4842240000000  0.4338330000000  0.5339140000000 1.0
C      1  0.4650240000000  0.5772570000000  0.4919920000000 1.0
C      1  0.4682030000000  0.4517580000000  0.5507620000000 1.0
C      1  0.4439150000000  0.4585620000000  0.5371520000000 1.0
C      1  0.4694300000000  0.5227290000000  0.4840220000000 1.0
C      1  0.4250620000000  0.4803860000000  0.5377440000000 1.0
C      1  0.4545840000000  0.5152710000000  0.4431010000000 1.0
C      1  0.4729520000000  0.5752520000000  0.4636600000000 1.0
C      1  0.4539580000000  0.5683790000000  0.4435730000000 1.0
C      1  0.5796050000000  0.4828470000000  0.5294160000000 1.0
C      1  0.4789130000000  0.4181510000000  0.4874500000000 1.0
C      1  0.5662530000000  0.4584540000000  0.5355500000000 1.0
C      1  0.5645740000000  0.5110990000000  0.4621670000000 1.0
C      1  0.4174060000000  0.4811730000000  0.5103270000000 1.0
C      1  0.5636360000000  0.4858190000000  0.4470920000000 1.0
C      1  0.4804240000000  0.4727000000000  0.5652510000000 1.0
C      1  0.5286760000000  0.4586850000000  0.4364140000000 1.0
C      1  0.4441590000000  0.5606620000000  0.5014620000000 1.0
C      1  0.4953490000000  0.4849050000000  0.4640030000000 1.0
C      1  0.5190000000000  0.4850240000000  0.4813960000000 1.0
C      1  0.5417700000000  0.4448920000000  0.4586560000000 1.0
C      1  0.5065000000000  0.5072780000000  0.5492510000000 1.0
C      1  0.5494900000000  0.4896830000000  0.5644210000000 1.0
C      1  0.5112050000000  0.5795760000000  0.5034340000000 1.0
END
