TITL C-2114532-4476-11 37.0524763748244 125000 -505.471540196063 0 0 72 (C1) n - 1
REM
REM in /nfs/bkarasulu/CARBON/AIRSS/Generating-Clusters/GAP-ML-2020/Only-C1/SD-CG/HFTN-CG
REM
REM
REM
REM
REM
REM ./C.cell (11c1c37f851c82e70ff6c80c92926a4b)
REM
REM compiler GCC version 9.2.1 20190827 (Red Hat 9.2.1-1)
REM options -cpp -mtune=generic -march=x86-64 -g -O0 -fpre-include=/usr/include/finclude/math-vector-fortran.h
REM seed 1283625240 -99023121 1066492316 1334334217 1234125934 -1760990282 -1945377267 -354466124 -1966189805 1367795271 -1175290297 1498622545 -1250653430 1534233540 753681787 -1781297312 903298740 -201593576 430412240 432675230 -1027112076 -32383932 590191693 -1831488077 715162808 2047103708 -1013029970 57500533 329580628 101179588 -1782979802 -242833951 -932935028
REM
CELL 1.54180   50.00000   50.00000   50.00000   90.00000   90.00000   90.00000
LATT -1
SFAC C  
C      1  0.5543840000000  0.5109120000000  0.5472110000000 1.0
C      1  0.5045110000000  0.4647220000000  0.5699000000000 1.0
C      1  0.4652720000000  0.5236210000000  0.4385260000000 1.0
C      1  0.5083460000000  0.4577100000000  0.4259410000000 1.0
C      1  0.4217550000000  0.4610070000000  0.5291430000000 1.0
C      1  0.5367920000000  0.4463660000000  0.5149140000000 1.0
C      1  0.4544760000000  0.4358590000000  0.4648510000000 1.0
C      1  0.5299840000000  0.4735920000000  0.5605500000000 1.0
C      1  0.4656350000000  0.4745020000000  0.4315530000000 1.0
C      1  0.5627890000000  0.4880610000000  0.5312400000000 1.0
C      1  0.4978470000000  0.4439900000000  0.4872160000000 1.0
C      1  0.5050190000000  0.4780200000000  0.4861390000000 1.0
C      1  0.4821050000000  0.5690580000000  0.5310200000000 1.0
C      1  0.5350060000000  0.5015760000000  0.5659640000000 1.0
C      1  0.4378410000000  0.5100360000000  0.5178360000000 1.0
C      1  0.4428490000000  0.5164850000000  0.4908350000000 1.0
C      1  0.4536420000000  0.5592860000000  0.5032930000000 1.0
C      1  0.5047510000000  0.5018340000000  0.4183180000000 1.0
C      1  0.5283860000000  0.5746280000000  0.5195390000000 1.0
C      1  0.5483090000000  0.5392270000000  0.5422890000000 1.0
C      1  0.4665900000000  0.4466540000000  0.4431470000000 1.0
C      1  0.4957300000000  0.5760820000000  0.4816830000000 1.0
C      1  0.4478960000000  0.5267020000000  0.5413900000000 1.0
C      1  0.4585420000000  0.4739190000000  0.4969970000000 1.0
C      1  0.5083310000000  0.5403800000000  0.4435330000000 1.0
C      1  0.5622390000000  0.5553590000000  0.4943250000000 1.0
C      1  0.4948400000000  0.5045120000000  0.5205010000000 1.0
C      1  0.5751090000000  0.4887430000000  0.5051100000000 1.0
C      1  0.5332370000000  0.4894520000000  0.4867630000000 1.0
C      1  0.4874460000000  0.4850380000000  0.5807090000000 1.0
C      1  0.5317620000000  0.4680340000000  0.4397850000000 1.0
C      1  0.4563360000000  0.4971200000000  0.4462350000000 1.0
C      1  0.4360170000000  0.4809370000000  0.5162930000000 1.0
C      1  0.5848140000000  0.5112100000000  0.4929930000000 1.0
C      1  0.4448300000000  0.4474430000000  0.5366780000000 1.0
C      1  0.5669320000000  0.5288860000000  0.4846070000000 1.0
C      1  0.5191490000000  0.5331700000000  0.4951400000000 1.0
C      1  0.5361480000000  0.4466510000000  0.4620620000000 1.0
C      1  0.5232740000000  0.5452680000000  0.5549630000000 1.0
C      1  0.4603190000000  0.4832910000000  0.5699310000000 1.0
C      1  0.5579610000000  0.4751640000000  0.4873840000000 1.0
C      1  0.4907820000000  0.5573840000000  0.4599310000000 1.0
C      1  0.5093920000000  0.5663790000000  0.5393770000000 1.0
C      1  0.4574400000000  0.5517520000000  0.5309850000000 1.0
C      1  0.4874510000000  0.4798360000000  0.5117210000000 1.0
C      1  0.5149230000000  0.5224510000000  0.5709640000000 1.0
C      1  0.4483010000000  0.5426610000000  0.4817120000000 1.0
C      1  0.5428790000000  0.5674640000000  0.4784970000000 1.0
C      1  0.4576000000000  0.4955870000000  0.4763620000000 1.0
C      1  0.4895840000000  0.4322240000000  0.5319360000000 1.0
C      1  0.5288250000000  0.4977820000000  0.4339520000000 1.0
C      1  0.4600990000000  0.4559510000000  0.5596210000000 1.0
C      1  0.4869170000000  0.4458890000000  0.5573650000000 1.0
C      1  0.5377100000000  0.5178010000000  0.4788240000000 1.0
C      1  0.5106960000000  0.4339570000000  0.4631820000000 1.0
C      1  0.4892210000000  0.5015830000000  0.4758160000000 1.0
C      1  0.4652020000000  0.5441880000000  0.4585430000000 1.0
C      1  0.5449080000000  0.4658800000000  0.5364930000000 1.0
C      1  0.4950780000000  0.5210220000000  0.4981300000000 1.0
C      1  0.4883410000000  0.5131520000000  0.5765510000000 1.0
C      1  0.4635890000000  0.4334450000000  0.5191530000000 1.0
C      1  0.5305260000000  0.5220420000000  0.4500710000000 1.0
C      1  0.5222510000000  0.5800330000000  0.4917310000000 1.0
C      1  0.5517820000000  0.5584580000000  0.5208430000000 1.0
C      1  0.4663430000000  0.4439110000000  0.4906360000000 1.0
C      1  0.5104420000000  0.4361520000000  0.5127060000000 1.0
C      1  0.4911340000000  0.5252420000000  0.4264170000000 1.0
C      1  0.4772180000000  0.5757210000000  0.5027460000000 1.0
C      1  0.4903900000000  0.4777870000000  0.4171230000000 1.0
C      1  0.4945170000000  0.4381350000000  0.4401600000000 1.0
C      1  0.4604530000000  0.5123980000000  0.5639480000000 1.0
C      1  0.5488070000000  0.4492290000000  0.4879950000000 1.0
END
