TITL C-21685-8343-5 -0.0149168834266891 125000 -145.980243087308 0 0 23 (C1) n - 1
REM
REM in /rds/project/t2_vol4/rds-t2-cs072/BORA/CARBON/from-Arr/AIRSS/Generating-Clusters/GAP-ML-2020/Only-C1/SD-CG/HFTN-CG
REM
REM
REM
REM
REM
REM ./C.cell (11c1c37f851c82e70ff6c80c92926a4b)
REM AIRSS Version 0.9.1 bugfix July 2018 build 013d7b7c2542+ Fri, 06 Jul 2018 19:26:36 +0100
REM compiler GCC version 9.3.0
REM options -cpp -mtune=generic -march=x86-64 -g -O0
REM seed 387083218 -806380585 -392029532 1446643404 1803011106 -96281620 1464382461 437380264 776170658 -364383621 1098808172 2112456143 -1075935548 2040944426 -1011283068 -2126098592 -1912546045 -1186364444 -1125984976 -1728512865 1318990908 1109131474 1445747071 -1520049381 -2064692559 378473461 -1810481590 1766564356 -1927705237 -1255344750 1857458154 -929808331 1047285603
REM
CELL 1.54180   50.00000   50.00000   50.00000   90.00000   90.00000   90.00000
LATT -1
SFAC C  
C      1  0.5099820000000  0.5213480000000  0.5473850000000 1.0
C      1  0.5475470000000  0.4992880000000  0.4907400000000 1.0
C      1  0.4631140000000  0.4948720000000  0.4834950000000 1.0
C      1  0.4916390000000  0.4866330000000  0.4829110000000 1.0
C      1  0.4958830000000  0.4586610000000  0.4963870000000 1.0
C      1  0.5061670000000  0.4425890000000  0.4763380000000 1.0
C      1  0.4875420000000  0.5350320000000  0.5553290000000 1.0
C      1  0.5279870000000  0.4928850000000  0.4466570000000 1.0
C      1  0.4522520000000  0.5096790000000  0.5004750000000 1.0
C      1  0.4847950000000  0.4764550000000  0.5372420000000 1.0
C      1  0.5013420000000  0.5324770000000  0.4945790000000 1.0
C      1  0.4892690000000  0.4556200000000  0.5227380000000 1.0
C      1  0.5195630000000  0.5304210000000  0.4708520000000 1.0
C      1  0.5057730000000  0.4797450000000  0.4555160000000 1.0
C      1  0.4682920000000  0.5230810000000  0.5374870000000 1.0
C      1  0.5028820000000  0.5052250000000  0.5034200000000 1.0
C      1  0.5315710000000  0.5025580000000  0.5125370000000 1.0
C      1  0.4450800000000  0.5240650000000  0.5223060000000 1.0
C      1  0.5333150000000  0.5141960000000  0.5381410000000 1.0
C      1  0.5072660000000  0.5524120000000  0.4776150000000 1.0
C      1  0.4875510000000  0.5024470000000  0.5281150000000 1.0
C      1  0.5055930000000  0.4515110000000  0.4520400000000 1.0
C      1  0.5355950000000  0.5088010000000  0.4676930000000 1.0
END
