TITL C-21916-3056-8 -0.00879567438832878 125000 -40.500096688002 0 0 7 (Cs) n - 1
REM
REM in /rds/project/t2_vol4/rds-t2-cs072/BORA/CARBON/from-Arr/AIRSS/Generating-Clusters/GAP-ML-2020/Only-C1/SD-CG/HFTN-CG
REM
REM
REM
REM
REM
REM ./C.cell (11c1c37f851c82e70ff6c80c92926a4b)
REM AIRSS Version 0.9.1 bugfix July 2018 build 013d7b7c2542+ Fri, 06 Jul 2018 19:26:36 +0100
REM compiler GCC version 9.3.0
REM options -cpp -mtune=generic -march=x86-64 -g -O0
REM seed 557341713 -413384013 1301727853 -379524615 -1990173459 -385588017 1825924392 176990926 -421976440 -1145460714 -66004374 2066790523 918033504 1351942044 -214244556 1025091035 -2023510634 1738560841 1784948342 232250110 370976645 1188174991 -1550218177 -1687801708 798065995 -1911761526 831115440 -1864155272 2121001108 -344824282 704985480 419618886 1133598728
REM
CELL 1.54180   50.00000   50.00000   50.00000   90.00000   90.00000   90.00000
LATT -1
SFAC C  
C      1  0.4724510000000  0.4878630000000  0.5006710000000 1.0
C      1  0.4881570000000  0.5308120000000  0.4783010000000 1.0
C      1  0.4764700000000  0.5100720000000  0.4881010000000 1.0
C      1  0.5303990000000  0.4993050000000  0.4919740000000 1.0
C      1  0.5249770000000  0.5128400000000  0.5141530000000 1.0
C      1  0.5160720000000  0.4841050000000  0.5136300000000 1.0
C      1  0.4914740000000  0.4750030000000  0.5131700000000 1.0
END
