TITL C-21824-6260-3 170.855262010235 125000 -665.842778188667 0 0 98 (C1) n - 1
REM
REM in /rds/project/t2_vol4/rds-t2-cs072/BORA/CARBON/from-Arr/AIRSS/Generating-Clusters/GAP-ML-2020/Only-C1/SD-CG/HFTN-CG
REM
REM
REM
REM
REM
REM ./C.cell (11c1c37f851c82e70ff6c80c92926a4b)
REM AIRSS Version 0.9.1 bugfix July 2018 build 013d7b7c2542+ Fri, 06 Jul 2018 19:26:36 +0100
REM compiler GCC version 9.3.0
REM options -cpp -mtune=generic -march=x86-64 -g -O0
REM seed -1092248808 1685012949 -1211453650 1128936504 1186074666 2012253163 1922906767 -1141427145 -2003014330 194548426 1784677159 2042977828 -187130851 1344086577 1071580776 2109234047 1578719792 -370303907 -698914749 -1943742010 2004372074 1852866968 -1950982792 -236597327 1247965654 -1000680555 233106108 -275799530 -860865532 -2132297611 855697635 -1119762543 -1281993550
REM
CELL 1.54180   50.00000   50.00000   50.00000   90.00000   90.00000   90.00000
LATT -1
SFAC C  
C      1  0.5042050000000  0.4388640000000  0.4934890000000 1.0
C      1  0.4927690000000  0.5626720000000  0.4553370000000 1.0
C      1  0.5292310000000  0.5318470000000  0.4734670000000 1.0
C      1  0.4220260000000  0.5099160000000  0.4631920000000 1.0
C      1  0.5014950000000  0.5830800000000  0.5304610000000 1.0
C      1  0.5593830000000  0.5764320000000  0.5185100000000 1.0
C      1  0.4870540000000  0.5634710000000  0.4840590000000 1.0
C      1  0.5460520000000  0.5334820000000  0.5733080000000 1.0
C      1  0.5065090000000  0.5110940000000  0.4824140000000 1.0
C      1  0.4591980000000  0.5703000000000  0.4970000000000 1.0
C      1  0.5198290000000  0.5355060000000  0.4286480000000 1.0
C      1  0.5001020000000  0.5364530000000  0.5765990000000 1.0
C      1  0.4434420000000  0.4404920000000  0.4726220000000 1.0
C      1  0.5548610000000  0.5076950000000  0.5649560000000 1.0
C      1  0.4577500000000  0.4732760000000  0.4335950000000 1.0
C      1  0.5703810000000  0.5561080000000  0.5354340000000 1.0
C      1  0.5098170000000  0.4585560000000  0.4232980000000 1.0
C      1  0.4384090000000  0.4612960000000  0.5458990000000 1.0
C      1  0.4321550000000  0.5089140000000  0.5618030000000 1.0
C      1  0.5450440000000  0.4203400000000  0.5036430000000 1.0
C      1  0.5525640000000  0.5233170000000  0.4573350000000 1.0
C      1  0.5889770000000  0.4450330000000  0.4915700000000 1.0
C      1  0.5480090000000  0.4719160000000  0.4802740000000 1.0
C      1  0.5182020000000  0.5507370000000  0.4519640000000 1.0
C      1  0.4808710000000  0.4201310000000  0.4973500000000 1.0
C      1  0.4388700000000  0.4595710000000  0.4511510000000 1.0
C      1  0.4379140000000  0.5696750000000  0.4575200000000 1.0
C      1  0.5130400000000  0.4976350000000  0.5086840000000 1.0
C      1  0.4657480000000  0.4223240000000  0.4725080000000 1.0
C      1  0.4799890000000  0.5057050000000  0.4193130000000 1.0
C      1  0.4446920000000  0.4552100000000  0.4980300000000 1.0
C      1  0.4523800000000  0.5281200000000  0.5603230000000 1.0
C      1  0.4307200000000  0.4835090000000  0.4643560000000 1.0
C      1  0.4304020000000  0.5362490000000  0.5173350000000 1.0
C      1  0.5047800000000  0.4832670000000  0.4624910000000 1.0
C      1  0.5432940000000  0.5183940000000  0.4303990000000 1.0
C      1  0.4477960000000  0.5482500000000  0.4418370000000 1.0
C      1  0.5115210000000  0.5811530000000  0.4966360000000 1.0
C      1  0.4417070000000  0.4824760000000  0.5652820000000 1.0
C      1  0.4838020000000  0.5304590000000  0.4922050000000 1.0
C      1  0.4851320000000  0.4317810000000  0.5442840000000 1.0
C      1  0.4760340000000  0.5502490000000  0.4360610000000 1.0
C      1  0.5201390000000  0.4183920000000  0.4556580000000 1.0
C      1  0.5887010000000  0.4928670000000  0.4739580000000 1.0
C      1  0.4686970000000  0.4916930000000  0.5299420000000 1.0
C      1  0.5398670000000  0.5712590000000  0.5002440000000 1.0
C      1  0.4888420000000  0.4795880000000  0.4320960000000 1.0
C      1  0.4589550000000  0.5166190000000  0.4855950000000 1.0
C      1  0.4212110000000  0.4957270000000  0.5149900000000 1.0
C      1  0.4802230000000  0.5375050000000  0.5212320000000 1.0
C      1  0.5707700000000  0.5052650000000  0.5411950000000 1.0
C      1  0.4861560000000  0.5561230000000  0.5611050000000 1.0
C      1  0.5474490000000  0.5487540000000  0.5491690000000 1.0
C      1  0.4392150000000  0.5820790000000  0.4802650000000 1.0
C      1  0.4881540000000  0.4798800000000  0.5127540000000 1.0
C      1  0.5057800000000  0.6031100000000  0.5144910000000 1.0
C      1  0.4524260000000  0.5017370000000  0.4261480000000 1.0
C      1  0.4645270000000  0.4485410000000  0.5550890000000 1.0
C      1  0.4681600000000  0.4714390000000  0.5724230000000 1.0
C      1  0.4846380000000  0.4346320000000  0.4544280000000 1.0
C      1  0.4970400000000  0.5112020000000  0.5593810000000 1.0
C      1  0.5270940000000  0.5383410000000  0.5302920000000 1.0
C      1  0.4743950000000  0.5161300000000  0.5418720000000 1.0
C      1  0.5111300000000  0.4574690000000  0.5155050000000 1.0
C      1  0.5162840000000  0.4683070000000  0.5616670000000 1.0
C      1  0.5743360000000  0.5164620000000  0.4747210000000 1.0
C      1  0.5636520000000  0.4506120000000  0.5348480000000 1.0
C      1  0.5066410000000  0.4330990000000  0.4368610000000 1.0
C      1  0.5764950000000  0.5289390000000  0.5259300000000 1.0
C      1  0.5187120000000  0.5101180000000  0.5366040000000 1.0
C      1  0.5556990000000  0.4791230000000  0.5314180000000 1.0
C      1  0.4937470000000  0.4830150000000  0.5703650000000 1.0
C      1  0.5321590000000  0.4754210000000  0.4574790000000 1.0
C      1  0.5851060000000  0.4388080000000  0.5191410000000 1.0
C      1  0.4916340000000  0.4574350000000  0.4737380000000 1.0
C      1  0.4367420000000  0.5209850000000  0.4408790000000 1.0
C      1  0.4539350000000  0.5540010000000  0.5217740000000 1.0
C      1  0.5398340000000  0.5417870000000  0.5002760000000 1.0
C      1  0.5359250000000  0.4883420000000  0.5525330000000 1.0
C      1  0.5665860000000  0.5292740000000  0.4994910000000 1.0
C      1  0.5353260000000  0.4765560000000  0.5063630000000 1.0
C      1  0.5010400000000  0.5544430000000  0.5352290000000 1.0
C      1  0.5464540000000  0.4941790000000  0.4152330000000 1.0
C      1  0.5730400000000  0.4225200000000  0.4994030000000 1.0
C      1  0.4294100000000  0.4684090000000  0.5188360000000 1.0
C      1  0.5134850000000  0.4452860000000  0.5428790000000 1.0
C      1  0.5401540000000  0.4338350000000  0.5304810000000 1.0
C      1  0.4784360000000  0.4144290000000  0.5236380000000 1.0
C      1  0.4705620000000  0.4704300000000  0.4900550000000 1.0
C      1  0.5781550000000  0.4685280000000  0.4792730000000 1.0
C      1  0.5248620000000  0.4208810000000  0.4826960000000 1.0
C      1  0.4299220000000  0.5173290000000  0.4940040000000 1.0
C      1  0.4580360000000  0.5548950000000  0.5541310000000 1.0
C      1  0.5242330000000  0.5387330000000  0.5894020000000 1.0
C      1  0.4592250000000  0.4913170000000  0.4746370000000 1.0
C      1  0.5353950000000  0.4724810000000  0.4272370000000 1.0
C      1  0.4919700000000  0.5314230000000  0.4205850000000 1.0
C      1  0.4230800000000  0.5152940000000  0.5357210000000 1.0
END
