TITL C-2114523-4113-21 -11.8496817341403 125000 -145.80558891577 0 0 23 (C1) n - 1
REM
REM in /nfs/bkarasulu/CARBON/AIRSS/Generating-Clusters/GAP-ML-2020/Only-C1/SD-CG/HFTN-CG
REM
REM
REM
REM
REM
REM ./C.cell (11c1c37f851c82e70ff6c80c92926a4b)
REM
REM compiler GCC version 9.2.1 20190827 (Red Hat 9.2.1-1)
REM options -cpp -mtune=generic -march=x86-64 -g -O0 -fpre-include=/usr/include/finclude/math-vector-fortran.h
REM seed 1001473993 120160954 -1525024806 1037350590 -1733783308 -295193577 -1216393484 1612686084 -1422914387 -406141426 64710610 -907372743 365375437 -1608249908 -561868315 2075716240 1165392318 908433774 1992278549 1409330552 -1524535266 216044291 29880300 -307514632 1142690718 1531055838 -1227623031 -468355116 776249547 516160123 458211041 2014864997 -1116472562
REM
CELL 1.54180   50.00000   50.00000   50.00000   90.00000   90.00000   90.00000
LATT -1
SFAC C  
C      1  0.5221330000000  0.5432740000000  0.5028050000000 1.0
C      1  0.4578180000000  0.5108800000000  0.4829480000000 1.0
C      1  0.5031850000000  0.5522780000000  0.5188900000000 1.0
C      1  0.4617950000000  0.5384090000000  0.4807590000000 1.0
C      1  0.4487080000000  0.5146460000000  0.5129540000000 1.0
C      1  0.5186820000000  0.5072710000000  0.4665380000000 1.0
C      1  0.4923380000000  0.4696240000000  0.4843410000000 1.0
C      1  0.5176210000000  0.4803110000000  0.4768470000000 1.0
C      1  0.4657500000000  0.4750710000000  0.5407860000000 1.0
C      1  0.4865980000000  0.4346480000000  0.5200340000000 1.0
C      1  0.5258470000000  0.5278310000000  0.4831600000000 1.0
C      1  0.4926760000000  0.4459620000000  0.4984570000000 1.0
C      1  0.5398370000000  0.4704570000000  0.4908650000000 1.0
C      1  0.4790220000000  0.5549650000000  0.5275150000000 1.0
C      1  0.4682320000000  0.4847680000000  0.4903220000000 1.0
C      1  0.4778560000000  0.5179840000000  0.4349440000000 1.0
C      1  0.5547220000000  0.4916850000000  0.5375670000000 1.0
C      1  0.4591090000000  0.4882900000000  0.5182480000000 1.0
C      1  0.5609050000000  0.4553330000000  0.4979160000000 1.0
C      1  0.5527270000000  0.4751580000000  0.5169640000000 1.0
C      1  0.4992760000000  0.5128510000000  0.4470620000000 1.0
C      1  0.4602260000000  0.5402800000000  0.5130040000000 1.0
C      1  0.5549380000000  0.5080220000000  0.5570750000000 1.0
END
