TITL C-211923-621-2 -34.5086597576602 125000 -788.126947089558 0 0 113 (C1) n - 1
REM
REM in /rds/project/t2_vol4/rds-t2-cs072/BORA/CARBON/from-Arr/AIRSS/Generating-Clusters/GAP-ML-2020/Only-C1/SD-CG/HFTN-CG
REM
REM
REM
REM
REM
REM ./C.cell (11c1c37f851c82e70ff6c80c92926a4b)
REM AIRSS Version 0.9.1 bugfix July 2018 build 013d7b7c2542+ Fri, 06 Jul 2018 19:26:36 +0100
REM compiler GCC version 9.3.0
REM options -cpp -mtune=generic -march=x86-64 -g -O0
REM seed 1673098615 -208696328 1397971077 617905446 -1654954121 -41429928 1340730932 -726563460 -357038 81714439 -434308057 -2137713118 14841323 1605996746 441779826 -28605179 -87528004 -670046177 1706333046 -1414927303 -1109976968 -1212677423 1258502266 -1294362036 1132073196 -1894122167 -2043744998 -162730114 -1173669625 -830489009 977105675 -532303840 1886795446
REM
CELL 1.54180   50.00000   50.00000   50.00000   90.00000   90.00000   90.00000
LATT -1
SFAC C  
C      1  0.4317850000000  0.5462780000000  0.5461580000000 1.0
C      1  0.5661750000000  0.4551200000000  0.5192460000000 1.0
C      1  0.5423640000000  0.4162040000000  0.5036330000000 1.0
C      1  0.4168580000000  0.5538560000000  0.5249830000000 1.0
C      1  0.5741430000000  0.4928160000000  0.5520040000000 1.0
C      1  0.5205830000000  0.4382960000000  0.4337480000000 1.0
C      1  0.4983240000000  0.5813680000000  0.5250160000000 1.0
C      1  0.4752720000000  0.4801030000000  0.4530280000000 1.0
C      1  0.4442230000000  0.4776210000000  0.3960350000000 1.0
C      1  0.5149910000000  0.5374490000000  0.5861080000000 1.0
C      1  0.4169910000000  0.5012620000000  0.4596510000000 1.0
C      1  0.5000780000000  0.5145620000000  0.4751120000000 1.0
C      1  0.4298530000000  0.4938320000000  0.5582340000000 1.0
C      1  0.5056500000000  0.5419600000000  0.4732590000000 1.0
C      1  0.5884660000000  0.4961920000000  0.5093750000000 1.0
C      1  0.5424250000000  0.5775470000000  0.4976360000000 1.0
C      1  0.4703530000000  0.5727440000000  0.5201060000000 1.0
C      1  0.5042960000000  0.5092200000000  0.5343660000000 1.0
C      1  0.4675670000000  0.4329670000000  0.5017950000000 1.0
C      1  0.4686780000000  0.4815640000000  0.5839920000000 1.0
C      1  0.4584920000000  0.5286210000000  0.5788100000000 1.0
C      1  0.5459500000000  0.4438930000000  0.5463230000000 1.0
C      1  0.5303520000000  0.4642190000000  0.4267040000000 1.0
C      1  0.4514020000000  0.5745750000000  0.4966370000000 1.0
C      1  0.5331230000000  0.4907490000000  0.4434220000000 1.0
C      1  0.4987720000000  0.5273630000000  0.4201170000000 1.0
C      1  0.5562200000000  0.4542500000000  0.5704390000000 1.0
C      1  0.4728110000000  0.5425170000000  0.5224460000000 1.0
C      1  0.5801170000000  0.5218020000000  0.5500480000000 1.0
C      1  0.4264360000000  0.4749710000000  0.4636000000000 1.0
C      1  0.5391890000000  0.5575720000000  0.4317220000000 1.0
C      1  0.4314120000000  0.5111640000000  0.5034880000000 1.0
C      1  0.4847640000000  0.4288340000000  0.5459410000000 1.0
C      1  0.4896560000000  0.4608380000000  0.4983900000000 1.0
C      1  0.4896230000000  0.4137420000000  0.4921120000000 1.0
C      1  0.5114770000000  0.4765630000000  0.4091370000000 1.0
C      1  0.5126810000000  0.5614420000000  0.5442380000000 1.0
C      1  0.5172060000000  0.4905240000000  0.4724000000000 1.0
C      1  0.5834240000000  0.4758680000000  0.5294940000000 1.0
C      1  0.4357790000000  0.5535070000000  0.4562670000000 1.0
C      1  0.5453690000000  0.4268300000000  0.4758170000000 1.0
C      1  0.5441550000000  0.4614810000000  0.4987350000000 1.0
C      1  0.5579790000000  0.5641740000000  0.5184810000000 1.0
C      1  0.4429080000000  0.4534910000000  0.5460500000000 1.0
C      1  0.4571610000000  0.5268200000000  0.5036310000000 1.0
C      1  0.5435470000000  0.5002650000000  0.5870470000000 1.0
C      1  0.4252460000000  0.5628910000000  0.5007450000000 1.0
C      1  0.5579600000000  0.5065340000000  0.5049630000000 1.0
C      1  0.4480590000000  0.4673020000000  0.4451380000000 1.0
C      1  0.5006450000000  0.5556290000000  0.5706850000000 1.0
C      1  0.4535760000000  0.4382760000000  0.4543370000000 1.0
C      1  0.5020200000000  0.5372350000000  0.5245080000000 1.0
C      1  0.5577320000000  0.5514740000000  0.4526610000000 1.0
C      1  0.5606430000000  0.4984090000000  0.4517060000000 1.0
C      1  0.5679740000000  0.5289080000000  0.4885660000000 1.0
C      1  0.4734010000000  0.4845370000000  0.5091290000000 1.0
C      1  0.5499960000000  0.5048810000000  0.5335990000000 1.0
C      1  0.4812450000000  0.4938020000000  0.5368890000000 1.0
C      1  0.4463420000000  0.4723870000000  0.5694640000000 1.0
C      1  0.5563480000000  0.4537420000000  0.4736740000000 1.0
C      1  0.4729920000000  0.5087660000000  0.5921690000000 1.0
C      1  0.4773760000000  0.4257910000000  0.4452130000000 1.0
C      1  0.4467680000000  0.4387790000000  0.4820570000000 1.0
C      1  0.5149380000000  0.5787060000000  0.5027570000000 1.0
C      1  0.5416500000000  0.5284980000000  0.5801040000000 1.0
C      1  0.5027990000000  0.4109400000000  0.5359320000000 1.0
C      1  0.4660350000000  0.4646770000000  0.3915170000000 1.0
C      1  0.4433500000000  0.5339610000000  0.4360780000000 1.0
C      1  0.4603510000000  0.4352910000000  0.5317180000000 1.0
C      1  0.5136940000000  0.5494870000000  0.4985980000000 1.0
C      1  0.5441000000000  0.5583360000000  0.5426360000000 1.0
C      1  0.5238930000000  0.4229180000000  0.4576730000000 1.0
C      1  0.5164230000000  0.4496580000000  0.5100600000000 1.0
C      1  0.4842130000000  0.4747690000000  0.5616350000000 1.0
C      1  0.4373290000000  0.4850410000000  0.4216280000000 1.0
C      1  0.5575110000000  0.4281870000000  0.5243200000000 1.0
C      1  0.4826250000000  0.5577370000000  0.4567070000000 1.0
C      1  0.4269450000000  0.4755090000000  0.5356590000000 1.0
C      1  0.4739710000000  0.5088000000000  0.4894890000000 1.0
C      1  0.5019990000000  0.5729800000000  0.4402530000000 1.0
C      1  0.5666480000000  0.5258080000000  0.4609780000000 1.0
C      1  0.5207920000000  0.4589190000000  0.5381370000000 1.0
C      1  0.4282270000000  0.5093260000000  0.4342320000000 1.0
C      1  0.4935580000000  0.4367780000000  0.4242220000000 1.0
C      1  0.4746730000000  0.5076680000000  0.4593960000000 1.0
C      1  0.5574170000000  0.5393020000000  0.5596040000000 1.0
C      1  0.5909480000000  0.5252220000000  0.5246730000000 1.0
C      1  0.5473930000000  0.5749140000000  0.4690740000000 1.0
C      1  0.5930140000000  0.4869050000000  0.4833240000000 1.0
C      1  0.4730870000000  0.5313080000000  0.4387170000000 1.0
C      1  0.4723680000000  0.5520780000000  0.5693940000000 1.0
C      1  0.4353860000000  0.5221590000000  0.5624330000000 1.0
C      1  0.5783360000000  0.5454340000000  0.5092810000000 1.0
C      1  0.5134540000000  0.5513620000000  0.4227770000000 1.0
C      1  0.5132110000000  0.4169360000000  0.5104430000000 1.0
C      1  0.4982810000000  0.4517210000000  0.5557180000000 1.0
C      1  0.5612750000000  0.4806660000000  0.5750410000000 1.0
C      1  0.5143640000000  0.5031230000000  0.4201220000000 1.0
C      1  0.5280280000000  0.5807930000000  0.4489560000000 1.0
C      1  0.4180980000000  0.5472960000000  0.4769950000000 1.0
C      1  0.4573040000000  0.5680100000000  0.4689130000000 1.0
C      1  0.4307320000000  0.4624090000000  0.4878950000000 1.0
C      1  0.5001410000000  0.5152130000000  0.5972040000000 1.0
C      1  0.4156520000000  0.5192230000000  0.4811870000000 1.0
C      1  0.5182830000000  0.4950310000000  0.5958780000000 1.0
C      1  0.5742400000000  0.4770100000000  0.4657430000000 1.0
C      1  0.4363310000000  0.4819460000000  0.5092040000000 1.0
C      1  0.4581970000000  0.5595520000000  0.5459070000000 1.0
C      1  0.5347370000000  0.4887250000000  0.4980020000000 1.0
C      1  0.4892110000000  0.4577800000000  0.4045320000000 1.0
C      1  0.5252290000000  0.4904290000000  0.5287350000000 1.0
C      1  0.4959420000000  0.4692130000000  0.4708050000000 1.0
C      1  0.4962150000000  0.4158700000000  0.4652310000000 1.0
END
