TITL C-21775-2070-8 -95.9312050417848 125000 -500.502792084175 0 0 72 (C1) n - 1
REM
REM in /rds/project/t2_vol4/rds-t2-cs072/BORA/CARBON/from-Arr/AIRSS/Generating-Clusters/GAP-ML-2020/Only-C1/SD-CG/HFTN-CG
REM
REM
REM
REM
REM
REM ./C.cell (11c1c37f851c82e70ff6c80c92926a4b)
REM AIRSS Version 0.9.1 bugfix July 2018 build 013d7b7c2542+ Fri, 06 Jul 2018 19:26:36 +0100
REM compiler GCC version 9.3.0
REM options -cpp -mtune=generic -march=x86-64 -g -O0
REM seed -221703009 1484685203 -1960635918 1810769251 345111300 -1038000717 -275077340 -1159739637 1466803479 -2005219546 2020596554 1043379561 -98524328 -1478260306 -1617925552 -1647945612 -501192903 689283431 527002197 463502511 1786455293 643653986 -415827861 -2098167437 -1333836244 1400797220 1254518110 -954181030 405057004 1898557751 547038709 1499040259 666427365
REM
CELL 1.54180   50.00000   50.00000   50.00000   90.00000   90.00000   90.00000
LATT -1
SFAC C  
C      1  0.5444370000000  0.4849990000000  0.5549130000000 1.0
C      1  0.4349260000000  0.5171600000000  0.4902590000000 1.0
C      1  0.5064180000000  0.5665550000000  0.4508150000000 1.0
C      1  0.5449330000000  0.5331440000000  0.5659570000000 1.0
C      1  0.4391810000000  0.4684990000000  0.5235110000000 1.0
C      1  0.5325880000000  0.4717440000000  0.5308330000000 1.0
C      1  0.5116960000000  0.4235930000000  0.4930070000000 1.0
C      1  0.4979590000000  0.5478730000000  0.4300990000000 1.0
C      1  0.5078890000000  0.4674980000000  0.4881020000000 1.0
C      1  0.5545760000000  0.5107640000000  0.5500160000000 1.0
C      1  0.5625080000000  0.5072340000000  0.4734450000000 1.0
C      1  0.5643120000000  0.4599100000000  0.4928170000000 1.0
C      1  0.4506110000000  0.4891370000000  0.4496070000000 1.0
C      1  0.4689900000000  0.4563370000000  0.4420380000000 1.0
C      1  0.4444280000000  0.4676350000000  0.4336580000000 1.0
C      1  0.4731150000000  0.5356680000000  0.4381030000000 1.0
C      1  0.4956720000000  0.4643250000000  0.4313600000000 1.0
C      1  0.5006270000000  0.4906720000000  0.5760750000000 1.0
C      1  0.5146960000000  0.4947930000000  0.4755090000000 1.0
C      1  0.5461740000000  0.5500130000000  0.5411630000000 1.0
C      1  0.4886190000000  0.5589470000000  0.5709070000000 1.0
C      1  0.5196050000000  0.5041870000000  0.4198450000000 1.0
C      1  0.5171590000000  0.4540680000000  0.4465340000000 1.0
C      1  0.5323770000000  0.5578560000000  0.4605280000000 1.0
C      1  0.4845920000000  0.5691830000000  0.4682580000000 1.0
C      1  0.5047150000000  0.5703260000000  0.5554700000000 1.0
C      1  0.5033860000000  0.4431810000000  0.4715080000000 1.0
C      1  0.4548910000000  0.5217920000000  0.5765210000000 1.0
C      1  0.5214080000000  0.4732480000000  0.5686870000000 1.0
C      1  0.5489820000000  0.5258300000000  0.4966880000000 1.0
C      1  0.5119910000000  0.4965930000000  0.5209810000000 1.0
C      1  0.5099070000000  0.4548560000000  0.5459470000000 1.0
C      1  0.4897090000000  0.5655890000000  0.4957240000000 1.0
C      1  0.4405490000000  0.5145760000000  0.5189540000000 1.0
C      1  0.4746420000000  0.5062220000000  0.4423020000000 1.0
C      1  0.4790400000000  0.4892900000000  0.5560850000000 1.0
C      1  0.5174660000000  0.5658460000000  0.5057790000000 1.0
C      1  0.4736130000000  0.4417370000000  0.4659010000000 1.0
C      1  0.5558720000000  0.5151180000000  0.4474900000000 1.0
C      1  0.5331330000000  0.4274550000000  0.5128210000000 1.0
C      1  0.5204940000000  0.5323250000000  0.4235080000000 1.0
C      1  0.5491870000000  0.4514930000000  0.5141280000000 1.0
C      1  0.5373270000000  0.5539220000000  0.4880570000000 1.0
C      1  0.4445810000000  0.4912120000000  0.4797020000000 1.0
C      1  0.4359120000000  0.4936990000000  0.5366150000000 1.0
C      1  0.5562390000000  0.5279230000000  0.5256650000000 1.0
C      1  0.4918400000000  0.5123420000000  0.5367880000000 1.0
C      1  0.5423090000000  0.4701530000000  0.4480420000000 1.0
C      1  0.4622380000000  0.5514910000000  0.4599220000000 1.0
C      1  0.4920140000000  0.4209760000000  0.5142380000000 1.0
C      1  0.4664230000000  0.4315510000000  0.5124670000000 1.0
C      1  0.4520600000000  0.4997650000000  0.5614770000000 1.0
C      1  0.5233340000000  0.5658410000000  0.5341040000000 1.0
C      1  0.5124390000000  0.4283480000000  0.5343160000000 1.0
C      1  0.5601880000000  0.4772380000000  0.4723100000000 1.0
C      1  0.4392640000000  0.4658350000000  0.4947330000000 1.0
C      1  0.5280990000000  0.5306770000000  0.5864640000000 1.0
C      1  0.4684080000000  0.5477390000000  0.5039310000000 1.0
C      1  0.4888910000000  0.5039330000000  0.4707190000000 1.0
C      1  0.4560230000000  0.4428390000000  0.4881320000000 1.0
C      1  0.4590850000000  0.4500540000000  0.5329010000000 1.0
C      1  0.5245720000000  0.5088950000000  0.4981660000000 1.0
C      1  0.4734610000000  0.4978530000000  0.4942790000000 1.0
C      1  0.4798240000000  0.5336650000000  0.5802020000000 1.0
C      1  0.5419700000000  0.5388100000000  0.4414040000000 1.0
C      1  0.4949150000000  0.4916980000000  0.4241420000000 1.0
C      1  0.4497400000000  0.5408940000000  0.4829720000000 1.0
C      1  0.4711020000000  0.5208750000000  0.5162700000000 1.0
C      1  0.4828950000000  0.4656800000000  0.5390880000000 1.0
C      1  0.4910690000000  0.4782250000000  0.5089540000000 1.0
C      1  0.5429480000000  0.4934670000000  0.4324330000000 1.0
C      1  0.5037590000000  0.5171270000000  0.5856560000000 1.0
END
