TITL C-21097-1322-4 -0.0762390254670931 125000 -374.362625866358 0 0 54 (C1) n - 1
REM
REM in /rds/project/t2_vol4/rds-t2-cs072/BORA/CARBON/from-Arr/AIRSS/Generating-Clusters/GAP-ML-2020/Only-C1/SD-CG/HFTN-CG
REM
REM
REM
REM
REM
REM ./C.cell (11c1c37f851c82e70ff6c80c92926a4b)
REM AIRSS Version 0.9.1 bugfix July 2018 build 013d7b7c2542+ Fri, 06 Jul 2018 19:26:36 +0100
REM compiler GCC version 9.3.0
REM options -cpp -mtune=generic -march=x86-64 -g -O0
REM seed -657716403 -760578274 1474716663 -862524004 -1483176565 687206892 -1546534989 1394872025 -897533875 892860341 591738334 1353534072 1584788217 205126934 -800800810 -1902281449 -152468476 -2005839647 -871546820 -1707988565 -1349326338 250234487 -309867831 -647950235 -1309341113 -1861948308 1881558351 1867889938 -207651900 1465767009 -482175683 -1186836050 1136418970
REM
CELL 1.54180   50.00000   50.00000   50.00000   90.00000   90.00000   90.00000
LATT -1
SFAC C  
C      1  0.5564860000000  0.4735660000000  0.4796500000000 1.0
C      1  0.5039720000000  0.5350190000000  0.5489270000000 1.0
C      1  0.4679070000000  0.5252240000000  0.4542040000000 1.0
C      1  0.5460130000000  0.4891480000000  0.5496560000000 1.0
C      1  0.5563070000000  0.4891300000000  0.5231630000000 1.0
C      1  0.4530010000000  0.5436110000000  0.5079950000000 1.0
C      1  0.4575900000000  0.5224770000000  0.5513250000000 1.0
C      1  0.5061330000000  0.4947320000000  0.4366130000000 1.0
C      1  0.5366530000000  0.5586330000000  0.5151870000000 1.0
C      1  0.4977510000000  0.5171740000000  0.5235370000000 1.0
C      1  0.5629220000000  0.5015750000000  0.4788370000000 1.0
C      1  0.5033660000000  0.5167800000000  0.5699990000000 1.0
C      1  0.4638030000000  0.5448650000000  0.5345560000000 1.0
C      1  0.5175510000000  0.4518150000000  0.4534360000000 1.0
C      1  0.5077110000000  0.4646450000000  0.5313870000000 1.0
C      1  0.5404120000000  0.4679580000000  0.4562660000000 1.0
C      1  0.5499370000000  0.5130720000000  0.4553470000000 1.0
C      1  0.4722510000000  0.4609670000000  0.4598100000000 1.0
C      1  0.5164440000000  0.5232010000000  0.4828060000000 1.0
C      1  0.4449190000000  0.5180300000000  0.4973550000000 1.0
C      1  0.5169420000000  0.4278720000000  0.4989740000000 1.0
C      1  0.5345970000000  0.4928110000000  0.4432060000000 1.0
C      1  0.4726800000000  0.4303670000000  0.5009360000000 1.0
C      1  0.5065350000000  0.5631670000000  0.5134840000000 1.0
C      1  0.4531880000000  0.5076580000000  0.4719000000000 1.0
C      1  0.4474450000000  0.4714410000000  0.5009760000000 1.0
C      1  0.5226050000000  0.4735220000000  0.5546620000000 1.0
C      1  0.5276500000000  0.4493930000000  0.5140700000000 1.0
C      1  0.4617190000000  0.4516170000000  0.5159450000000 1.0
C      1  0.4769780000000  0.5064830000000  0.5669970000000 1.0
C      1  0.5100370000000  0.5438190000000  0.4473600000000 1.0
C      1  0.4543680000000  0.4786600000000  0.4738780000000 1.0
C      1  0.4913540000000  0.5726330000000  0.4897110000000 1.0
C      1  0.5155620000000  0.4958210000000  0.4889210000000 1.0
C      1  0.4406010000000  0.4956710000000  0.5142600000000 1.0
C      1  0.4942880000000  0.5628130000000  0.4620160000000 1.0
C      1  0.4785600000000  0.4611310000000  0.5380160000000 1.0
C      1  0.5021150000000  0.5357570000000  0.5025490000000 1.0
C      1  0.5536900000000  0.5397490000000  0.5113430000000 1.0
C      1  0.4463930000000  0.4982520000000  0.5411770000000 1.0
C      1  0.4930860000000  0.5203230000000  0.4400080000000 1.0
C      1  0.4943040000000  0.4154780000000  0.5111890000000 1.0
C      1  0.5034040000000  0.4914960000000  0.5127490000000 1.0
C      1  0.4631980000000  0.5616500000000  0.4891190000000 1.0
C      1  0.4896460000000  0.5573980000000  0.5390090000000 1.0
C      1  0.5327690000000  0.5345560000000  0.4617660000000 1.0
C      1  0.4796440000000  0.4373010000000  0.4738590000000 1.0
C      1  0.4673230000000  0.4817750000000  0.5539770000000 1.0
C      1  0.5077420000000  0.4326540000000  0.4712780000000 1.0
C      1  0.4956650000000  0.4686550000000  0.4441470000000 1.0
C      1  0.4674540000000  0.5525110000000  0.4623160000000 1.0
C      1  0.5249060000000  0.4973830000000  0.5676950000000 1.0
C      1  0.5620430000000  0.5130350000000  0.5056290000000 1.0
C      1  0.5503790000000  0.4655250000000  0.5068180000000 1.0
END
