TITL C-2114532-4476-12 -0.132206401589381 125000 -748.03057588533 0 0 105 (C1) n - 1
REM
REM in /nfs/bkarasulu/CARBON/AIRSS/Generating-Clusters/GAP-ML-2020/Only-C1/SD-CG/HFTN-CG
REM
REM
REM
REM
REM
REM ./C.cell (11c1c37f851c82e70ff6c80c92926a4b)
REM
REM compiler GCC version 9.2.1 20190827 (Red Hat 9.2.1-1)
REM options -cpp -mtune=generic -march=x86-64 -g -O0 -fpre-include=/usr/include/finclude/math-vector-fortran.h
REM seed 1320978625 1882351194 588922617 1461270832 -1146838703 1734572329 595252944 1636128443 -772049046 -99517809 -1980082381 -655842453 894304924 -1421180794 -1971423376 1503253021 -463676990 -1345517564 -120459968 2049445594 -1077803308 -1353684004 344408426 -1064842668 1259051008 -1768876813 45597861 1287968066 -519580143 -1199502814 -497966239 -1529505790 -641889598
REM
CELL 1.54180   50.00000   50.00000   50.00000   90.00000   90.00000   90.00000
LATT -1
SFAC C  
C      1  0.4867810000000  0.4288920000000  0.4902280000000 1.0
C      1  0.3918110000000  0.4908420000000  0.4648400000000 1.0
C      1  0.4950120000000  0.4706700000000  0.5754750000000 1.0
C      1  0.5425550000000  0.4822860000000  0.4322440000000 1.0
C      1  0.5783190000000  0.4577630000000  0.5358430000000 1.0
C      1  0.5870530000000  0.5052350000000  0.5270220000000 1.0
C      1  0.5456450000000  0.5545940000000  0.4430810000000 1.0
C      1  0.5730100000000  0.5120320000000  0.4559220000000 1.0
C      1  0.5746610000000  0.5306850000000  0.5264880000000 1.0
C      1  0.4332520000000  0.5246290000000  0.5589310000000 1.0
C      1  0.5616140000000  0.5638400000000  0.4929850000000 1.0
C      1  0.4599470000000  0.5079080000000  0.4420000000000 1.0
C      1  0.4099400000000  0.4597110000000  0.4999460000000 1.0
C      1  0.5152320000000  0.4286170000000  0.5558860000000 1.0
C      1  0.4539490000000  0.5357470000000  0.4524160000000 1.0
C      1  0.4760950000000  0.4743790000000  0.5510170000000 1.0
C      1  0.4735650000000  0.5502920000000  0.5656110000000 1.0
C      1  0.5655070000000  0.4835600000000  0.4508930000000 1.0
C      1  0.4156200000000  0.5341050000000  0.4872160000000 1.0
C      1  0.4820310000000  0.5042860000000  0.4240660000000 1.0
C      1  0.4235320000000  0.4770220000000  0.5446250000000 1.0
C      1  0.5351340000000  0.5113220000000  0.5518130000000 1.0
C      1  0.4069270000000  0.4788870000000  0.5206810000000 1.0
C      1  0.5106740000000  0.4387330000000  0.4432820000000 1.0
C      1  0.5772280000000  0.5412130000000  0.4992920000000 1.0
C      1  0.5433150000000  0.4215190000000  0.4858970000000 1.0
C      1  0.5112010000000  0.5129110000000  0.4742920000000 1.0
C      1  0.4957620000000  0.4981030000000  0.5875580000000 1.0
C      1  0.5306690000000  0.4154300000000  0.5123570000000 1.0
C      1  0.4915350000000  0.5785440000000  0.5344310000000 1.0
C      1  0.4464630000000  0.5612090000000  0.5255630000000 1.0
C      1  0.4484010000000  0.4621940000000  0.5430450000000 1.0
C      1  0.5226570000000  0.4650380000000  0.5267500000000 1.0
C      1  0.4754140000000  0.5121390000000  0.5200770000000 1.0
C      1  0.5130270000000  0.5654200000000  0.5489330000000 1.0
C      1  0.3998870000000  0.5049260000000  0.5123090000000 1.0
C      1  0.4555940000000  0.4796510000000  0.4542790000000 1.0
C      1  0.4981440000000  0.4878250000000  0.4843150000000 1.0
C      1  0.4731060000000  0.5811110000000  0.4883020000000 1.0
C      1  0.4813650000000  0.5778590000000  0.4611050000000 1.0
C      1  0.5369690000000  0.5124980000000  0.4843420000000 1.0
C      1  0.4607060000000  0.5247760000000  0.5703690000000 1.0
C      1  0.4556060000000  0.4981870000000  0.5033280000000 1.0
C      1  0.4721310000000  0.5103730000000  0.5933120000000 1.0
C      1  0.4230700000000  0.5001120000000  0.5580970000000 1.0
C      1  0.5777630000000  0.4851990000000  0.5450750000000 1.0
C      1  0.4078550000000  0.4694190000000  0.4722290000000 1.0
C      1  0.5290650000000  0.4201130000000  0.4618950000000 1.0
C      1  0.4669740000000  0.5679270000000  0.5440940000000 1.0
C      1  0.5083660000000  0.5830800000000  0.4536930000000 1.0
C      1  0.5382950000000  0.5605280000000  0.5372900000000 1.0
C      1  0.4509840000000  0.5647980000000  0.4963560000000 1.0
C      1  0.5547440000000  0.4884550000000  0.5619050000000 1.0
C      1  0.5443590000000  0.4617750000000  0.5673220000000 1.0
C      1  0.5101730000000  0.4388890000000  0.4734710000000 1.0
C      1  0.5570550000000  0.5282350000000  0.4382270000000 1.0
C      1  0.5442720000000  0.4954860000000  0.5041940000000 1.0
C      1  0.4980490000000  0.4937750000000  0.5144310000000 1.0
C      1  0.4414150000000  0.4374670000000  0.4735230000000 1.0
C      1  0.4318750000000  0.4607670000000  0.4594670000000 1.0
C      1  0.5169020000000  0.4526960000000  0.5722760000000 1.0
C      1  0.5747360000000  0.4643690000000  0.4694750000000 1.0
C      1  0.5172540000000  0.4667470000000  0.4809150000000 1.0
C      1  0.5216930000000  0.5885620000000  0.4995850000000 1.0
C      1  0.5418410000000  0.5095910000000  0.4217980000000 1.0
C      1  0.4388610000000  0.5461080000000  0.4763960000000 1.0
C      1  0.5516970000000  0.5359060000000  0.5424020000000 1.0
C      1  0.5507380000000  0.5703490000000  0.4670680000000 1.0
C      1  0.4284260000000  0.5417130000000  0.5357900000000 1.0
C      1  0.4507090000000  0.4460880000000  0.5197760000000 1.0
C      1  0.5941350000000  0.4989540000000  0.4991700000000 1.0
C      1  0.4729670000000  0.5557760000000  0.4440900000000 1.0
C      1  0.5256140000000  0.4964300000000  0.5265340000000 1.0
C      1  0.4689110000000  0.4798970000000  0.4845050000000 1.0
C      1  0.5240360000000  0.5186400000000  0.4035330000000 1.0
C      1  0.4669290000000  0.4264980000000  0.4682440000000 1.0
C      1  0.5186150000000  0.4653390000000  0.4302480000000 1.0
C      1  0.4310460000000  0.4407630000000  0.5005180000000 1.0
C      1  0.4883680000000  0.5346820000000  0.5092820000000 1.0
C      1  0.5827740000000  0.4521230000000  0.5088410000000 1.0
C      1  0.5016290000000  0.4144270000000  0.5130430000000 1.0
C      1  0.4752620000000  0.4529740000000  0.5052620000000 1.0
C      1  0.5282870000000  0.5877690000000  0.4722510000000 1.0
C      1  0.4777390000000  0.5061500000000  0.5494600000000 1.0
C      1  0.4725120000000  0.4623380000000  0.4366540000000 1.0
C      1  0.5576880000000  0.4434100000000  0.5494890000000 1.0
C      1  0.4951600000000  0.4213020000000  0.5389930000000 1.0
C      1  0.5373920000000  0.4663020000000  0.5004970000000 1.0
C      1  0.5606470000000  0.4456020000000  0.4897150000000 1.0
C      1  0.4929620000000  0.4774210000000  0.4250450000000 1.0
C      1  0.5016090000000  0.5347940000000  0.4868510000000 1.0
C      1  0.5184880000000  0.5636880000000  0.4353310000000 1.0
C      1  0.5851260000000  0.5196010000000  0.4816670000000 1.0
C      1  0.5391080000000  0.4242420000000  0.5395130000000 1.0
C      1  0.4943020000000  0.5878040000000  0.5078500000000 1.0
C      1  0.4986380000000  0.5248810000000  0.4140860000000 1.0
C      1  0.4002880000000  0.5092650000000  0.4827560000000 1.0
C      1  0.5429960000000  0.5741650000000  0.5127140000000 1.0
C      1  0.5076460000000  0.5171990000000  0.5655130000000 1.0
C      1  0.4122080000000  0.5306350000000  0.5161300000000 1.0
C      1  0.5013520000000  0.5459180000000  0.5659330000000 1.0
C      1  0.5927010000000  0.4724810000000  0.4907520000000 1.0
C      1  0.4812240000000  0.4370090000000  0.4445810000000 1.0
C      1  0.4924450000000  0.4664190000000  0.5253120000000 1.0
C      1  0.4949750000000  0.5499890000000  0.4265230000000 1.0
END
