TITL C-21843-6178-9 -0.056930574936677 125000 -94.5262680381512 0 0 15 (C1) n - 1
REM
REM in /rds/project/t2_vol4/rds-t2-cs072/BORA/CARBON/from-Arr/AIRSS/Generating-Clusters/GAP-ML-2020/Only-C1/SD-CG/HFTN-CG
REM
REM
REM
REM
REM
REM ./C.cell (11c1c37f851c82e70ff6c80c92926a4b)
REM AIRSS Version 0.9.1 bugfix July 2018 build 013d7b7c2542+ Fri, 06 Jul 2018 19:26:36 +0100
REM compiler GCC version 9.3.0
REM options -cpp -mtune=generic -march=x86-64 -g -O0
REM seed -958998088 -1691226405 1873593038 1449665218 589489929 -1908347480 -1609031027 732381835 2086561634 -803015913 -430342620 127963350 938159399 -1795781506 1460495657 585892306 1284987930 -402496566 -1680041427 -615660853 1915988527 -361846792 2111361770 -1249648353 174791876 -1757003234 -872706262 -280179805 -531238107 804726025 -675150286 -472569942 -1776735996
REM
CELL 1.54180   50.00000   50.00000   50.00000   90.00000   90.00000   90.00000
LATT -1
SFAC C  
C      1  0.5205290000000  0.5068570000000  0.5305610000000 1.0
C      1  0.4661470000000  0.4776030000000  0.4467600000000 1.0
C      1  0.4766350000000  0.5257070000000  0.5333740000000 1.0
C      1  0.5503030000000  0.4876450000000  0.4695630000000 1.0
C      1  0.4798970000000  0.4684230000000  0.4691780000000 1.0
C      1  0.4849540000000  0.4778250000000  0.5223220000000 1.0
C      1  0.4828110000000  0.5478690000000  0.5221230000000 1.0
C      1  0.5331110000000  0.5185010000000  0.5083990000000 1.0
C      1  0.5269630000000  0.5470920000000  0.5062920000000 1.0
C      1  0.4931790000000  0.5021920000000  0.5327350000000 1.0
C      1  0.5423110000000  0.5016170000000  0.4886190000000 1.0
C      1  0.5042670000000  0.5585350000000  0.5100640000000 1.0
C      1  0.4797210000000  0.4659270000000  0.4962590000000 1.0
C      1  0.4742190000000  0.4533500000000  0.5208740000000 1.0
C      1  0.4849540000000  0.4608560000000  0.4428770000000 1.0
END
