TITL C-2114519-1652-15 1152.38669389913 125000 -837.220449471943 0 0 120 (C1) n - 1
REM
REM in /nfs/bkarasulu/CARBON/AIRSS/Generating-Clusters/GAP-ML-2020/Only-C1/SD-CG/HFTN-CG
REM
REM
REM
REM
REM
REM ./C.cell (11c1c37f851c82e70ff6c80c92926a4b)
REM
REM compiler GCC version 9.2.1 20190827 (Red Hat 9.2.1-1)
REM options -cpp -mtune=generic -march=x86-64 -g -O0 -fpre-include=/usr/include/finclude/math-vector-fortran.h
REM seed -1838460926 -1751507713 -1492393472 -1227761435 -1505844903 1276798737 2063299822 -431468561 -1245943052 -2032985073 -315203969 -2003738375 -2030408038 107219584 2014970768 -1024397164 -1912301394 1174724054 -2051319683 1613816038 -1206556184 -2057699047 1013017946 1476537144 277010776 -1624271773 159036001 -1137231022 -850387676 -1096084437 -2112862119 -1431335977 -536867411
REM
CELL 1.54180   50.00000   50.00000   50.00000   90.00000   90.00000   90.00000
LATT -1
SFAC C  
C      1  0.4271140000000  0.4626060000000  0.4455770000000 1.0
C      1  0.4720190000000  0.4843650000000  0.5485260000000 1.0
C      1  0.4160320000000  0.4973120000000  0.4834870000000 1.0
C      1  0.5524280000000  0.4629710000000  0.4362770000000 1.0
C      1  0.4489180000000  0.4421400000000  0.5523200000000 1.0
C      1  0.4473510000000  0.5401870000000  0.4110400000000 1.0
C      1  0.5506210000000  0.4403190000000  0.5636830000000 1.0
C      1  0.5322730000000  0.4581430000000  0.5102720000000 1.0
C      1  0.4155670000000  0.5174940000000  0.5034540000000 1.0
C      1  0.4297720000000  0.5657800000000  0.4807910000000 1.0
C      1  0.4972270000000  0.4756540000000  0.4744520000000 1.0
C      1  0.4684940000000  0.5216720000000  0.4856170000000 1.0
C      1  0.5647680000000  0.4363690000000  0.4859920000000 1.0
C      1  0.4991650000000  0.5843690000000  0.5265230000000 1.0
C      1  0.5522030000000  0.5150130000000  0.4665080000000 1.0
C      1  0.5494910000000  0.5357080000000  0.4295480000000 1.0
C      1  0.4603560000000  0.4302180000000  0.5052850000000 1.0
C      1  0.4525470000000  0.5746140000000  0.5355130000000 1.0
C      1  0.4780500000000  0.4351590000000  0.5556520000000 1.0
C      1  0.4817740000000  0.4104990000000  0.5418720000000 1.0
C      1  0.4214420000000  0.5004650000000  0.4542610000000 1.0
C      1  0.5352640000000  0.5110490000000  0.4175120000000 1.0
C      1  0.5811420000000  0.4586630000000  0.4767090000000 1.0
C      1  0.5731590000000  0.5282180000000  0.5452170000000 1.0
C      1  0.4684150000000  0.5952920000000  0.4920930000000 1.0
C      1  0.4758580000000  0.4287490000000  0.4596120000000 1.0
C      1  0.4572770000000  0.5023790000000  0.5284780000000 1.0
C      1  0.5056550000000  0.5630060000000  0.5462500000000 1.0
C      1  0.4367880000000  0.5544780000000  0.4295190000000 1.0
C      1  0.5616480000000  0.5417970000000  0.4576590000000 1.0
C      1  0.4306270000000  0.4505130000000  0.4715520000000 1.0
C      1  0.4872000000000  0.4607160000000  0.5362550000000 1.0
C      1  0.5129420000000  0.4427410000000  0.4285690000000 1.0
C      1  0.4896800000000  0.5405040000000  0.5895940000000 1.0
C      1  0.5005200000000  0.4423050000000  0.5751360000000 1.0
C      1  0.5613820000000  0.5666260000000  0.4978250000000 1.0
C      1  0.4504490000000  0.5384020000000  0.5598360000000 1.0
C      1  0.4497630000000  0.4732240000000  0.4314730000000 1.0
C      1  0.5737100000000  0.4704770000000  0.4523650000000 1.0
C      1  0.5201550000000  0.5182820000000  0.4723290000000 1.0
C      1  0.5036900000000  0.4658060000000  0.5907930000000 1.0
C      1  0.5197940000000  0.5823050000000  0.5070950000000 1.0
C      1  0.4272070000000  0.5345100000000  0.5448670000000 1.0
C      1  0.4511950000000  0.5024120000000  0.4398410000000 1.0
C      1  0.4862850000000  0.5853930000000  0.4720450000000 1.0
C      1  0.5303980000000  0.4779400000000  0.5915410000000 1.0
C      1  0.5013240000000  0.4025070000000  0.4962300000000 1.0
C      1  0.5303010000000  0.5547220000000  0.4276470000000 1.0
C      1  0.5878400000000  0.5349970000000  0.4740840000000 1.0
C      1  0.4401890000000  0.4389960000000  0.5256840000000 1.0
C      1  0.4751440000000  0.5157950000000  0.4571980000000 1.0
C      1  0.5129740000000  0.5136190000000  0.5230180000000 1.0
C      1  0.5491770000000  0.5213550000000  0.5791610000000 1.0
C      1  0.4231810000000  0.4798650000000  0.5403470000000 1.0
C      1  0.4060410000000  0.4805330000000  0.4417760000000 1.0
C      1  0.5283470000000  0.4918220000000  0.5347670000000 1.0
C      1  0.5814430000000  0.4800480000000  0.5186170000000 1.0
C      1  0.4607660000000  0.5645550000000  0.5610080000000 1.0
C      1  0.5358810000000  0.5624100000000  0.5454990000000 1.0
C      1  0.5821770000000  0.4651210000000  0.5422970000000 1.0
C      1  0.4664520000000  0.4993840000000  0.5015360000000 1.0
C      1  0.4845750000000  0.4385980000000  0.4338480000000 1.0
C      1  0.4434550000000  0.5656720000000  0.4541960000000 1.0
C      1  0.4721420000000  0.5688770000000  0.4539900000000 1.0
C      1  0.4598660000000  0.4816670000000  0.5758010000000 1.0
C      1  0.4721710000000  0.5894000000000  0.5200960000000 1.0
C      1  0.5277120000000  0.5061860000000  0.5907890000000 1.0
C      1  0.4897070000000  0.4775940000000  0.4067600000000 1.0
C      1  0.5172060000000  0.4639430000000  0.5369170000000 1.0
C      1  0.4867990000000  0.5069460000000  0.5615920000000 1.0
C      1  0.4853060000000  0.5055590000000  0.4047020000000 1.0
C      1  0.4711270000000  0.4603400000000  0.4199870000000 1.0
C      1  0.4931560000000  0.5357550000000  0.5263050000000 1.0
C      1  0.5709240000000  0.5074650000000  0.5657510000000 1.0
C      1  0.5007680000000  0.4997130000000  0.4613040000000 1.0
C      1  0.4737810000000  0.4759760000000  0.4906420000000 1.0
C      1  0.5735290000000  0.4797050000000  0.5663440000000 1.0
C      1  0.5763730000000  0.4981960000000  0.4551250000000 1.0
C      1  0.4802820000000  0.4078880000000  0.5150410000000 1.0
C      1  0.4253490000000  0.5085090000000  0.5307580000000 1.0
C      1  0.5534020000000  0.4648410000000  0.5797370000000 1.0
C      1  0.5237010000000  0.4411490000000  0.5582430000000 1.0
C      1  0.5830120000000  0.5477160000000  0.4989120000000 1.0
C      1  0.5377660000000  0.4396020000000  0.4433200000000 1.0
C      1  0.4203670000000  0.4689300000000  0.4919100000000 1.0
C      1  0.5927010000000  0.4808360000000  0.4926540000000 1.0
C      1  0.4827050000000  0.4852670000000  0.5930600000000 1.0
C      1  0.4979400000000  0.5127090000000  0.5887780000000 1.0
C      1  0.4592640000000  0.5154880000000  0.4130040000000 1.0
C      1  0.5484810000000  0.5659320000000  0.4729470000000 1.0
C      1  0.5502700000000  0.4856520000000  0.5139460000000 1.0
C      1  0.5548500000000  0.4375910000000  0.5133380000000 1.0
C      1  0.4716560000000  0.5244260000000  0.5438750000000 1.0
C      1  0.5048100000000  0.5455370000000  0.4242400000000 1.0
C      1  0.4205320000000  0.5465840000000  0.5013520000000 1.0
C      1  0.5537280000000  0.5106550000000  0.4990550000000 1.0
C      1  0.4878240000000  0.5444560000000  0.4489100000000 1.0
C      1  0.4297520000000  0.5560530000000  0.5271250000000 1.0
C      1  0.4525780000000  0.4326190000000  0.4759840000000 1.0
C      1  0.5449820000000  0.4247960000000  0.4682520000000 1.0
C      1  0.5003130000000  0.4258280000000  0.4761360000000 1.0
C      1  0.4230750000000  0.4611310000000  0.5188920000000 1.0
C      1  0.5947410000000  0.5055540000000  0.4752570000000 1.0
C      1  0.4845880000000  0.5411490000000  0.4973620000000 1.0
C      1  0.4422000000000  0.5882200000000  0.4893780000000 1.0
C      1  0.4397330000000  0.4672780000000  0.5623240000000 1.0
C      1  0.5231730000000  0.4084320000000  0.4797200000000 1.0
C      1  0.4876410000000  0.5608400000000  0.5712390000000 1.0
C      1  0.5429350000000  0.5727400000000  0.5196280000000 1.0
C      1  0.5665560000000  0.4411100000000  0.5396870000000 1.0
C      1  0.5152050000000  0.4669420000000  0.4126470000000 1.0
C      1  0.5269960000000  0.5193920000000  0.5003380000000 1.0
C      1  0.5774520000000  0.5270810000000  0.5176680000000 1.0
C      1  0.5088690000000  0.5205760000000  0.4104050000000 1.0
C      1  0.5381620000000  0.4821130000000  0.4192880000000 1.0
C      1  0.5525420000000  0.5440010000000  0.5595560000000 1.0
C      1  0.5167780000000  0.5731300000000  0.4789580000000 1.0
C      1  0.4807870000000  0.4541380000000  0.5086760000000 1.0
C      1  0.5056920000000  0.5452210000000  0.4743490000000 1.0
C      1  0.5089600000000  0.4537230000000  0.4902150000000 1.0
END
