TITL C-2109088-1588-27 138.83215327733 125000 -224.931129561098 0 0 34 (C1) n - 1
REM
REM in /nfs/bkarasulu/CARBON/AIRSS/Generating-Clusters/GAP-ML-2020/Only-C1/SD-CG/HFTN-CG
REM
REM
REM
REM
REM
REM ./C.cell (11c1c37f851c82e70ff6c80c92926a4b)
REM
REM compiler GCC version 9.2.1 20190827 (Red Hat 9.2.1-1)
REM options -cpp -mtune=generic -march=x86-64 -g -O0 -fpre-include=/usr/include/finclude/math-vector-fortran.h
REM seed 62323065 -2119178089 -809531350 2109107851 -2024453227 -885709666 2046588790 1409446542 1168022318 -468623632 1808464661 2073604394 865716520 1246225550 165056312 -946984822 -1465886921 2131662330 1206965581 -998483896 776965045 -1874832873 -1338253370 -1532748081 -1566856434 -1063878232 1210390136 102197734 -1200897108 385614283 -510211169 1664838152 -978524951
REM
CELL 1.54180   50.00000   50.00000   50.00000   90.00000   90.00000   90.00000
LATT -1
SFAC C  
C      1  0.5641570000000  0.4897190000000  0.4789600000000 1.0
C      1  0.4370220000000  0.5194480000000  0.5096760000000 1.0
C      1  0.5015040000000  0.5225280000000  0.5367390000000 1.0
C      1  0.5426930000000  0.4923850000000  0.5216850000000 1.0
C      1  0.5372690000000  0.4535040000000  0.4909520000000 1.0
C      1  0.5177590000000  0.4531110000000  0.5274910000000 1.0
C      1  0.4708370000000  0.4687780000000  0.4860110000000 1.0
C      1  0.4891070000000  0.5152280000000  0.4651160000000 1.0
C      1  0.4502420000000  0.4761530000000  0.5054600000000 1.0
C      1  0.4573320000000  0.5363950000000  0.4995640000000 1.0
C      1  0.5015480000000  0.5527850000000  0.4945870000000 1.0
C      1  0.4806900000000  0.5351310000000  0.4843690000000 1.0
C      1  0.4557050000000  0.4745610000000  0.5336850000000 1.0
C      1  0.5115450000000  0.5237250000000  0.4491480000000 1.0
C      1  0.5056460000000  0.4733330000000  0.5427220000000 1.0
C      1  0.4859060000000  0.4450330000000  0.4898460000000 1.0
C      1  0.5105450000000  0.5483560000000  0.5225780000000 1.0
C      1  0.5198900000000  0.5503200000000  0.4532000000000 1.0
C      1  0.5422730000000  0.4638570000000  0.5177180000000 1.0
C      1  0.5289620000000  0.5658530000000  0.5306590000000 1.0
C      1  0.4737980000000  0.5205250000000  0.5430980000000 1.0
C      1  0.5287500000000  0.5047840000000  0.4395050000000 1.0
C      1  0.4629140000000  0.4953810000000  0.5517320000000 1.0
C      1  0.5277270000000  0.4793630000000  0.4498130000000 1.0
C      1  0.5456740000000  0.4696370000000  0.4696770000000 1.0
C      1  0.5009440000000  0.4713900000000  0.4491870000000 1.0
C      1  0.5104920000000  0.4441020000000  0.5002770000000 1.0
C      1  0.4544380000000  0.5342070000000  0.5272570000000 1.0
C      1  0.4291300000000  0.4947210000000  0.5034730000000 1.0
C      1  0.4841650000000  0.4860340000000  0.4659090000000 1.0
C      1  0.4787630000000  0.4725290000000  0.5486110000000 1.0
C      1  0.5174570000000  0.5642170000000  0.4741840000000 1.0
C      1  0.5180790000000  0.4990900000000  0.5373500000000 1.0
C      1  0.5570380000000  0.5038160000000  0.4997610000000 1.0
END
