TITL C-2114524-4667-30 0.0298303169775252 125000 -80.325741028696 0 0 13 (C1) n - 1
REM
REM in /nfs/bkarasulu/CARBON/AIRSS/Generating-Clusters/GAP-ML-2020/Only-C1/SD-CG/HFTN-CG
REM
REM
REM
REM
REM
REM ./C.cell (11c1c37f851c82e70ff6c80c92926a4b)
REM
REM compiler GCC version 9.2.1 20190827 (Red Hat 9.2.1-1)
REM options -cpp -mtune=generic -march=x86-64 -g -O0 -fpre-include=/usr/include/finclude/math-vector-fortran.h
REM seed -26011265 46733691 1578731595 -1851765018 1666161053 -1081748588 -669681810 -1169287310 -1809807900 -1460988911 1575054579 -655276041 978568735 2078148669 -856545287 -774461277 -1794973989 906055671 -643175975 1930386121 -1049976918 -483955395 1217587733 69851754 1425346556 -1862958568 580439308 1478390059 704629281 -591361595 -1530845792 1426632077 -300563568
REM
CELL 1.54180   50.00000   50.00000   50.00000   90.00000   90.00000   90.00000
LATT -1
SFAC C  
C      1  0.4975940000000  0.5140430000000  0.4910760000000 1.0
C      1  0.4905980000000  0.4734710000000  0.4522200000000 1.0
C      1  0.5202220000000  0.4824620000000  0.5472100000000 1.0
C      1  0.5129280000000  0.4819380000000  0.5235020000000 1.0
C      1  0.4871080000000  0.4994470000000  0.4470750000000 1.0
C      1  0.5001680000000  0.4669710000000  0.4801850000000 1.0
C      1  0.5043530000000  0.4870400000000  0.4988700000000 1.0
C      1  0.5225720000000  0.5364470000000  0.5279300000000 1.0
C      1  0.4849380000000  0.5286010000000  0.5368550000000 1.0
C      1  0.5090750000000  0.5285460000000  0.5512930000000 1.0
C      1  0.4891810000000  0.5181740000000  0.4648800000000 1.0
C      1  0.4822130000000  0.4503590000000  0.4670530000000 1.0
C      1  0.4990480000000  0.5325000000000  0.5118520000000 1.0
END
