TITL C-2109093-6227-16 -0.00555909504394439 125000 -65.1937847594526 0 0 11 (C1) n - 1
REM
REM in /nfs/bkarasulu/CARBON/AIRSS/Generating-Clusters/GAP-ML-2020/Only-C1/SD-CG/HFTN-CG
REM
REM
REM
REM
REM
REM ./C.cell (11c1c37f851c82e70ff6c80c92926a4b)
REM
REM compiler GCC version 9.2.1 20190827 (Red Hat 9.2.1-1)
REM options -cpp -mtune=generic -march=x86-64 -g -O0 -fpre-include=/usr/include/finclude/math-vector-fortran.h
REM seed -904457943 -2063650670 -1496275813 -1160504887 1946718675 694879681 838102614 608584849 2131035460 -1757751491 -43481730 1472652555 1006090810 1634991245 1125791262 -530054786 1632649777 651031967 567652255 -402167242 1107562058 1415394355 -855455422 1112451716 -1781824999 -1760121528 -1252255446 1435746695 -1139113732 -1586637866 506146711 -46945428 -86507921
REM
CELL 1.54180   50.00000   50.00000   50.00000   90.00000   90.00000   90.00000
LATT -1
SFAC C  
C      1  0.5114790000000  0.5240390000000  0.4860610000000 1.0
C      1  0.5140640000000  0.4824630000000  0.5398160000000 1.0
C      1  0.5162780000000  0.5289360000000  0.5153250000000 1.0
C      1  0.5149380000000  0.4715470000000  0.4787750000000 1.0
C      1  0.4831540000000  0.4500410000000  0.5112200000000 1.0
C      1  0.4598900000000  0.5259900000000  0.5095650000000 1.0
C      1  0.4915900000000  0.5353390000000  0.4705090000000 1.0
C      1  0.5198400000000  0.4957800000000  0.4900660000000 1.0
C      1  0.5181920000000  0.5003830000000  0.5201680000000 1.0
C      1  0.4990540000000  0.4549030000000  0.4912090000000 1.0
C      1  0.4715220000000  0.5305790000000  0.4872860000000 1.0
END
