TITL C-21925-1701-6 0.00306862545537643 125000 -236.781496865322 0 0 36 (C1) n - 1
REM
REM in /rds/project/t2_vol4/rds-t2-cs072/BORA/CARBON/from-Arr/AIRSS/Generating-Clusters/GAP-ML-2020/Only-C1/SD-CG/HFTN-CG
REM
REM
REM
REM
REM
REM ./C.cell (11c1c37f851c82e70ff6c80c92926a4b)
REM AIRSS Version 0.9.1 bugfix July 2018 build 013d7b7c2542+ Fri, 06 Jul 2018 19:26:36 +0100
REM compiler GCC version 9.3.0
REM options -cpp -mtune=generic -march=x86-64 -g -O0
REM seed 479331879 465289947 870740924 915015469 -1259658085 -1973331236 1779706026 1888882717 930874986 741669049 131499934 1831369427 1449399335 -2113664862 -1469001898 -1715855138 104099617 1228690432 -32643955 980042225 1679153379 -225575854 1436009266 -1882091321 -1921067048 -1416218243 703358416 -1679232852 1820574161 445689494 -1550256450 -976537308 -1028613910
REM
CELL 1.54180   50.00000   50.00000   50.00000   90.00000   90.00000   90.00000
LATT -1
SFAC C  
C      1  0.4604260000000  0.5160740000000  0.4615640000000 1.0
C      1  0.4582640000000  0.4936210000000  0.5239140000000 1.0
C      1  0.5162520000000  0.5066040000000  0.4799140000000 1.0
C      1  0.4558820000000  0.4875170000000  0.4706830000000 1.0
C      1  0.5253180000000  0.4940930000000  0.5300090000000 1.0
C      1  0.4905810000000  0.4552020000000  0.4856230000000 1.0
C      1  0.4734320000000  0.5351570000000  0.5102690000000 1.0
C      1  0.4906360000000  0.5178970000000  0.5528540000000 1.0
C      1  0.4573910000000  0.5250030000000  0.4891260000000 1.0
C      1  0.5061880000000  0.4939890000000  0.5540670000000 1.0
C      1  0.4993210000000  0.5465420000000  0.5079160000000 1.0
C      1  0.5348880000000  0.4826030000000  0.4780690000000 1.0
C      1  0.5064640000000  0.4503820000000  0.5321490000000 1.0
C      1  0.5122480000000  0.5524740000000  0.5328720000000 1.0
C      1  0.4704420000000  0.4701420000000  0.5319830000000 1.0
C      1  0.4513650000000  0.4970610000000  0.4969800000000 1.0
C      1  0.4972630000000  0.4809860000000  0.4371240000000 1.0
C      1  0.4927880000000  0.4700810000000  0.5503960000000 1.0
C      1  0.5332840000000  0.4482790000000  0.5269710000000 1.0
C      1  0.5193240000000  0.4567050000000  0.4800110000000 1.0
C      1  0.5595230000000  0.5627560000000  0.5161380000000 1.0
C      1  0.4849060000000  0.4526110000000  0.5131020000000 1.0
C      1  0.5527360000000  0.4718800000000  0.4983650000000 1.0
C      1  0.5463400000000  0.4750610000000  0.5267620000000 1.0
C      1  0.5389950000000  0.5595440000000  0.5300730000000 1.0
C      1  0.5010070000000  0.5425140000000  0.5558520000000 1.0
C      1  0.4822090000000  0.5233980000000  0.4463030000000 1.0
C      1  0.5034270000000  0.5040300000000  0.4508810000000 1.0
C      1  0.4874540000000  0.5517220000000  0.4420810000000 1.0
C      1  0.4699430000000  0.5183910000000  0.5331430000000 1.0
C      1  0.5034250000000  0.5508230000000  0.4621750000000 1.0
C      1  0.5395110000000  0.4458840000000  0.4980360000000 1.0
C      1  0.5089680000000  0.4976040000000  0.5074160000000 1.0
C      1  0.4732300000000  0.4652280000000  0.4656710000000 1.0
C      1  0.5142240000000  0.5378650000000  0.4837390000000 1.0
C      1  0.4823450000000  0.4602780000000  0.4377710000000 1.0
END
