TITL C-2114533-4398-15 -6.85258665993758 125000 -602.959048618983 0 0 87 (C1) n - 1
REM
REM in /nfs/bkarasulu/CARBON/AIRSS/Generating-Clusters/GAP-ML-2020/Only-C1/SD-CG/HFTN-CG
REM
REM
REM
REM
REM
REM ./C.cell (11c1c37f851c82e70ff6c80c92926a4b)
REM
REM compiler GCC version 9.2.1 20190827 (Red Hat 9.2.1-1)
REM options -cpp -mtune=generic -march=x86-64 -g -O0 -fpre-include=/usr/include/finclude/math-vector-fortran.h
REM seed -751200036 -1042572461 787878952 -555792682 -1435555796 936340265 2127804672 -1050402293 -1204371057 -1089034153 1723213429 984759279 999629631 -1618053688 1816698793 1946386747 999178503 -1466911673 -1448756505 1135550521 1061144378 855420692 1661998521 -1057839740 -1535225499 -1749286300 -1777071806 1869114050 -642746902 -101663691 -1807996115 -687466664 749372820
REM
CELL 1.54180   50.00000   50.00000   50.00000   90.00000   90.00000   90.00000
LATT -1
SFAC C  
C      1  0.4313900000000  0.4979010000000  0.4365990000000 1.0
C      1  0.4768310000000  0.4591980000000  0.5456130000000 1.0
C      1  0.4708680000000  0.5007510000000  0.5708420000000 1.0
C      1  0.5535450000000  0.4504300000000  0.4997910000000 1.0
C      1  0.4390040000000  0.5302760000000  0.5468100000000 1.0
C      1  0.5477960000000  0.4747970000000  0.4594600000000 1.0
C      1  0.4496530000000  0.5638200000000  0.4634170000000 1.0
C      1  0.5015610000000  0.4891300000000  0.4531420000000 1.0
C      1  0.4959440000000  0.5279210000000  0.5229560000000 1.0
C      1  0.4997040000000  0.4404150000000  0.4460500000000 1.0
C      1  0.4835600000000  0.5006960000000  0.4325780000000 1.0
C      1  0.5822040000000  0.5059670000000  0.4865300000000 1.0
C      1  0.5031960000000  0.5391500000000  0.4539500000000 1.0
C      1  0.4860070000000  0.5825890000000  0.4848040000000 1.0
C      1  0.5072950000000  0.5260810000000  0.5725590000000 1.0
C      1  0.4865820000000  0.4597490000000  0.4630130000000 1.0
C      1  0.5201440000000  0.4407720000000  0.5327070000000 1.0
C      1  0.4507400000000  0.4924170000000  0.4739050000000 1.0
C      1  0.4585640000000  0.4783380000000  0.5596750000000 1.0
C      1  0.5426740000000  0.4803000000000  0.5673350000000 1.0
C      1  0.4260590000000  0.4606850000000  0.5001890000000 1.0
C      1  0.5416480000000  0.5633680000000  0.5105230000000 1.0
C      1  0.5776860000000  0.4881830000000  0.5361110000000 1.0
C      1  0.5046340000000  0.5594730000000  0.4774550000000 1.0
C      1  0.5653920000000  0.5467830000000  0.5120550000000 1.0
C      1  0.4485160000000  0.5670760000000  0.5161950000000 1.0
C      1  0.5452510000000  0.5385410000000  0.4714110000000 1.0
C      1  0.4265940000000  0.5073070000000  0.5337020000000 1.0
C      1  0.4755900000000  0.4773620000000  0.4187870000000 1.0
C      1  0.4364690000000  0.5167710000000  0.4584770000000 1.0
C      1  0.5419340000000  0.4507280000000  0.4431150000000 1.0
C      1  0.5149450000000  0.4748170000000  0.5711820000000 1.0
C      1  0.5271690000000  0.4318380000000  0.4575620000000 1.0
C      1  0.4198300000000  0.5094760000000  0.5054850000000 1.0
C      1  0.5260780000000  0.5168400000000  0.4850680000000 1.0
C      1  0.4975100000000  0.4557260000000  0.4211590000000 1.0
C      1  0.4637730000000  0.5267040000000  0.5608730000000 1.0
C      1  0.5013410000000  0.5120690000000  0.4711560000000 1.0
C      1  0.4503700000000  0.4767200000000  0.4330240000000 1.0
C      1  0.5739530000000  0.4828400000000  0.4701850000000 1.0
C      1  0.5484810000000  0.4492320000000  0.5294340000000 1.0
C      1  0.4895940000000  0.4737760000000  0.5210450000000 1.0
C      1  0.4586230000000  0.4443680000000  0.5272530000000 1.0
C      1  0.5261710000000  0.5655690000000  0.5353380000000 1.0
C      1  0.5659950000000  0.5389830000000  0.5395800000000 1.0
C      1  0.5344760000000  0.5157260000000  0.4276380000000 1.0
C      1  0.5288860000000  0.4888120000000  0.4388040000000 1.0
C      1  0.5318210000000  0.4702220000000  0.4912050000000 1.0
C      1  0.4340270000000  0.4583500000000  0.5270440000000 1.0
C      1  0.4350060000000  0.4815320000000  0.5439490000000 1.0
C      1  0.5322690000000  0.4072870000000  0.5021770000000 1.0
C      1  0.4877470000000  0.5466920000000  0.5010930000000 1.0
C      1  0.5514730000000  0.5073730000000  0.5697170000000 1.0
C      1  0.4747070000000  0.5070320000000  0.4865770000000 1.0
C      1  0.4784500000000  0.5720090000000  0.5141580000000 1.0
C      1  0.5713780000000  0.5126960000000  0.5499970000000 1.0
C      1  0.5243980000000  0.4111380000000  0.5267220000000 1.0
C      1  0.5322340000000  0.5606950000000  0.4842020000000 1.0
C      1  0.4651910000000  0.5348990000000  0.4870620000000 1.0
C      1  0.4986300000000  0.4989450000000  0.5766500000000 1.0
C      1  0.4800950000000  0.5289270000000  0.4388920000000 1.0
C      1  0.4972690000000  0.5669740000000  0.5384570000000 1.0
C      1  0.5314690000000  0.5360500000000  0.4445440000000 1.0
C      1  0.5344360000000  0.5306750000000  0.5722380000000 1.0
C      1  0.5323900000000  0.4968130000000  0.5030180000000 1.0
C      1  0.4391440000000  0.5533280000000  0.4899840000000 1.0
C      1  0.5077680000000  0.4559780000000  0.5069670000000 1.0
C      1  0.5591910000000  0.4681430000000  0.5464740000000 1.0
C      1  0.5123390000000  0.5046220000000  0.5206820000000 1.0
C      1  0.5428530000000  0.5500580000000  0.5529080000000 1.0
C      1  0.4841040000000  0.5004720000000  0.5131470000000 1.0
C      1  0.5780850000000  0.4647740000000  0.4926300000000 1.0
C      1  0.5707600000000  0.5323210000000  0.4874560000000 1.0
C      1  0.4364600000000  0.5562530000000  0.5375150000000 1.0
C      1  0.4893520000000  0.5398610000000  0.5520570000000 1.0
C      1  0.4265840000000  0.4865530000000  0.4909730000000 1.0
C      1  0.4446770000000  0.4480570000000  0.4820310000000 1.0
C      1  0.4241400000000  0.5289920000000  0.4849960000000 1.0
C      1  0.4570180000000  0.4654660000000  0.4605260000000 1.0
C      1  0.5039350000000  0.4536380000000  0.5555460000000 1.0
C      1  0.5245000000000  0.4636140000000  0.4229040000000 1.0
C      1  0.5395030000000  0.4265960000000  0.4833560000000 1.0
C      1  0.4572040000000  0.5373830000000  0.4537680000000 1.0
C      1  0.4638190000000  0.4382120000000  0.4993180000000 1.0
C      1  0.4887110000000  0.4455980000000  0.4888660000000 1.0
C      1  0.4666290000000  0.5847180000000  0.4665560000000 1.0
C      1  0.5860040000000  0.4865840000000  0.5090990000000 1.0
END
