TITL C-21790-3064-2 -0.0787419617450372 125000 -442.476212113264 0 0 64 (C1) n - 1
REM
REM in /rds/project/t2_vol4/rds-t2-cs072/BORA/CARBON/from-Arr/AIRSS/Generating-Clusters/GAP-ML-2020/Only-C1/SD-CG/HFTN-CG
REM
REM
REM
REM
REM
REM ./C.cell (11c1c37f851c82e70ff6c80c92926a4b)
REM AIRSS Version 0.9.1 bugfix July 2018 build 013d7b7c2542+ Fri, 06 Jul 2018 19:26:36 +0100
REM compiler GCC version 9.3.0
REM options -cpp -mtune=generic -march=x86-64 -g -O0
REM seed 1073793665 1052890091 -527810918 1102307937 -472873755 -386738912 556433228 -955144693 1268492190 768843782 -2047788521 -221734488 -2066691580 1005082135 2124557163 1571636191 -465145972 -187895468 -1499342738 1865053848 -1963161034 2100468938 496865042 1700198669 1350957906 -1403652049 -319767773 1141501396 564146045 -604228175 -1996912823 -445679991 1295725587
REM
CELL 1.54180   50.00000   50.00000   50.00000   90.00000   90.00000   90.00000
LATT -1
SFAC C  
C      1  0.5151170000000  0.5709480000000  0.5164780000000 1.0
C      1  0.5468320000000  0.5131780000000  0.5512200000000 1.0
C      1  0.5635570000000  0.5064790000000  0.5283630000000 1.0
C      1  0.4332730000000  0.5061250000000  0.4861090000000 1.0
C      1  0.4615100000000  0.4375960000000  0.4905180000000 1.0
C      1  0.4905820000000  0.4855200000000  0.4479950000000 1.0
C      1  0.5025700000000  0.4926700000000  0.5610720000000 1.0
C      1  0.5152540000000  0.5485520000000  0.5358630000000 1.0
C      1  0.4473400000000  0.4951490000000  0.5363150000000 1.0
C      1  0.4959440000000  0.5440570000000  0.5581930000000 1.0
C      1  0.5624950000000  0.4691370000000  0.4953370000000 1.0
C      1  0.5191500000000  0.4922440000000  0.4882870000000 1.0
C      1  0.5285480000000  0.4343970000000  0.5104210000000 1.0
C      1  0.4897050000000  0.5591770000000  0.4704130000000 1.0
C      1  0.5259860000000  0.4502470000000  0.4667420000000 1.0
C      1  0.4945800000000  0.5088800000000  0.4287460000000 1.0
C      1  0.4920170000000  0.5188060000000  0.5679900000000 1.0
C      1  0.5056090000000  0.4234260000000  0.4971920000000 1.0
C      1  0.4761850000000  0.4418430000000  0.4647550000000 1.0
C      1  0.5191070000000  0.4787290000000  0.4596150000000 1.0
C      1  0.4943220000000  0.5280130000000  0.4781020000000 1.0
C      1  0.5250560000000  0.4455550000000  0.5368600000000 1.0
C      1  0.4229660000000  0.5282990000000  0.4985310000000 1.0
C      1  0.5281500000000  0.5386970000000  0.4436290000000 1.0
C      1  0.4861910000000  0.4689110000000  0.5606240000000 1.0
C      1  0.5056240000000  0.5251340000000  0.5188460000000 1.0
C      1  0.5231100000000  0.5143690000000  0.4298670000000 1.0
C      1  0.4462370000000  0.4865390000000  0.5061650000000 1.0
C      1  0.5014590000000  0.5512110000000  0.4446340000000 1.0
C      1  0.5499430000000  0.5332440000000  0.4625160000000 1.0
C      1  0.4462250000000  0.4559900000000  0.5077040000000 1.0
C      1  0.5435040000000  0.4477010000000  0.4898220000000 1.0
C      1  0.4535070000000  0.4496800000000  0.5345900000000 1.0
C      1  0.4483420000000  0.5235650000000  0.5411770000000 1.0
C      1  0.4498090000000  0.5122470000000  0.4633840000000 1.0
C      1  0.5312530000000  0.4904610000000  0.5566810000000 1.0
C      1  0.5436910000000  0.5398790000000  0.4904450000000 1.0
C      1  0.4577060000000  0.5457070000000  0.4996350000000 1.0
C      1  0.5576100000000  0.5320660000000  0.5159360000000 1.0
C      1  0.5309850000000  0.5658630000000  0.4943790000000 1.0
C      1  0.4746500000000  0.4955460000000  0.4978430000000 1.0
C      1  0.4980540000000  0.4458830000000  0.5479950000000 1.0
C      1  0.5050480000000  0.4988210000000  0.5299290000000 1.0
C      1  0.4811590000000  0.5337430000000  0.4335920000000 1.0
C      1  0.4793170000000  0.5254240000000  0.5044210000000 1.0
C      1  0.4700620000000  0.5327010000000  0.5569200000000 1.0
C      1  0.4767850000000  0.4324630000000  0.5347270000000 1.0
C      1  0.4771060000000  0.5035180000000  0.4691850000000 1.0
C      1  0.4747570000000  0.4617180000000  0.4466480000000 1.0
C      1  0.4991540000000  0.4827300000000  0.5066940000000 1.0
C      1  0.5608750000000  0.4783810000000  0.5231560000000 1.0
C      1  0.5042420000000  0.5731530000000  0.4906470000000 1.0
C      1  0.5696400000000  0.4883430000000  0.4767350000000 1.0
C      1  0.5417750000000  0.4679350000000  0.5420110000000 1.0
C      1  0.5380180000000  0.4940770000000  0.4435130000000 1.0
C      1  0.4800660000000  0.4235210000000  0.5082160000000 1.0
C      1  0.5188260000000  0.5211520000000  0.4920480000000 1.0
C      1  0.4562510000000  0.5357890000000  0.4500400000000 1.0
C      1  0.5594130000000  0.5058290000000  0.4588750000000 1.0
C      1  0.4586860000000  0.4727380000000  0.5505240000000 1.0
C      1  0.5427820000000  0.5392040000000  0.5401940000000 1.0
C      1  0.4381590000000  0.5394710000000  0.5187640000000 1.0
C      1  0.5037120000000  0.4331440000000  0.4703770000000 1.0
C      1  0.4604150000000  0.5544220000000  0.4717970000000 1.0
END
