TITL C-2114531-1652-37 9.12025490818556 125000 -620.28683923574 0 0 90 (C1) n - 1
REM
REM in /nfs/bkarasulu/CARBON/AIRSS/Generating-Clusters/GAP-ML-2020/Only-C1/SD-CG/HFTN-CG
REM
REM
REM
REM
REM
REM ./C.cell (11c1c37f851c82e70ff6c80c92926a4b)
REM
REM compiler GCC version 9.2.1 20190827 (Red Hat 9.2.1-1)
REM options -cpp -mtune=generic -march=x86-64 -g -O0 -fpre-include=/usr/include/finclude/math-vector-fortran.h
REM seed -1617607163 1358952320 -873763636 585955698 1809963544 -1637559974 1040495799 981192968 -43724982 -1679486520 -917049765 -1201760935 -960570269 847023124 -2033133289 -2082976649 -988970336 54479257 -844368137 1779111898 -696196285 -1146151134 -1132303150 1852407617 -580883694 -319978256 1502089992 -1049887551 2134095053 -861868231 -83443942 -2136554175 -1854087613
REM
CELL 1.54180   50.00000   50.00000   50.00000   90.00000   90.00000   90.00000
LATT -1
SFAC C  
C      1  0.4333060000000  0.4865030000000  0.4624350000000 1.0
C      1  0.5658640000000  0.4654060000000  0.4854220000000 1.0
C      1  0.5187410000000  0.4573220000000  0.4339280000000 1.0
C      1  0.4785700000000  0.4250510000000  0.4605670000000 1.0
C      1  0.5382920000000  0.4278220000000  0.5022860000000 1.0
C      1  0.4966110000000  0.5288760000000  0.5780850000000 1.0
C      1  0.5148910000000  0.5047030000000  0.4310660000000 1.0
C      1  0.5399150000000  0.4355870000000  0.5293180000000 1.0
C      1  0.5515140000000  0.5187070000000  0.4843650000000 1.0
C      1  0.4740620000000  0.4835920000000  0.5399320000000 1.0
C      1  0.4955490000000  0.4933980000000  0.4990590000000 1.0
C      1  0.4900110000000  0.4605990000000  0.4327780000000 1.0
C      1  0.5136470000000  0.5590770000000  0.4457340000000 1.0
C      1  0.4683040000000  0.5497260000000  0.4573310000000 1.0
C      1  0.4628260000000  0.4283730000000  0.5360750000000 1.0
C      1  0.5491070000000  0.4421130000000  0.4806330000000 1.0
C      1  0.4390420000000  0.5182520000000  0.5444400000000 1.0
C      1  0.4186440000000  0.5270740000000  0.4904170000000 1.0
C      1  0.4615210000000  0.4914350000000  0.4706500000000 1.0
C      1  0.5312470000000  0.4818170000000  0.4265680000000 1.0
C      1  0.4842660000000  0.5085690000000  0.5216590000000 1.0
C      1  0.4625790000000  0.5245750000000  0.5072080000000 1.0
C      1  0.4333940000000  0.4552100000000  0.4697450000000 1.0
C      1  0.5002690000000  0.4488180000000  0.5142860000000 1.0
C      1  0.5212280000000  0.5290970000000  0.4941960000000 1.0
C      1  0.5230020000000  0.5604910000000  0.4934220000000 1.0
C      1  0.5527250000000  0.4884770000000  0.4705720000000 1.0
C      1  0.4999050000000  0.5151520000000  0.4785240000000 1.0
C      1  0.5100330000000  0.4255330000000  0.4979290000000 1.0
C      1  0.5382760000000  0.5502800000000  0.5643420000000 1.0
C      1  0.4681230000000  0.5039360000000  0.4284350000000 1.0
C      1  0.4163510000000  0.4988350000000  0.4827640000000 1.0
C      1  0.4590190000000  0.5548470000000  0.5203700000000 1.0
C      1  0.5675180000000  0.5158470000000  0.5652580000000 1.0
C      1  0.4949650000000  0.5715930000000  0.4959750000000 1.0
C      1  0.4969230000000  0.5657590000000  0.5457760000000 1.0
C      1  0.5111440000000  0.5215250000000  0.5227480000000 1.0
C      1  0.5695630000000  0.5218300000000  0.5085840000000 1.0
C      1  0.4289920000000  0.5505040000000  0.4792440000000 1.0
C      1  0.4902310000000  0.5027840000000  0.5789630000000 1.0
C      1  0.4310380000000  0.4449640000000  0.4944290000000 1.0
C      1  0.4304870000000  0.4724310000000  0.5295440000000 1.0
C      1  0.5792970000000  0.4977850000000  0.5214930000000 1.0
C      1  0.5162570000000  0.4733950000000  0.5041180000000 1.0
C      1  0.5256840000000  0.5300850000000  0.5800140000000 1.0
C      1  0.5774910000000  0.4950960000000  0.5499370000000 1.0
C      1  0.5625410000000  0.5404910000000  0.5530870000000 1.0
C      1  0.4723480000000  0.4618390000000  0.5168160000000 1.0
C      1  0.5714500000000  0.5094910000000  0.4299210000000 1.0
C      1  0.4478860000000  0.5653260000000  0.4948820000000 1.0
C      1  0.5569680000000  0.4583860000000  0.5328910000000 1.0
C      1  0.5293350000000  0.4803030000000  0.5297120000000 1.0
C      1  0.4267390000000  0.5291660000000  0.4356760000000 1.0
C      1  0.4910560000000  0.5461370000000  0.4377640000000 1.0
C      1  0.4809320000000  0.4850450000000  0.4472860000000 1.0
C      1  0.5251980000000  0.4474950000000  0.4614460000000 1.0
C      1  0.5638490000000  0.4711810000000  0.5579120000000 1.0
C      1  0.4920490000000  0.4806770000000  0.5640140000000 1.0
C      1  0.4727870000000  0.4776750000000  0.4925980000000 1.0
C      1  0.5329110000000  0.5593790000000  0.4647770000000 1.0
C      1  0.5433560000000  0.5062950000000  0.5800190000000 1.0
C      1  0.4531030000000  0.4377250000000  0.4588160000000 1.0
C      1  0.4837690000000  0.5695030000000  0.5216000000000 1.0
C      1  0.4909670000000  0.5206440000000  0.4239230000000 1.0
C      1  0.5618050000000  0.5444780000000  0.5247310000000 1.0
C      1  0.5391590000000  0.5623030000000  0.5190630000000 1.0
C      1  0.4393130000000  0.5053340000000  0.4361130000000 1.0
C      1  0.4702140000000  0.5218250000000  0.4775410000000 1.0
C      1  0.4448790000000  0.4470610000000  0.5201900000000 1.0
C      1  0.4809160000000  0.5474170000000  0.5617210000000 1.0
C      1  0.5163920000000  0.4660350000000  0.5587050000000 1.0
C      1  0.5253030000000  0.5655810000000  0.5443900000000 1.0
C      1  0.4865990000000  0.4246680000000  0.5459920000000 1.0
C      1  0.5304600000000  0.5072800000000  0.5355310000000 1.0
C      1  0.4560450000000  0.5418060000000  0.5478250000000 1.0
C      1  0.4387070000000  0.5479080000000  0.4522940000000 1.0
C      1  0.5123740000000  0.4406070000000  0.5426180000000 1.0
C      1  0.5070510000000  0.4963030000000  0.4578960000000 1.0
C      1  0.5556040000000  0.4893980000000  0.4401570000000 1.0
C      1  0.5734260000000  0.4712740000000  0.5113990000000 1.0
C      1  0.4453850000000  0.4900960000000  0.5468720000000 1.0
C      1  0.5408170000000  0.4776460000000  0.5735070000000 1.0
C      1  0.4212900000000  0.4900460000000  0.5100900000000 1.0
C      1  0.5674610000000  0.5329250000000  0.4394700000000 1.0
C      1  0.4721200000000  0.4391380000000  0.4375040000000 1.0
C      1  0.4717180000000  0.5689110000000  0.4793160000000 1.0
C      1  0.5251140000000  0.4764440000000  0.4734750000000 1.0
C      1  0.5543610000000  0.5402090000000  0.4626880000000 1.0
C      1  0.5046080000000  0.4280880000000  0.4711730000000 1.0
C      1  0.4312100000000  0.5176100000000  0.5159740000000 1.0
END
