TITL C-2109098-3686-11 0.22179773153154 125000 -520.377995636891 0 0 76 (C1) n - 1
REM
REM in /nfs/bkarasulu/CARBON/AIRSS/Generating-Clusters/GAP-ML-2020/Only-C1/SD-CG/HFTN-CG
REM
REM
REM
REM
REM
REM ./C.cell (11c1c37f851c82e70ff6c80c92926a4b)
REM
REM compiler GCC version 9.2.1 20190827 (Red Hat 9.2.1-1)
REM options -cpp -mtune=generic -march=x86-64 -g -O0 -fpre-include=/usr/include/finclude/math-vector-fortran.h
REM seed -1214083391 1306870251 737005365 950770110 -1788573329 -602861548 148373980 -1358677212 -519940299 -642746074 1919680729 806820413 -904288131 1202277917 -1983474569 945408621 1231401606 1300511014 -1429213980 1191774942 -748723627 570407968 -299573358 1615924873 -1879977467 -36596848 -1482952386 -361285643 -1686821707 183721728 -1758360532 -1414395071 -746142246
REM
CELL 1.54180   50.00000   50.00000   50.00000   90.00000   90.00000   90.00000
LATT -1
SFAC C  
C      1  0.4861950000000  0.5065240000000  0.4924580000000 1.0
C      1  0.4237940000000  0.4793210000000  0.5104430000000 1.0
C      1  0.4411190000000  0.5051780000000  0.5087150000000 1.0
C      1  0.5139540000000  0.5126380000000  0.5821560000000 1.0
C      1  0.5097550000000  0.4540650000000  0.4591890000000 1.0
C      1  0.5005390000000  0.5478100000000  0.4534780000000 1.0
C      1  0.5335910000000  0.4719540000000  0.5442160000000 1.0
C      1  0.5208940000000  0.5310920000000  0.5014890000000 1.0
C      1  0.4377350000000  0.5294550000000  0.4904480000000 1.0
C      1  0.4983570000000  0.4215650000000  0.4972850000000 1.0
C      1  0.4806890000000  0.4468580000000  0.4620840000000 1.0
C      1  0.4916700000000  0.4970370000000  0.5376090000000 1.0
C      1  0.4614530000000  0.4886460000000  0.4921590000000 1.0
C      1  0.4637740000000  0.4783700000000  0.5709630000000 1.0
C      1  0.4435920000000  0.4792710000000  0.4672530000000 1.0
C      1  0.4534770000000  0.5039670000000  0.4270970000000 1.0
C      1  0.5012450000000  0.5468970000000  0.5659420000000 1.0
C      1  0.4942490000000  0.4856250000000  0.4167590000000 1.0
C      1  0.4894360000000  0.5237980000000  0.5735560000000 1.0
C      1  0.5255520000000  0.4099050000000  0.4544350000000 1.0
C      1  0.4710420000000  0.5047090000000  0.5580050000000 1.0
C      1  0.4764690000000  0.4393680000000  0.4900930000000 1.0
C      1  0.5329900000000  0.4386180000000  0.4526620000000 1.0
C      1  0.4941430000000  0.5314070000000  0.4292030000000 1.0
C      1  0.5347320000000  0.4788990000000  0.5722820000000 1.0
C      1  0.5594870000000  0.5067990000000  0.5211750000000 1.0
C      1  0.4677300000000  0.4624590000000  0.5078870000000 1.0
C      1  0.5102630000000  0.4098030000000  0.4748330000000 1.0
C      1  0.4708600000000  0.5673330000000  0.4875650000000 1.0
C      1  0.5139410000000  0.4534660000000  0.5323820000000 1.0
C      1  0.4957620000000  0.5681220000000  0.5009980000000 1.0
C      1  0.5148210000000  0.5523090000000  0.5434880000000 1.0
C      1  0.5677910000000  0.4996490000000  0.4744570000000 1.0
C      1  0.5497260000000  0.5427630000000  0.4640430000000 1.0
C      1  0.4994160000000  0.5449100000000  0.5193660000000 1.0
C      1  0.4693270000000  0.4796000000000  0.4261690000000 1.0
C      1  0.5540550000000  0.5248690000000  0.5446960000000 1.0
C      1  0.5204400000000  0.5000230000000  0.5400170000000 1.0
C      1  0.5180680000000  0.4781510000000  0.4716240000000 1.0
C      1  0.4464350000000  0.4645230000000  0.5537420000000 1.0
C      1  0.4621180000000  0.4630590000000  0.4490050000000 1.0
C      1  0.4469570000000  0.5553330000000  0.4999400000000 1.0
C      1  0.5627370000000  0.4767130000000  0.5295120000000 1.0
C      1  0.4380830000000  0.5030020000000  0.4505190000000 1.0
C      1  0.5556680000000  0.4535600000000  0.4571400000000 1.0
C      1  0.5664780000000  0.4703630000000  0.4762780000000 1.0
C      1  0.5493550000000  0.5147920000000  0.4576320000000 1.0
C      1  0.5857520000000  0.4727650000000  0.5470850000000 1.0
C      1  0.4820320000000  0.5199630000000  0.5194850000000 1.0
C      1  0.4353770000000  0.5595370000000  0.5248070000000 1.0
C      1  0.5419900000000  0.5490710000000  0.5353880000000 1.0
C      1  0.5424720000000  0.5544470000000  0.5062270000000 1.0
C      1  0.4427540000000  0.4627180000000  0.5271670000000 1.0
C      1  0.4745670000000  0.5603020000000  0.4606570000000 1.0
C      1  0.5218460000000  0.5041890000000  0.4561040000000 1.0
C      1  0.4211180000000  0.4707060000000  0.4845270000000 1.0
C      1  0.4937290000000  0.4713270000000  0.5208840000000 1.0
C      1  0.4543000000000  0.5457460000000  0.4476170000000 1.0
C      1  0.5259390000000  0.5596990000000  0.4631460000000 1.0
C      1  0.4855100000000  0.4720720000000  0.5879440000000 1.0
C      1  0.5602270000000  0.4590700000000  0.5032130000000 1.0
C      1  0.4369790000000  0.5411020000000  0.5423600000000 1.0
C      1  0.5050780000000  0.5234860000000  0.4751470000000 1.0
C      1  0.5377320000000  0.5090360000000  0.5642990000000 1.0
C      1  0.4539150000000  0.5177220000000  0.5346230000000 1.0
C      1  0.4374510000000  0.5285200000000  0.4627290000000 1.0
C      1  0.5093310000000  0.4837910000000  0.5841270000000 1.0
C      1  0.5077730000000  0.5061240000000  0.4289990000000 1.0
C      1  0.5092280000000  0.4865210000000  0.4982440000000 1.0
C      1  0.5288470000000  0.5054210000000  0.5125900000000 1.0
C      1  0.5220270000000  0.5708090000000  0.4896210000000 1.0
C      1  0.5436820000000  0.4379160000000  0.5036990000000 1.0
C      1  0.5718580000000  0.5172550000000  0.4967310000000 1.0
C      1  0.5631440000000  0.5437680000000  0.4892690000000 1.0
C      1  0.4662180000000  0.5297710000000  0.4265550000000 1.0
C      1  0.5191630000000  0.4325680000000  0.5143080000000 1.0
END
