TITL C-21931-1633-6 -0.0327049723739893 125000 -757.644456578167 0 0 107 (C1) n - 1
REM
REM in /rds/project/t2_vol4/rds-t2-cs072/BORA/CARBON/from-Arr/AIRSS/Generating-Clusters/GAP-ML-2020/Only-C1/SD-CG/HFTN-CG
REM
REM
REM
REM
REM
REM ./C.cell (11c1c37f851c82e70ff6c80c92926a4b)
REM AIRSS Version 0.9.1 bugfix July 2018 build 013d7b7c2542+ Fri, 06 Jul 2018 19:26:36 +0100
REM compiler GCC version 9.3.0
REM options -cpp -mtune=generic -march=x86-64 -g -O0
REM seed -1821740198 -1482458752 -1473568427 742045545 -610093837 45608873 -1289973236 1766899414 563587469 -1496764206 -786246906 -1110909366 -893242442 -1464451845 607087849 -710372780 1368499096 -2115298540 -1139851811 -1082618291 -318809848 -790500609 1297200049 -934954981 -773247602 1130231565 -523064664 -354060903 2044986434 -2080396150 -190784752 744117308 739211722
REM
CELL 1.54180   50.00000   50.00000   50.00000   90.00000   90.00000   90.00000
LATT -1
SFAC C  
C      1  0.5508090000000  0.5696160000000  0.5213810000000 1.0
C      1  0.4694270000000  0.4288250000000  0.4563440000000 1.0
C      1  0.4815740000000  0.5303450000000  0.4678120000000 1.0
C      1  0.4768190000000  0.4888530000000  0.4931860000000 1.0
C      1  0.5814210000000  0.4710700000000  0.5363570000000 1.0
C      1  0.5776710000000  0.5222050000000  0.5440350000000 1.0
C      1  0.4998850000000  0.4762000000000  0.5896820000000 1.0
C      1  0.4605810000000  0.4554650000000  0.5707400000000 1.0
C      1  0.5287180000000  0.4750980000000  0.5020630000000 1.0
C      1  0.4647500000000  0.4682280000000  0.4273940000000 1.0
C      1  0.4496450000000  0.4948650000000  0.4307250000000 1.0
C      1  0.5693290000000  0.5475160000000  0.4825690000000 1.0
C      1  0.5316110000000  0.4434710000000  0.5785260000000 1.0
C      1  0.5810860000000  0.5305010000000  0.5177820000000 1.0
C      1  0.4983860000000  0.4935890000000  0.5326900000000 1.0
C      1  0.5021120000000  0.5379500000000  0.5604240000000 1.0
C      1  0.4932890000000  0.4654840000000  0.4216700000000 1.0
C      1  0.4745840000000  0.4220950000000  0.5082230000000 1.0
C      1  0.4636090000000  0.5420850000000  0.4460910000000 1.0
C      1  0.4539140000000  0.5583450000000  0.5406820000000 1.0
C      1  0.4363960000000  0.5601470000000  0.5177870000000 1.0
C      1  0.4633370000000  0.5066900000000  0.5724200000000 1.0
C      1  0.5164980000000  0.5344160000000  0.4986990000000 1.0
C      1  0.4214100000000  0.5364340000000  0.5146110000000 1.0
C      1  0.5576610000000  0.4674460000000  0.4422810000000 1.0
C      1  0.5527040000000  0.5605440000000  0.4646330000000 1.0
C      1  0.4720960000000  0.5135050000000  0.4347980000000 1.0
C      1  0.5020950000000  0.5812240000000  0.5438220000000 1.0
C      1  0.5777540000000  0.4654030000000  0.4848380000000 1.0
C      1  0.4190070000000  0.4946820000000  0.5256630000000 1.0
C      1  0.5170710000000  0.5612170000000  0.5550810000000 1.0
C      1  0.5652390000000  0.4681990000000  0.5601840000000 1.0
C      1  0.5068520000000  0.4350210000000  0.5680210000000 1.0
C      1  0.5081080000000  0.5912950000000  0.5172600000000 1.0
C      1  0.5313330000000  0.5827440000000  0.5034030000000 1.0
C      1  0.5496560000000  0.5141350000000  0.4418290000000 1.0
C      1  0.4418250000000  0.5184750000000  0.4093860000000 1.0
C      1  0.4507980000000  0.4245660000000  0.5234950000000 1.0
C      1  0.4756450000000  0.4155870000000  0.4807660000000 1.0
C      1  0.4156900000000  0.4856770000000  0.4981630000000 1.0
C      1  0.4868490000000  0.4528040000000  0.5795600000000 1.0
C      1  0.4307700000000  0.5184320000000  0.5335300000000 1.0
C      1  0.5402220000000  0.5146270000000  0.5743370000000 1.0
C      1  0.4568350000000  0.5265430000000  0.5479660000000 1.0
C      1  0.4736520000000  0.5778690000000  0.5379240000000 1.0
C      1  0.5119710000000  0.5197120000000  0.5786820000000 1.0
C      1  0.5300640000000  0.4158520000000  0.5292440000000 1.0
C      1  0.4332400000000  0.4797600000000  0.5440880000000 1.0
C      1  0.4270420000000  0.5531510000000  0.4727220000000 1.0
C      1  0.5150040000000  0.4460480000000  0.4296110000000 1.0
C      1  0.5183140000000  0.4733990000000  0.4773040000000 1.0
C      1  0.4489350000000  0.4827820000000  0.5680220000000 1.0
C      1  0.4413380000000  0.5702650000000  0.4911120000000 1.0
C      1  0.4866360000000  0.5228410000000  0.5371000000000 1.0
C      1  0.5194990000000  0.4486890000000  0.5040970000000 1.0
C      1  0.5073280000000  0.5789220000000  0.4572080000000 1.0
C      1  0.4319720000000  0.4625590000000  0.4610270000000 1.0
C      1  0.5778320000000  0.4934720000000  0.4763220000000 1.0
C      1  0.4945330000000  0.4445820000000  0.5179250000000 1.0
C      1  0.5253490000000  0.4956920000000  0.5200740000000 1.0
C      1  0.5433920000000  0.4294270000000  0.4696370000000 1.0
C      1  0.5726140000000  0.5567850000000  0.5093920000000 1.0
C      1  0.5438010000000  0.5575240000000  0.5473010000000 1.0
C      1  0.4909960000000  0.5326810000000  0.5090240000000 1.0
C      1  0.4532480000000  0.4498450000000  0.4461590000000 1.0
C      1  0.5229330000000  0.5422170000000  0.4281790000000 1.0
C      1  0.5205720000000  0.5111070000000  0.4333880000000 1.0
C      1  0.5545020000000  0.4238810000000  0.5405130000000 1.0
C      1  0.5278460000000  0.4704860000000  0.5875500000000 1.0
C      1  0.4950710000000  0.4190440000000  0.4608730000000 1.0
C      1  0.5478950000000  0.4868610000000  0.5763580000000 1.0
C      1  0.5626320000000  0.4498660000000  0.4645610000000 1.0
C      1  0.5392860000000  0.4270430000000  0.4999530000000 1.0
C      1  0.5801480000000  0.4551140000000  0.5117440000000 1.0
C      1  0.4366230000000  0.4452420000000  0.5087810000000 1.0
C      1  0.5359490000000  0.5177220000000  0.5051320000000 1.0
C      1  0.4954570000000  0.4855590000000  0.4716170000000 1.0
C      1  0.4965640000000  0.5092840000000  0.4535210000000 1.0
C      1  0.5663950000000  0.4935140000000  0.4501070000000 1.0
C      1  0.5154120000000  0.4854550000000  0.4181080000000 1.0
C      1  0.4806900000000  0.4734730000000  0.5189610000000 1.0
C      1  0.4242600000000  0.5357160000000  0.4221810000000 1.0
C      1  0.5202400000000  0.4282230000000  0.4517550000000 1.0
C      1  0.4173870000000  0.5039110000000  0.4768610000000 1.0
C      1  0.5038530000000  0.5616000000000  0.4319890000000 1.0
C      1  0.4843040000000  0.5862980000000  0.4683070000000 1.0
C      1  0.4712270000000  0.5293140000000  0.4092560000000 1.0
C      1  0.5850190000000  0.4963670000000  0.5430020000000 1.0
C      1  0.4233990000000  0.4593900000000  0.4889120000000 1.0
C      1  0.4661360000000  0.5853050000000  0.4882270000000 1.0
C      1  0.5314670000000  0.5777530000000  0.4741750000000 1.0
C      1  0.4900120000000  0.5022990000000  0.5845150000000 1.0
C      1  0.4733510000000  0.5180920000000  0.4923730000000 1.0
C      1  0.5355870000000  0.4653370000000  0.4249220000000 1.0
C      1  0.5552150000000  0.5334520000000  0.5582250000000 1.0
C      1  0.5475160000000  0.5426300000000  0.4428750000000 1.0
C      1  0.4793900000000  0.5905000000000  0.5124270000000 1.0
C      1  0.4544510000000  0.4409650000000  0.5473810000000 1.0
C      1  0.4516780000000  0.4641720000000  0.5282220000000 1.0
C      1  0.4784280000000  0.5536500000000  0.4228370000000 1.0
C      1  0.5694120000000  0.5178910000000  0.4926050000000 1.0
C      1  0.5652750000000  0.4317590000000  0.5150070000000 1.0
C      1  0.5067680000000  0.4269310000000  0.5405490000000 1.0
C      1  0.5554180000000  0.4412010000000  0.5632560000000 1.0
C      1  0.4163540000000  0.5310310000000  0.4868010000000 1.0
C      1  0.4347070000000  0.5471990000000  0.4454770000000 1.0
C      1  0.4293430000000  0.4896760000000  0.4536320000000 1.0
END
