TITL C-21894-2396-4 11.7639822838709 125000 -404.763439251747 0 0 58 (C1) n - 1
REM
REM in /rds/project/t2_vol4/rds-t2-cs072/BORA/CARBON/from-Arr/AIRSS/Generating-Clusters/GAP-ML-2020/Only-C1/SD-CG/HFTN-CG
REM
REM
REM
REM
REM
REM ./C.cell (11c1c37f851c82e70ff6c80c92926a4b)
REM AIRSS Version 0.9.1 bugfix July 2018 build 013d7b7c2542+ Fri, 06 Jul 2018 19:26:36 +0100
REM compiler GCC version 9.3.0
REM options -cpp -mtune=generic -march=x86-64 -g -O0
REM seed -1988318853 -1368988928 -1496388438 -1074193271 -1186017651 389888912 494510835 -970938089 1031528995 1928423375 1834730490 -1960939620 1983677110 928493751 -369876113 108584033 -1301854864 1683661445 2094979352 1337006376 905556403 -386362290 1086855576 -2027059915 1685024045 -2126982110 1242000506 -106728023 -1844210846 -9395404 -211289068 -2110379178 407843826
REM
CELL 1.54180   50.00000   50.00000   50.00000   90.00000   90.00000   90.00000
LATT -1
SFAC C  
C      1  0.4608200000000  0.5491240000000  0.5492930000000 1.0
C      1  0.5122840000000  0.4966450000000  0.4340860000000 1.0
C      1  0.4998500000000  0.4779340000000  0.4977600000000 1.0
C      1  0.5009570000000  0.4700080000000  0.4369050000000 1.0
C      1  0.5124430000000  0.5179590000000  0.4924710000000 1.0
C      1  0.5496620000000  0.5195510000000  0.4595190000000 1.0
C      1  0.4704300000000  0.4463800000000  0.4691080000000 1.0
C      1  0.5338760000000  0.5429860000000  0.4578050000000 1.0
C      1  0.4825230000000  0.5084950000000  0.5315020000000 1.0
C      1  0.5277590000000  0.4404000000000  0.5135600000000 1.0
C      1  0.4557850000000  0.5323780000000  0.4997830000000 1.0
C      1  0.5376490000000  0.4367350000000  0.4869160000000 1.0
C      1  0.5444580000000  0.4690200000000  0.4538530000000 1.0
C      1  0.5378290000000  0.5588470000000  0.4819670000000 1.0
C      1  0.5522710000000  0.5428080000000  0.5006980000000 1.0
C      1  0.5125770000000  0.4842740000000  0.5593620000000 1.0
C      1  0.4419650000000  0.4500290000000  0.5098400000000 1.0
C      1  0.4990810000000  0.4355930000000  0.5122860000000 1.0
C      1  0.4470000000000  0.5252650000000  0.5586350000000 1.0
C      1  0.5211400000000  0.4530690000000  0.4472850000000 1.0
C      1  0.4990080000000  0.4617930000000  0.5530890000000 1.0
C      1  0.5616140000000  0.5200120000000  0.4865140000000 1.0
C      1  0.4587650000000  0.4888860000000  0.4534200000000 1.0
C      1  0.4400490000000  0.4815760000000  0.4740300000000 1.0
C      1  0.5076410000000  0.5382300000000  0.5605330000000 1.0
C      1  0.5030770000000  0.5009560000000  0.5135840000000 1.0
C      1  0.4588250000000  0.4893550000000  0.5344800000000 1.0
C      1  0.4377760000000  0.5073320000000  0.5389040000000 1.0
C      1  0.5065670000000  0.5417560000000  0.4507070000000 1.0
C      1  0.4753360000000  0.4660080000000  0.4479590000000 1.0
C      1  0.5029120000000  0.5662830000000  0.4926430000000 1.0
C      1  0.5638050000000  0.4997670000000  0.5070840000000 1.0
C      1  0.4918610000000  0.4332290000000  0.4829950000000 1.0
C      1  0.5380420000000  0.4847450000000  0.5442100000000 1.0
C      1  0.4589350000000  0.4613460000000  0.5279510000000 1.0
C      1  0.4960880000000  0.5100260000000  0.5589220000000 1.0
C      1  0.5429070000000  0.4626470000000  0.5254840000000 1.0
C      1  0.4718500000000  0.5205850000000  0.5743950000000 1.0
C      1  0.5192780000000  0.5479930000000  0.5367400000000 1.0
C      1  0.4367360000000  0.5129350000000  0.5092990000000 1.0
C      1  0.5509310000000  0.5082560000000  0.5317150000000 1.0
C      1  0.4979980000000  0.5559310000000  0.5186930000000 1.0
C      1  0.4820640000000  0.5474380000000  0.5695350000000 1.0
C      1  0.4475730000000  0.4552290000000  0.4837270000000 1.0
C      1  0.4666040000000  0.5350770000000  0.4737860000000 1.0
C      1  0.4889210000000  0.5524440000000  0.4708080000000 1.0
C      1  0.5251730000000  0.5822820000000  0.4867440000000 1.0
C      1  0.5399950000000  0.4963130000000  0.4452190000000 1.0
C      1  0.4735370000000  0.5395180000000  0.5231410000000 1.0
C      1  0.5546990000000  0.4580130000000  0.4790360000000 1.0
C      1  0.4248640000000  0.4976850000000  0.4900520000000 1.0
C      1  0.4951240000000  0.5187150000000  0.4392710000000 1.0
C      1  0.5601380000000  0.4719020000000  0.5040540000000 1.0
C      1  0.4847200000000  0.4489130000000  0.5337230000000 1.0
C      1  0.5072640000000  0.4941710000000  0.4774400000000 1.0
C      1  0.5433080000000  0.5361940000000  0.5270360000000 1.0
C      1  0.5161780000000  0.4340160000000  0.4681990000000 1.0
C      1  0.4694770000000  0.5149410000000  0.4522400000000 1.0
END
