TITL C-216141-3251-2 0.178250165857077 125000 -928.639639880328 0 0 133 (C1) n - 1
REM
REM in /rds/project/t2_vol4/rds-t2-cs072/BORA/CARBON/from-Arr/AIRSS/Generating-Clusters/GAP-ML-2020/Only-C1/SD-CG/HFTN-CG
REM
REM
REM
REM
REM
REM ./C.cell (11c1c37f851c82e70ff6c80c92926a4b)
REM AIRSS Version 0.9.1 bugfix July 2018 build 013d7b7c2542+ Fri, 06 Jul 2018 19:26:36 +0100
REM compiler GCC version 9.3.0
REM options -cpp -mtune=generic -march=x86-64 -g -O0
REM seed 96505462 -924242623 -63668814 -1772531555 -1162290645 173901779 -463126649 -1820179373 -331258599 -661189650 934371442 -713955928 -1021088147 269845488 -331283298 2098754024 2055710619 -610937352 987657069 -2123097019 -1671982232 1323532907 -719262295 374791302 1906473536 1666971320 -2060613367 176416519 -742625843 -572855836 -945312553 1399967139 -538275785
REM
CELL 1.54180   50.00000   50.00000   50.00000   90.00000   90.00000   90.00000
LATT -1
SFAC C  
C      1  0.4771040000000  0.5549310000000  0.5478680000000 1.0
C      1  0.4355190000000  0.5681870000000  0.5238040000000 1.0
C      1  0.4056890000000  0.5304440000000  0.5360770000000 1.0
C      1  0.5236250000000  0.5228610000000  0.4974160000000 1.0
C      1  0.5262680000000  0.5361420000000  0.4300230000000 1.0
C      1  0.5959050000000  0.5348470000000  0.5352770000000 1.0
C      1  0.5577660000000  0.5675630000000  0.5338520000000 1.0
C      1  0.4718830000000  0.4796200000000  0.5370860000000 1.0
C      1  0.5679750000000  0.4883700000000  0.4455580000000 1.0
C      1  0.3849110000000  0.4829950000000  0.5070470000000 1.0
C      1  0.5980110000000  0.4756280000000  0.4870930000000 1.0
C      1  0.4342340000000  0.4494940000000  0.5372370000000 1.0
C      1  0.5731430000000  0.5381920000000  0.4936690000000 1.0
C      1  0.5352100000000  0.4463770000000  0.4286340000000 1.0
C      1  0.5961370000000  0.4725950000000  0.5304260000000 1.0
C      1  0.5118890000000  0.4218300000000  0.5177400000000 1.0
C      1  0.5752610000000  0.5388050000000  0.4373180000000 1.0
C      1  0.4873310000000  0.4129560000000  0.5006050000000 1.0
C      1  0.4115700000000  0.5516980000000  0.5170460000000 1.0
C      1  0.5642700000000  0.5613580000000  0.4775980000000 1.0
C      1  0.5795750000000  0.4695280000000  0.4660880000000 1.0
C      1  0.5999440000000  0.5246240000000  0.5094990000000 1.0
C      1  0.4818920000000  0.4516680000000  0.5379860000000 1.0
C      1  0.4283860000000  0.4441450000000  0.4626530000000 1.0
C      1  0.5436080000000  0.4981410000000  0.4632460000000 1.0
C      1  0.5393070000000  0.4320540000000  0.5611910000000 1.0
C      1  0.5291660000000  0.5630250000000  0.4435000000000 1.0
C      1  0.5288770000000  0.4236150000000  0.4486110000000 1.0
C      1  0.5589110000000  0.4258080000000  0.5177240000000 1.0
C      1  0.5135110000000  0.4652180000000  0.4392100000000 1.0
C      1  0.5587980000000  0.5173550000000  0.5342300000000 1.0
C      1  0.5291910000000  0.4686560000000  0.4679080000000 1.0
C      1  0.4813540000000  0.5053910000000  0.5990200000000 1.0
C      1  0.4067250000000  0.5203480000000  0.4775500000000 1.0
C      1  0.4472500000000  0.5304110000000  0.4188540000000 1.0
C      1  0.5290340000000  0.4936260000000  0.5987060000000 1.0
C      1  0.4625940000000  0.4570430000000  0.4254900000000 1.0
C      1  0.5562970000000  0.4517700000000  0.4755690000000 1.0
C      1  0.4347220000000  0.4905020000000  0.4436490000000 1.0
C      1  0.4119580000000  0.4461730000000  0.5230260000000 1.0
C      1  0.4371450000000  0.4609370000000  0.4397910000000 1.0
C      1  0.5200890000000  0.4665250000000  0.5935850000000 1.0
C      1  0.5517010000000  0.5138490000000  0.4891950000000 1.0
C      1  0.5550830000000  0.4979960000000  0.5864470000000 1.0
C      1  0.4290360000000  0.4927600000000  0.5218710000000 1.0
C      1  0.4705500000000  0.4876610000000  0.5086180000000 1.0
C      1  0.3980200000000  0.4569220000000  0.5017160000000 1.0
C      1  0.4521710000000  0.4465730000000  0.4830240000000 1.0
C      1  0.5617210000000  0.4347370000000  0.5444750000000 1.0
C      1  0.5179950000000  0.5658790000000  0.4732940000000 1.0
C      1  0.4580480000000  0.4358790000000  0.5302760000000 1.0
C      1  0.4053330000000  0.4455490000000  0.4767830000000 1.0
C      1  0.5061900000000  0.4522300000000  0.5157070000000 1.0
C      1  0.4011020000000  0.5027360000000  0.5232920000000 1.0
C      1  0.5374310000000  0.5654600000000  0.5543620000000 1.0
C      1  0.3908810000000  0.5059440000000  0.4946790000000 1.0
C      1  0.5144130000000  0.4249180000000  0.5502160000000 1.0
C      1  0.5538750000000  0.4728390000000  0.5216150000000 1.0
C      1  0.5074810000000  0.4948360000000  0.4318130000000 1.0
C      1  0.4884800000000  0.4167860000000  0.4730080000000 1.0
C      1  0.5088980000000  0.5131930000000  0.5999810000000 1.0
C      1  0.4926510000000  0.5563430000000  0.4110220000000 1.0
C      1  0.4453350000000  0.4778710000000  0.4955670000000 1.0
C      1  0.4162830000000  0.5136880000000  0.4510690000000 1.0
C      1  0.4894060000000  0.5010690000000  0.5482270000000 1.0
C      1  0.4476460000000  0.4938800000000  0.4710300000000 1.0
C      1  0.4850760000000  0.5463110000000  0.5765770000000 1.0
C      1  0.4476210000000  0.5565850000000  0.5460590000000 1.0
C      1  0.5621080000000  0.4723360000000  0.5740070000000 1.0
C      1  0.4910830000000  0.5761660000000  0.5305210000000 1.0
C      1  0.4723960000000  0.4803850000000  0.5888510000000 1.0
C      1  0.4841400000000  0.5824690000000  0.4499250000000 1.0
C      1  0.4658340000000  0.4790750000000  0.4063460000000 1.0
C      1  0.4795630000000  0.4459560000000  0.4700420000000 1.0
C      1  0.4878460000000  0.4473600000000  0.4407670000000 1.0
C      1  0.4527490000000  0.5727050000000  0.5015830000000 1.0
C      1  0.4473200000000  0.5515320000000  0.4811440000000 1.0
C      1  0.4920080000000  0.4871360000000  0.4887290000000 1.0
C      1  0.5596610000000  0.5589640000000  0.4495700000000 1.0
C      1  0.5372000000000  0.4159460000000  0.5019960000000 1.0
C      1  0.5603840000000  0.4660760000000  0.4278420000000 1.0
C      1  0.4665270000000  0.5270890000000  0.5872020000000 1.0
C      1  0.5358240000000  0.5402500000000  0.5693740000000 1.0
C      1  0.5241800000000  0.4766560000000  0.5235580000000 1.0
C      1  0.4442420000000  0.5161460000000  0.5726870000000 1.0
C      1  0.4866250000000  0.4878720000000  0.3906670000000 1.0
C      1  0.4479090000000  0.4876190000000  0.5731040000000 1.0
C      1  0.4275480000000  0.5366690000000  0.4386370000000 1.0
C      1  0.4551890000000  0.5019920000000  0.4239360000000 1.0
C      1  0.4746300000000  0.5041580000000  0.4679870000000 1.0
C      1  0.4420680000000  0.4774960000000  0.5453700000000 1.0
C      1  0.5955490000000  0.4563230000000  0.5075730000000 1.0
C      1  0.5046060000000  0.5743070000000  0.4307240000000 1.0
C      1  0.5665970000000  0.4499760000000  0.5038080000000 1.0
C      1  0.4646880000000  0.5539040000000  0.4171490000000 1.0
C      1  0.5429350000000  0.4246130000000  0.4739100000000 1.0
C      1  0.5146180000000  0.4970850000000  0.5033000000000 1.0
C      1  0.4247120000000  0.5362500000000  0.4952280000000 1.0
C      1  0.5797540000000  0.5140860000000  0.4346340000000 1.0
C      1  0.4797460000000  0.5818490000000  0.5036970000000 1.0
C      1  0.5023640000000  0.4604740000000  0.4855040000000 1.0
C      1  0.5169790000000  0.4940310000000  0.5460780000000 1.0
C      1  0.4805810000000  0.5025950000000  0.4405140000000 1.0
C      1  0.5619120000000  0.5239840000000  0.5773430000000 1.0
C      1  0.5011100000000  0.4197490000000  0.4478220000000 1.0
C      1  0.4693810000000  0.5186220000000  0.5104200000000 1.0
C      1  0.4412000000000  0.5191820000000  0.5177600000000 1.0
C      1  0.5319110000000  0.5197200000000  0.5442190000000 1.0
C      1  0.5036570000000  0.5057810000000  0.4029930000000 1.0
C      1  0.5719980000000  0.4641910000000  0.5472100000000 1.0
C      1  0.5088000000000  0.5332520000000  0.4073450000000 1.0
C      1  0.5220630000000  0.5148250000000  0.4496880000000 1.0
C      1  0.4329840000000  0.5308810000000  0.5499160000000 1.0
C      1  0.4935500000000  0.4599410000000  0.5850810000000 1.0
C      1  0.5684950000000  0.5439100000000  0.5226110000000 1.0
C      1  0.4390590000000  0.5582920000000  0.4539000000000 1.0
C      1  0.4759090000000  0.5300960000000  0.4826280000000 1.0
C      1  0.4933620000000  0.5826600000000  0.4770420000000 1.0
C      1  0.5114790000000  0.5381440000000  0.5858100000000 1.0
C      1  0.5416150000000  0.5744950000000  0.4893810000000 1.0
C      1  0.5077330000000  0.5341470000000  0.4753290000000 1.0
C      1  0.4593930000000  0.5709260000000  0.4390450000000 1.0
C      1  0.4868500000000  0.5272330000000  0.5324580000000 1.0
C      1  0.5397700000000  0.5815680000000  0.5161680000000 1.0
C      1  0.5636500000000  0.4986410000000  0.5123770000000 1.0
C      1  0.4615810000000  0.4261120000000  0.5047620000000 1.0
C      1  0.5416480000000  0.4534770000000  0.5805670000000 1.0
C      1  0.5933010000000  0.4964150000000  0.5086890000000 1.0
C      1  0.5553070000000  0.4493180000000  0.4082640000000 1.0
C      1  0.5153380000000  0.5308860000000  0.5230450000000 1.0
C      1  0.4940950000000  0.4414690000000  0.5624290000000 1.0
C      1  0.5796580000000  0.5212990000000  0.5550300000000 1.0
C      1  0.5185690000000  0.5792890000000  0.5363260000000 1.0
END
