TITL C-215719-9286-4 142.639305451144 125000 -785.164782385523 0 0 112 (C1) n - 1
REM
REM in /rds/project/t2_vol4/rds-t2-cs072/BORA/CARBON/from-Arr/AIRSS/Generating-Clusters/GAP-ML-2020/Only-C1/SD-CG/HFTN-CG
REM
REM
REM
REM
REM
REM ./C.cell (11c1c37f851c82e70ff6c80c92926a4b)
REM AIRSS Version 0.9.1 bugfix July 2018 build 013d7b7c2542+ Fri, 06 Jul 2018 19:26:36 +0100
REM compiler GCC version 9.3.0
REM options -cpp -mtune=generic -march=x86-64 -g -O0
REM seed -667840359 -601020720 -1533086121 2003817702 1464297059 995673159 -49548325 -1006905303 -781081538 -460435933 -398695108 1236416711 -1835266768 -719083549 -1442201732 -880879176 1225324174 504989766 281095687 -355358539 -1137075632 1690669292 100397398 199272406 1076988854 -286931652 480434351 -754201843 592879144 190455616 1014340789 -202637606 2122975916
REM
CELL 1.54180   50.00000   50.00000   50.00000   90.00000   90.00000   90.00000
LATT -1
SFAC C  
C      1  0.4794160000000  0.5778690000000  0.4727410000000 1.0
C      1  0.4961270000000  0.4240290000000  0.5419610000000 1.0
C      1  0.4401860000000  0.4340470000000  0.4980120000000 1.0
C      1  0.5144370000000  0.4755330000000  0.4736160000000 1.0
C      1  0.5779080000000  0.5568790000000  0.5120980000000 1.0
C      1  0.4560200000000  0.4959390000000  0.5637630000000 1.0
C      1  0.5129360000000  0.4460500000000  0.4386550000000 1.0
C      1  0.5144920000000  0.5225850000000  0.4621930000000 1.0
C      1  0.4983290000000  0.5501830000000  0.5678980000000 1.0
C      1  0.5901080000000  0.5317080000000  0.5061510000000 1.0
C      1  0.4805670000000  0.5361940000000  0.5846420000000 1.0
C      1  0.4790060000000  0.5071150000000  0.4337810000000 1.0
C      1  0.4534300000000  0.5713930000000  0.4596750000000 1.0
C      1  0.4609260000000  0.4250540000000  0.4554990000000 1.0
C      1  0.5957090000000  0.5198420000000  0.5320760000000 1.0
C      1  0.5888230000000  0.4774590000000  0.5561440000000 1.0
C      1  0.4844270000000  0.5230120000000  0.4587190000000 1.0
C      1  0.4554150000000  0.5634420000000  0.4328860000000 1.0
C      1  0.4185520000000  0.4612360000000  0.4729100000000 1.0
C      1  0.4184110000000  0.5354150000000  0.4637800000000 1.0
C      1  0.5656120000000  0.5299330000000  0.4647010000000 1.0
C      1  0.5815230000000  0.5160640000000  0.4844020000000 1.0
C      1  0.5188920000000  0.5307860000000  0.5581790000000 1.0
C      1  0.4689330000000  0.5293120000000  0.4154020000000 1.0
C      1  0.4306140000000  0.5074420000000  0.5518630000000 1.0
C      1  0.5348820000000  0.5774630000000  0.5163890000000 1.0
C      1  0.5386910000000  0.5193410000000  0.5773800000000 1.0
C      1  0.4821140000000  0.4108760000000  0.4979450000000 1.0
C      1  0.4802270000000  0.5562850000000  0.4209070000000 1.0
C      1  0.5163690000000  0.4629560000000  0.5283000000000 1.0
C      1  0.5383340000000  0.4423900000000  0.5209230000000 1.0
C      1  0.5499610000000  0.5526500000000  0.4742990000000 1.0
C      1  0.4714620000000  0.5183750000000  0.4848100000000 1.0
C      1  0.5035440000000  0.5044770000000  0.5530840000000 1.0
C      1  0.5043830000000  0.4140370000000  0.5154380000000 1.0
C      1  0.4905900000000  0.4648570000000  0.5728710000000 1.0
C      1  0.4754400000000  0.5068670000000  0.5410130000000 1.0
C      1  0.4269860000000  0.5239270000000  0.4389640000000 1.0
C      1  0.5044080000000  0.5614120000000  0.4330570000000 1.0
C      1  0.4346920000000  0.5334540000000  0.5420900000000 1.0
C      1  0.5210240000000  0.5485840000000  0.4757340000000 1.0
C      1  0.4791710000000  0.4920670000000  0.5153050000000 1.0
C      1  0.4974930000000  0.5143260000000  0.5014380000000 1.0
C      1  0.4644970000000  0.4713680000000  0.4714080000000 1.0
C      1  0.4568330000000  0.4909200000000  0.4936300000000 1.0
C      1  0.5794780000000  0.4573130000000  0.5375070000000 1.0
C      1  0.5753250000000  0.4954390000000  0.4320730000000 1.0
C      1  0.5310280000000  0.5349870000000  0.5302560000000 1.0
C      1  0.5833240000000  0.4741630000000  0.4434670000000 1.0
C      1  0.5277300000000  0.4947530000000  0.5879100000000 1.0
C      1  0.4193260000000  0.5422180000000  0.5193460000000 1.0
C      1  0.4994450000000  0.4912890000000  0.5803430000000 1.0
C      1  0.5196540000000  0.5018570000000  0.4832460000000 1.0
C      1  0.5995170000000  0.4927490000000  0.5336300000000 1.0
C      1  0.4606090000000  0.4278720000000  0.4282900000000 1.0
C      1  0.4367430000000  0.5581810000000  0.5019160000000 1.0
C      1  0.4630660000000  0.4667210000000  0.5672170000000 1.0
C      1  0.5556210000000  0.4442510000000  0.5432060000000 1.0
C      1  0.4923940000000  0.4669330000000  0.5115180000000 1.0
C      1  0.4200820000000  0.4546660000000  0.5010570000000 1.0
C      1  0.4749500000000  0.5094610000000  0.5843290000000 1.0
C      1  0.5245390000000  0.4892590000000  0.5381530000000 1.0
C      1  0.5229730000000  0.5436920000000  0.4237840000000 1.0
C      1  0.5043180000000  0.5703620000000  0.5172680000000 1.0
C      1  0.4568110000000  0.5760990000000  0.5149750000000 1.0
C      1  0.4587060000000  0.4192510000000  0.5128510000000 1.0
C      1  0.5413810000000  0.5072270000000  0.5245280000000 1.0
C      1  0.4311070000000  0.4955220000000  0.4421020000000 1.0
C      1  0.4914730000000  0.4637460000000  0.4830640000000 1.0
C      1  0.5806090000000  0.5330260000000  0.5529410000000 1.0
C      1  0.4652950000000  0.5633390000000  0.5383110000000 1.0
C      1  0.5049670000000  0.4947900000000  0.4260280000000 1.0
C      1  0.4176420000000  0.4976770000000  0.5275180000000 1.0
C      1  0.5461830000000  0.4737200000000  0.5816290000000 1.0
C      1  0.4462030000000  0.4463000000000  0.4713040000000 1.0
C      1  0.5720460000000  0.4651570000000  0.4685610000000 1.0
C      1  0.5384480000000  0.4509540000000  0.5664300000000 1.0
C      1  0.4810000000000  0.5808410000000  0.5008020000000 1.0
C      1  0.4589550000000  0.5362510000000  0.5037030000000 1.0
C      1  0.5327940000000  0.4255930000000  0.4761920000000 1.0
C      1  0.5573970000000  0.5156030000000  0.4411590000000 1.0
C      1  0.5720710000000  0.5573650000000  0.5408960000000 1.0
C      1  0.4707110000000  0.4648200000000  0.4196870000000 1.0
C      1  0.5272450000000  0.5173040000000  0.4342650000000 1.0
C      1  0.5879530000000  0.4747390000000  0.5145860000000 1.0
C      1  0.4844060000000  0.4154670000000  0.4697170000000 1.0
C      1  0.5451630000000  0.4995510000000  0.4982690000000 1.0
C      1  0.5710370000000  0.4883380000000  0.5741260000000 1.0
C      1  0.5727290000000  0.4861390000000  0.4909670000000 1.0
C      1  0.4592690000000  0.4842960000000  0.4399340000000 1.0
C      1  0.5097290000000  0.4243470000000  0.4587660000000 1.0
C      1  0.5292930000000  0.4216460000000  0.5040470000000 1.0
C      1  0.5507120000000  0.4466650000000  0.4666530000000 1.0
C      1  0.4154920000000  0.4880290000000  0.4646730000000 1.0
C      1  0.5558550000000  0.5674390000000  0.4975250000000 1.0
C      1  0.4675310000000  0.4256890000000  0.5404550000000 1.0
C      1  0.5123420000000  0.5412190000000  0.5067200000000 1.0
C      1  0.4426600000000  0.5391200000000  0.4226890000000 1.0
C      1  0.5094680000000  0.4479590000000  0.5570570000000 1.0
C      1  0.4996740000000  0.4667700000000  0.4238740000000 1.0
C      1  0.5311090000000  0.4622340000000  0.4537130000000 1.0
C      1  0.4548950000000  0.4424740000000  0.5578430000000 1.0
C      1  0.4917800000000  0.5673220000000  0.5453620000000 1.0
C      1  0.4302600000000  0.4786170000000  0.5113150000000 1.0
C      1  0.4088700000000  0.5182150000000  0.5085680000000 1.0
C      1  0.4313110000000  0.5594400000000  0.4737230000000 1.0
C      1  0.4590280000000  0.4422250000000  0.4068760000000 1.0
C      1  0.5662850000000  0.5169200000000  0.5721380000000 1.0
C      1  0.4094680000000  0.5134920000000  0.4800470000000 1.0
C      1  0.5035580000000  0.5687700000000  0.4611160000000 1.0
C      1  0.4621200000000  0.5338120000000  0.5326070000000 1.0
C      1  0.5449380000000  0.5631640000000  0.5384450000000 1.0
END
