TITL C-21905-2380-4 -122.511241539677 125000 -761.585469128209 0 0 109 (C1) n - 1
REM
REM in /rds/project/t2_vol4/rds-t2-cs072/BORA/CARBON/from-Arr/AIRSS/Generating-Clusters/GAP-ML-2020/Only-C1/SD-CG/HFTN-CG
REM
REM
REM
REM
REM
REM ./C.cell (11c1c37f851c82e70ff6c80c92926a4b)
REM AIRSS Version 0.9.1 bugfix July 2018 build 013d7b7c2542+ Fri, 06 Jul 2018 19:26:36 +0100
REM compiler GCC version 9.3.0
REM options -cpp -mtune=generic -march=x86-64 -g -O0
REM seed 700851586 -2079960573 213521975 1945023167 -511609754 -2017834043 -500178130 792649598 -1807690841 -1191239884 908462997 -1734086205 1410232324 1293226712 -1016000036 -1330400878 1114328227 -701965482 425833857 300413745 303714668 2132975224 695247726 282198051 1012153432 -1192800062 878576709 -1571386694 -1500311520 646969282 1222118420 -190311497 -1475255511
REM
CELL 1.54180   50.00000   50.00000   50.00000   90.00000   90.00000   90.00000
LATT -1
SFAC C  
C      1  0.4619100000000  0.5568630000000  0.5650610000000 1.0
C      1  0.4303850000000  0.4472700000000  0.4673770000000 1.0
C      1  0.5369260000000  0.4549520000000  0.5515420000000 1.0
C      1  0.5138590000000  0.5442860000000  0.5122980000000 1.0
C      1  0.4350660000000  0.5031890000000  0.4403940000000 1.0
C      1  0.5008590000000  0.5701230000000  0.4451260000000 1.0
C      1  0.5450150000000  0.4411140000000  0.4224420000000 1.0
C      1  0.4218670000000  0.4889520000000  0.5348030000000 1.0
C      1  0.5482610000000  0.4921380000000  0.4243710000000 1.0
C      1  0.5320340000000  0.5641860000000  0.5543760000000 1.0
C      1  0.5317750000000  0.5909200000000  0.4860970000000 1.0
C      1  0.4472270000000  0.4724180000000  0.5350490000000 1.0
C      1  0.4953130000000  0.4949230000000  0.5889660000000 1.0
C      1  0.5752860000000  0.4649330000000  0.4572550000000 1.0
C      1  0.5789850000000  0.5415880000000  0.5064100000000 1.0
C      1  0.4846010000000  0.4156940000000  0.4569690000000 1.0
C      1  0.5289440000000  0.4143600000000  0.4734230000000 1.0
C      1  0.4185560000000  0.5092640000000  0.4635080000000 1.0
C      1  0.5366710000000  0.5146570000000  0.4654460000000 1.0
C      1  0.4713370000000  0.5175430000000  0.5185700000000 1.0
C      1  0.4478280000000  0.4788670000000  0.4316490000000 1.0
C      1  0.5635110000000  0.4597470000000  0.5370210000000 1.0
C      1  0.5015060000000  0.4833940000000  0.5059110000000 1.0
C      1  0.4219470000000  0.5351660000000  0.5398080000000 1.0
C      1  0.5076330000000  0.4542020000000  0.5457280000000 1.0
C      1  0.5804690000000  0.4679120000000  0.5588840000000 1.0
C      1  0.4091420000000  0.4888420000000  0.4814530000000 1.0
C      1  0.4600360000000  0.4191630000000  0.5020230000000 1.0
C      1  0.4721220000000  0.5334790000000  0.5790250000000 1.0
C      1  0.5372310000000  0.4681260000000  0.5762460000000 1.0
C      1  0.4550260000000  0.4462640000000  0.5479540000000 1.0
C      1  0.5750220000000  0.4664060000000  0.5101570000000 1.0
C      1  0.4785550000000  0.5017640000000  0.4941600000000 1.0
C      1  0.4758950000000  0.4421950000000  0.4469500000000 1.0
C      1  0.5105310000000  0.5442840000000  0.4374000000000 1.0
C      1  0.5105040000000  0.5504990000000  0.4849630000000 1.0
C      1  0.5093900000000  0.5626930000000  0.5728300000000 1.0
C      1  0.5677140000000  0.5077410000000  0.4399150000000 1.0
C      1  0.4085500000000  0.4633100000000  0.4714310000000 1.0
C      1  0.5824460000000  0.5193590000000  0.5243560000000 1.0
C      1  0.4809930000000  0.4076200000000  0.4847870000000 1.0
C      1  0.5588750000000  0.5544440000000  0.5463880000000 1.0
C      1  0.4973390000000  0.4490460000000  0.4269920000000 1.0
C      1  0.4214020000000  0.5332630000000  0.4785340000000 1.0
C      1  0.5625160000000  0.4831790000000  0.5747050000000 1.0
C      1  0.5124010000000  0.5303290000000  0.4648300000000 1.0
C      1  0.4867510000000  0.5136310000000  0.4669010000000 1.0
C      1  0.4409240000000  0.5570350000000  0.5460880000000 1.0
C      1  0.4947740000000  0.5300470000000  0.5300700000000 1.0
C      1  0.5129340000000  0.5171200000000  0.5917740000000 1.0
C      1  0.5314620000000  0.5162520000000  0.5703480000000 1.0
C      1  0.5200390000000  0.4986970000000  0.4185990000000 1.0
C      1  0.5139850000000  0.5103030000000  0.5423170000000 1.0
C      1  0.4942350000000  0.4521350000000  0.5729950000000 1.0
C      1  0.5841520000000  0.4911260000000  0.4570140000000 1.0
C      1  0.5297610000000  0.5185800000000  0.5181230000000 1.0
C      1  0.5376920000000  0.4889740000000  0.4773700000000 1.0
C      1  0.4679190000000  0.4475290000000  0.5725730000000 1.0
C      1  0.4125250000000  0.4999060000000  0.5090310000000 1.0
C      1  0.4683270000000  0.4275310000000  0.5296390000000 1.0
C      1  0.5716140000000  0.5277300000000  0.5501780000000 1.0
C      1  0.4204280000000  0.5277430000000  0.5085700000000 1.0
C      1  0.4726170000000  0.5826920000000  0.5146900000000 1.0
C      1  0.4956310000000  0.4329740000000  0.5298980000000 1.0
C      1  0.5592840000000  0.5109330000000  0.5697810000000 1.0
C      1  0.4505010000000  0.5393060000000  0.5068860000000 1.0
C      1  0.4720160000000  0.5044530000000  0.5726340000000 1.0
C      1  0.4980570000000  0.4838110000000  0.5358950000000 1.0
C      1  0.4479210000000  0.4529690000000  0.4445310000000 1.0
C      1  0.4470080000000  0.5470180000000  0.4765010000000 1.0
C      1  0.5807430000000  0.5310380000000  0.4797610000000 1.0
C      1  0.4811480000000  0.4648460000000  0.4686440000000 1.0
C      1  0.4753720000000  0.5157690000000  0.4156740000000 1.0
C      1  0.4599200000000  0.5733430000000  0.4696390000000 1.0
C      1  0.5204530000000  0.5735110000000  0.5289080000000 1.0
C      1  0.5086240000000  0.4076770000000  0.4925190000000 1.0
C      1  0.5641580000000  0.5634350000000  0.5193330000000 1.0
C      1  0.5859630000000  0.4937990000000  0.5083290000000 1.0
C      1  0.5893320000000  0.5039070000000  0.4819720000000 1.0
C      1  0.4505480000000  0.5657820000000  0.5211090000000 1.0
C      1  0.5565320000000  0.4642450000000  0.4317440000000 1.0
C      1  0.5195480000000  0.4313670000000  0.4276250000000 1.0
C      1  0.5033790000000  0.5234360000000  0.4191380000000 1.0
C      1  0.4896090000000  0.4875300000000  0.4525870000000 1.0
C      1  0.4985460000000  0.5409270000000  0.5879820000000 1.0
C      1  0.5073590000000  0.5790430000000  0.4752430000000 1.0
C      1  0.5281750000000  0.4612390000000  0.4730090000000 1.0
C      1  0.5034840000000  0.4582890000000  0.4880160000000 1.0
C      1  0.5100510000000  0.4709510000000  0.5869330000000 1.0
C      1  0.4926800000000  0.5835190000000  0.5346190000000 1.0
C      1  0.5272010000000  0.4962860000000  0.5016900000000 1.0
C      1  0.5618400000000  0.5290700000000  0.4578010000000 1.0
C      1  0.4497480000000  0.4636240000000  0.5067870000000 1.0
C      1  0.4209540000000  0.5111460000000  0.5518930000000 1.0
C      1  0.4429220000000  0.4389720000000  0.4929800000000 1.0
C      1  0.4531520000000  0.5239310000000  0.4319180000000 1.0
C      1  0.4620780000000  0.4794910000000  0.4871910000000 1.0
C      1  0.4857430000000  0.5734010000000  0.5600050000000 1.0
C      1  0.4695010000000  0.4939080000000  0.5423470000000 1.0
C      1  0.5427920000000  0.5817480000000  0.5095630000000 1.0
C      1  0.5128200000000  0.4133690000000  0.4499340000000 1.0
C      1  0.5701570000000  0.4519470000000  0.4839240000000 1.0
C      1  0.4722920000000  0.4881870000000  0.4183660000000 1.0
C      1  0.5061160000000  0.4324770000000  0.5046450000000 1.0
C      1  0.4789190000000  0.5842290000000  0.4872590000000 1.0
C      1  0.4991770000000  0.4780630000000  0.4244850000000 1.0
C      1  0.5455000000000  0.4384550000000  0.4782600000000 1.0
C      1  0.4649220000000  0.5355210000000  0.4547930000000 1.0
C      1  0.4745280000000  0.5633610000000  0.4473860000000 1.0
END
