TITL C-214939-2212-4 104.755524838929 125000 -303.188261363945 0 0 45 (C1) n - 1
REM
REM in /rds/project/t2_vol4/rds-t2-cs072/BORA/CARBON/from-Arr/AIRSS/Generating-Clusters/GAP-ML-2020/Only-C1/SD-CG/HFTN-CG
REM
REM
REM
REM
REM
REM ./C.cell (11c1c37f851c82e70ff6c80c92926a4b)
REM AIRSS Version 0.9.1 bugfix July 2018 build 013d7b7c2542+ Fri, 06 Jul 2018 19:26:36 +0100
REM compiler GCC version 9.3.0
REM options -cpp -mtune=generic -march=x86-64 -g -O0
REM seed 940759733 1063992838 389752814 1138149382 1577421086 1857437511 110772053 341182948 -715333621 -1904729153 640813627 190955823 -767999448 -798275356 1323400458 1295541120 -1970526393 -1849123260 2090267836 1374360944 -1042977220 217582911 1306148059 176601536 -851178351 1410802445 1523952274 184212668 847362787 2119133022 1601929584 2124466232 948599341
REM
CELL 1.54180   50.00000   50.00000   50.00000   90.00000   90.00000   90.00000
LATT -1
SFAC C  
C      1  0.5636780000000  0.5172630000000  0.4978260000000 1.0
C      1  0.4533110000000  0.4579540000000  0.4797600000000 1.0
C      1  0.5498250000000  0.5077340000000  0.5207380000000 1.0
C      1  0.5217750000000  0.5109860000000  0.5786320000000 1.0
C      1  0.5012900000000  0.4458030000000  0.4821920000000 1.0
C      1  0.4590110000000  0.4881580000000  0.5417920000000 1.0
C      1  0.4719780000000  0.5402210000000  0.4413850000000 1.0
C      1  0.4752090000000  0.5388340000000  0.4948970000000 1.0
C      1  0.4720130000000  0.5424130000000  0.5239510000000 1.0
C      1  0.4502390000000  0.5283490000000  0.4814700000000 1.0
C      1  0.4964730000000  0.4578240000000  0.5335400000000 1.0
C      1  0.4809390000000  0.5063390000000  0.4958140000000 1.0
C      1  0.5085150000000  0.5139290000000  0.4539900000000 1.0
C      1  0.5228830000000  0.5472520000000  0.4950160000000 1.0
C      1  0.4961680000000  0.5393220000000  0.4537850000000 1.0
C      1  0.5635230000000  0.4669130000000  0.4639280000000 1.0
C      1  0.5799990000000  0.5067100000000  0.4786110000000 1.0
C      1  0.5396680000000  0.5258330000000  0.5653160000000 1.0
C      1  0.5456130000000  0.4612070000000  0.4825290000000 1.0
C      1  0.4982300000000  0.5494330000000  0.4807920000000 1.0
C      1  0.5638630000000  0.4951370000000  0.4592970000000 1.0
C      1  0.4484100000000  0.5380530000000  0.5367670000000 1.0
C      1  0.4492010000000  0.5044020000000  0.5002300000000 1.0
C      1  0.5037280000000  0.4960330000000  0.5677210000000 1.0
C      1  0.4495330000000  0.5122310000000  0.5285110000000 1.0
C      1  0.4887310000000  0.4861900000000  0.5451600000000 1.0
C      1  0.5217820000000  0.5443220000000  0.5234330000000 1.0
C      1  0.4423740000000  0.4751710000000  0.5004830000000 1.0
C      1  0.4514000000000  0.4705660000000  0.4552580000000 1.0
C      1  0.4983820000000  0.5034450000000  0.5200920000000 1.0
C      1  0.4633930000000  0.4942590000000  0.4521050000000 1.0
C      1  0.4735000000000  0.4468100000000  0.5206220000000 1.0
C      1  0.5259160000000  0.4440060000000  0.4977670000000 1.0
C      1  0.4746700000000  0.4418670000000  0.4917120000000 1.0
C      1  0.5278650000000  0.4854540000000  0.4835990000000 1.0
C      1  0.5437470000000  0.5320310000000  0.4822290000000 1.0
C      1  0.5044900000000  0.4719940000000  0.4725980000000 1.0
C      1  0.4885580000000  0.4953590000000  0.4688960000000 1.0
C      1  0.5251190000000  0.4908040000000  0.5134380000000 1.0
C      1  0.4977390000000  0.5320580000000  0.5303170000000 1.0
C      1  0.4524030000000  0.4660710000000  0.5252560000000 1.0
C      1  0.5209390000000  0.4598850000000  0.5204540000000 1.0
C      1  0.5418150000000  0.5289900000000  0.5384790000000 1.0
C      1  0.5348830000000  0.5097100000000  0.4645980000000 1.0
C      1  0.4572210000000  0.5226750000000  0.4550120000000 1.0
END
