TITL C-21794-4648-3 542.297251068691 125000 -562.195311555449 0 0 80 (C1) n - 1
REM
REM in /rds/project/t2_vol4/rds-t2-cs072/BORA/CARBON/from-Arr/AIRSS/Generating-Clusters/GAP-ML-2020/Only-C1/SD-CG/HFTN-CG
REM
REM
REM
REM
REM
REM ./C.cell (11c1c37f851c82e70ff6c80c92926a4b)
REM AIRSS Version 0.9.1 bugfix July 2018 build 013d7b7c2542+ Fri, 06 Jul 2018 19:26:36 +0100
REM compiler GCC version 9.3.0
REM options -cpp -mtune=generic -march=x86-64 -g -O0
REM seed 1225199307 1977653889 -1309417538 1722636300 1331349790 -1750148423 5121029 596804513 2133336161 841541026 -818331996 846440401 1108160566 1745157882 -1100628433 1633825069 545071866 -135006607 -573591946 784593252 1149923229 678582800 -1213365955 -602530970 -474208034 739226607 -340393121 533305546 1481428912 -1497387 -1435661762 -2045416517 -1576963167
REM
CELL 1.54180   50.00000   50.00000   50.00000   90.00000   90.00000   90.00000
LATT -1
SFAC C  
C      1  0.5145250000000  0.5195320000000  0.4944140000000 1.0
C      1  0.5083010000000  0.4546880000000  0.5023490000000 1.0
C      1  0.5032640000000  0.5716190000000  0.4625510000000 1.0
C      1  0.5324670000000  0.4451650000000  0.5134640000000 1.0
C      1  0.5601220000000  0.5202330000000  0.4739980000000 1.0
C      1  0.4342180000000  0.5183830000000  0.4721180000000 1.0
C      1  0.4616630000000  0.4775200000000  0.5109460000000 1.0
C      1  0.5005910000000  0.4895910000000  0.5329840000000 1.0
C      1  0.5303170000000  0.4935470000000  0.4188930000000 1.0
C      1  0.4973760000000  0.5117790000000  0.5163790000000 1.0
C      1  0.5250220000000  0.4409380000000  0.5614140000000 1.0
C      1  0.4745670000000  0.4918940000000  0.4106720000000 1.0
C      1  0.5489370000000  0.4400650000000  0.4903590000000 1.0
C      1  0.5258620000000  0.5584430000000  0.4495450000000 1.0
C      1  0.4877050000000  0.4676710000000  0.4192990000000 1.0
C      1  0.5584370000000  0.5456090000000  0.5141620000000 1.0
C      1  0.4505080000000  0.5147720000000  0.5688770000000 1.0
C      1  0.5200360000000  0.4376550000000  0.4575820000000 1.0
C      1  0.4521490000000  0.4342130000000  0.4767960000000 1.0
C      1  0.5321220000000  0.5196850000000  0.5708630000000 1.0
C      1  0.4775490000000  0.5031150000000  0.4696690000000 1.0
C      1  0.5197790000000  0.5801290000000  0.4844710000000 1.0
C      1  0.4619010000000  0.5134310000000  0.4256670000000 1.0
C      1  0.4487560000000  0.5300810000000  0.4975690000000 1.0
C      1  0.4604470000000  0.4717990000000  0.5624640000000 1.0
C      1  0.5418650000000  0.5578500000000  0.5350300000000 1.0
C      1  0.5590200000000  0.4881200000000  0.4985460000000 1.0
C      1  0.4834620000000  0.5513430000000  0.4685140000000 1.0
C      1  0.5360120000000  0.4914140000000  0.5694470000000 1.0
C      1  0.4600380000000  0.5405940000000  0.5675740000000 1.0
C      1  0.4527010000000  0.4650580000000  0.4848490000000 1.0
C      1  0.5058960000000  0.5788310000000  0.5086000000000 1.0
C      1  0.5168680000000  0.4684060000000  0.4207930000000 1.0
C      1  0.5167930000000  0.5714360000000  0.5341670000000 1.0
C      1  0.4469550000000  0.4814140000000  0.5374260000000 1.0
C      1  0.5385940000000  0.4523120000000  0.5410340000000 1.0
C      1  0.5373830000000  0.5034070000000  0.4857190000000 1.0
C      1  0.5554300000000  0.4927450000000  0.4346040000000 1.0
C      1  0.5123360000000  0.4796210000000  0.5808260000000 1.0
C      1  0.5346890000000  0.4228310000000  0.4740850000000 1.0
C      1  0.5048760000000  0.5248870000000  0.5800350000000 1.0
C      1  0.5493520000000  0.4786270000000  0.5476170000000 1.0
C      1  0.5329850000000  0.4512430000000  0.4367830000000 1.0
C      1  0.4884400000000  0.4650370000000  0.5204220000000 1.0
C      1  0.4133540000000  0.4987610000000  0.4717630000000 1.0
C      1  0.4723240000000  0.4563760000000  0.4409890000000 1.0
C      1  0.4701790000000  0.5698530000000  0.5350860000000 1.0
C      1  0.4770770000000  0.5724260000000  0.5081050000000 1.0
C      1  0.4939120000000  0.5662620000000  0.5511020000000 1.0
C      1  0.4286380000000  0.4784200000000  0.4766350000000 1.0
C      1  0.4879060000000  0.5462590000000  0.5709860000000 1.0
C      1  0.4650950000000  0.5543790000000  0.4892260000000 1.0
C      1  0.5069840000000  0.4626130000000  0.4745800000000 1.0
C      1  0.4868290000000  0.5160250000000  0.4115320000000 1.0
C      1  0.4773920000000  0.4496590000000  0.5627330000000 1.0
C      1  0.5167040000000  0.5323880000000  0.4439150000000 1.0
C      1  0.4697480000000  0.5061240000000  0.4996970000000 1.0
C      1  0.4553030000000  0.5138140000000  0.4530690000000 1.0
C      1  0.5142060000000  0.5170970000000  0.4203870000000 1.0
C      1  0.5506340000000  0.4700920000000  0.4525230000000 1.0
C      1  0.5607250000000  0.4644610000000  0.4803360000000 1.0
C      1  0.4785230000000  0.4399500000000  0.5358910000000 1.0
C      1  0.5273110000000  0.4826250000000  0.4675550000000 1.0
C      1  0.4657680000000  0.4937410000000  0.5796940000000 1.0
C      1  0.4988900000000  0.5248660000000  0.4681110000000 1.0
C      1  0.5646310000000  0.5144330000000  0.4479310000000 1.0
C      1  0.4386630000000  0.5082750000000  0.5435800000000 1.0
C      1  0.4562880000000  0.4155180000000  0.4973000000000 1.0
C      1  0.4391170000000  0.5319360000000  0.5263190000000 1.0
C      1  0.4500560000000  0.5520320000000  0.5429050000000 1.0
C      1  0.4929750000000  0.4995130000000  0.5859170000000 1.0
C      1  0.5620260000000  0.5220520000000  0.5310810000000 1.0
C      1  0.5041980000000  0.4538800000000  0.5734910000000 1.0
C      1  0.4586360000000  0.4345150000000  0.4497270000000 1.0
C      1  0.4788070000000  0.4726770000000  0.4665040000000 1.0
C      1  0.5467910000000  0.5346490000000  0.5523540000000 1.0
C      1  0.4658760000000  0.4216990000000  0.5201550000000 1.0
C      1  0.5427270000000  0.5649460000000  0.4725060000000 1.0
C      1  0.5596100000000  0.5468810000000  0.4859530000000 1.0
C      1  0.5617880000000  0.4940630000000  0.5267870000000 1.0
END
