TITL C-21090-1295-11 -935.428159226451 125000 -198.7250264406 0 0 31 (C1) n - 1
REM
REM in /rds/project/t2_vol4/rds-t2-cs072/BORA/CARBON/from-Arr/AIRSS/Generating-Clusters/GAP-ML-2020/Only-C1/SD-CG/HFTN-CG
REM
REM
REM
REM
REM
REM ./C.cell (11c1c37f851c82e70ff6c80c92926a4b)
REM AIRSS Version 0.9.1 bugfix July 2018 build 013d7b7c2542+ Fri, 06 Jul 2018 19:26:36 +0100
REM compiler GCC version 9.3.0
REM options -cpp -mtune=generic -march=x86-64 -g -O0
REM seed 1083499710 697555244 1283928134 -1814514521 1003122674 759900457 145324867 745287995 1406999487 1670273722 576800472 141281760 195012408 1143190487 -788767871 -1859646859 1975441408 1264381501 949521202 1004905246 -2059279770 1017895565 -1307331411 -382765039 -1837871931 -573092349 1384996105 -502322030 -492722253 -212863069 937326741 158103263 -912212246
REM
CELL 1.54180   50.00000   50.00000   50.00000   90.00000   90.00000   90.00000
LATT -1
SFAC C  
C      1  0.4769560000000  0.5267570000000  0.4993560000000 1.0
C      1  0.5402320000000  0.4882940000000  0.5039140000000 1.0
C      1  0.5267710000000  0.4755180000000  0.4582880000000 1.0
C      1  0.4844430000000  0.5524460000000  0.5341750000000 1.0
C      1  0.4841910000000  0.4413660000000  0.5075970000000 1.0
C      1  0.4554550000000  0.4857670000000  0.5117320000000 1.0
C      1  0.5091650000000  0.4925130000000  0.5524450000000 1.0
C      1  0.5252220000000  0.5276900000000  0.5183540000000 1.0
C      1  0.5344050000000  0.4845570000000  0.5463000000000 1.0
C      1  0.5347210000000  0.5025710000000  0.4610940000000 1.0
C      1  0.5138280000000  0.5014440000000  0.5073080000000 1.0
C      1  0.5117320000000  0.5406270000000  0.5398150000000 1.0
C      1  0.4832660000000  0.4873540000000  0.4720940000000 1.0
C      1  0.4953350000000  0.4890360000000  0.5258290000000 1.0
C      1  0.5459700000000  0.5314510000000  0.5000660000000 1.0
C      1  0.4902940000000  0.5226010000000  0.4414000000000 1.0
C      1  0.4758670000000  0.5532920000000  0.5080560000000 1.0
C      1  0.4560260000000  0.4939370000000  0.4638860000000 1.0
C      1  0.5513440000000  0.4787400000000  0.5278220000000 1.0
C      1  0.4668050000000  0.5127830000000  0.4470300000000 1.0
C      1  0.5504130000000  0.5090000000000  0.4843680000000 1.0
C      1  0.5000230000000  0.4718130000000  0.4544350000000 1.0
C      1  0.4426820000000  0.4891880000000  0.4873580000000 1.0
C      1  0.4733320000000  0.5266610000000  0.5475730000000 1.0
C      1  0.5098250000000  0.5183970000000  0.4605870000000 1.0
C      1  0.4775400000000  0.4671840000000  0.5174510000000 1.0
C      1  0.5008730000000  0.5200760000000  0.5578240000000 1.0
C      1  0.4969560000000  0.5094250000000  0.4847660000000 1.0
C      1  0.5139820000000  0.4502170000000  0.4669390000000 1.0
C      1  0.4705560000000  0.5094370000000  0.5232590000000 1.0
C      1  0.5017890000000  0.4398570000000  0.4888760000000 1.0
END
