TITL C-21779-2086-6 252.52678292035 125000 -988.113747231198 0 0 140 (C1) n - 1
REM
REM in /rds/project/t2_vol4/rds-t2-cs072/BORA/CARBON/from-Arr/AIRSS/Generating-Clusters/GAP-ML-2020/Only-C1/SD-CG/HFTN-CG
REM
REM
REM
REM
REM
REM ./C.cell (11c1c37f851c82e70ff6c80c92926a4b)
REM AIRSS Version 0.9.1 bugfix July 2018 build 013d7b7c2542+ Fri, 06 Jul 2018 19:26:36 +0100
REM compiler GCC version 9.3.0
REM options -cpp -mtune=generic -march=x86-64 -g -O0
REM seed 1112500390 -775665630 191623363 1446118801 -1532539880 1044737395 -971844987 1919498640 132474727 -1225548108 -707847310 474915751 339562787 -1553845991 1690171718 -364693472 -640272649 -282939024 1255749502 -1601146990 600742196 1956388978 -1109803419 -1520076368 1897577825 1091332193 410895737 357280589 538338476 -242113154 591234159 -314214851 1438172996
REM
CELL 1.54180   50.00000   50.00000   50.00000   90.00000   90.00000   90.00000
LATT -1
SFAC C  
C      1  0.4497890000000  0.4739480000000  0.4374210000000 1.0
C      1  0.4390130000000  0.5187980000000  0.4312580000000 1.0
C      1  0.4646400000000  0.4818970000000  0.5252940000000 1.0
C      1  0.4895260000000  0.5919800000000  0.4774080000000 1.0
C      1  0.5168720000000  0.5954410000000  0.4694490000000 1.0
C      1  0.4897110000000  0.4711480000000  0.5359250000000 1.0
C      1  0.5827980000000  0.5404100000000  0.5106250000000 1.0
C      1  0.4646220000000  0.5089770000000  0.5233890000000 1.0
C      1  0.4114480000000  0.5039190000000  0.5005690000000 1.0
C      1  0.5268690000000  0.5838010000000  0.4447160000000 1.0
C      1  0.5500800000000  0.4691730000000  0.4812760000000 1.0
C      1  0.4876570000000  0.4205480000000  0.5596640000000 1.0
C      1  0.4527260000000  0.5257220000000  0.5686700000000 1.0
C      1  0.4642810000000  0.4832070000000  0.4135200000000 1.0
C      1  0.5377110000000  0.5898350000000  0.5393710000000 1.0
C      1  0.4307440000000  0.5518710000000  0.4953820000000 1.0
C      1  0.5956710000000  0.4761020000000  0.4849120000000 1.0
C      1  0.4159930000000  0.5314070000000  0.5090010000000 1.0
C      1  0.4908340000000  0.4013090000000  0.4682990000000 1.0
C      1  0.4541600000000  0.5029560000000  0.4767350000000 1.0
C      1  0.4299890000000  0.5481980000000  0.4678750000000 1.0
C      1  0.5577460000000  0.4944360000000  0.4370930000000 1.0
C      1  0.5594400000000  0.4472060000000  0.5363170000000 1.0
C      1  0.4749510000000  0.5135950000000  0.4979440000000 1.0
C      1  0.4665940000000  0.5536540000000  0.4151380000000 1.0
C      1  0.4281740000000  0.4936640000000  0.4436750000000 1.0
C      1  0.4776080000000  0.5680250000000  0.5750310000000 1.0
C      1  0.5502590000000  0.4953160000000  0.4726750000000 1.0
C      1  0.4731500000000  0.5269690000000  0.5436650000000 1.0
C      1  0.5408910000000  0.3982730000000  0.4842260000000 1.0
C      1  0.5701320000000  0.5658010000000  0.5134950000000 1.0
C      1  0.5338770000000  0.4796050000000  0.4269240000000 1.0
C      1  0.5583720000000  0.5684080000000  0.5399860000000 1.0
C      1  0.4413370000000  0.4699230000000  0.5706700000000 1.0
C      1  0.4689340000000  0.5764550000000  0.5494190000000 1.0
C      1  0.5103490000000  0.4782810000000  0.5142970000000 1.0
C      1  0.5388430000000  0.4377390000000  0.5551490000000 1.0
C      1  0.4965890000000  0.5297070000000  0.5968540000000 1.0
C      1  0.5683380000000  0.4363940000000  0.5117380000000 1.0
C      1  0.5589830000000  0.4118810000000  0.5013640000000 1.0
C      1  0.5686680000000  0.5242710000000  0.5311420000000 1.0
C      1  0.5508940000000  0.5681630000000  0.4452690000000 1.0
C      1  0.5923520000000  0.5228650000000  0.4902780000000 1.0
C      1  0.4863010000000  0.5911320000000  0.5322900000000 1.0
C      1  0.5679730000000  0.4486170000000  0.4391200000000 1.0
C      1  0.4586670000000  0.5100930000000  0.4112700000000 1.0
C      1  0.5146300000000  0.4250000000000  0.5474710000000 1.0
C      1  0.4627480000000  0.4591180000000  0.5069330000000 1.0
C      1  0.5239610000000  0.5447780000000  0.5925310000000 1.0
C      1  0.4739170000000  0.5780810000000  0.4562160000000 1.0
C      1  0.4665130000000  0.4039140000000  0.4866720000000 1.0
C      1  0.5114220000000  0.5697160000000  0.4258710000000 1.0
C      1  0.5803110000000  0.4970190000000  0.5289210000000 1.0
C      1  0.5400700000000  0.5171080000000  0.5168130000000 1.0
C      1  0.5219760000000  0.5719120000000  0.5942300000000 1.0
C      1  0.5254520000000  0.5450150000000  0.4180580000000 1.0
C      1  0.4955070000000  0.4160680000000  0.4430850000000 1.0
C      1  0.5127560000000  0.3948020000000  0.4860630000000 1.0
C      1  0.5127060000000  0.4942120000000  0.4114770000000 1.0
C      1  0.5024660000000  0.4015500000000  0.5113200000000 1.0
C      1  0.5569090000000  0.5758610000000  0.4907860000000 1.0
C      1  0.5266160000000  0.4929170000000  0.6025440000000 1.0
C      1  0.5331910000000  0.5126430000000  0.4876220000000 1.0
C      1  0.5525840000000  0.5445680000000  0.4291220000000 1.0
C      1  0.5744450000000  0.4346830000000  0.4634040000000 1.0
C      1  0.5079030000000  0.5479750000000  0.4986980000000 1.0
C      1  0.5263900000000  0.4573610000000  0.4735200000000 1.0
C      1  0.4292970000000  0.4516680000000  0.5498870000000 1.0
C      1  0.4504060000000  0.5271600000000  0.4591000000000 1.0
C      1  0.4353550000000  0.5446230000000  0.5517070000000 1.0
C      1  0.4114870000000  0.4623550000000  0.5295370000000 1.0
C      1  0.4997680000000  0.5028560000000  0.6031120000000 1.0
C      1  0.5060780000000  0.5226060000000  0.4194380000000 1.0
C      1  0.5142100000000  0.4727210000000  0.4500560000000 1.0
C      1  0.5416450000000  0.5036450000000  0.5795440000000 1.0
C      1  0.4749000000000  0.3998490000000  0.5140610000000 1.0
C      1  0.5625220000000  0.4113650000000  0.4718420000000 1.0
C      1  0.4461870000000  0.5810410000000  0.4579200000000 1.0
C      1  0.4793370000000  0.4597000000000  0.4844690000000 1.0
C      1  0.5170390000000  0.4330390000000  0.4290750000000 1.0
C      1  0.5346370000000  0.6019300000000  0.5155420000000 1.0
C      1  0.5472480000000  0.5325940000000  0.5781240000000 1.0
C      1  0.5028180000000  0.5267710000000  0.5448170000000 1.0
C      1  0.4401590000000  0.5483670000000  0.4245630000000 1.0
C      1  0.5085950000000  0.4545340000000  0.4954060000000 1.0
C      1  0.4414630000000  0.4178250000000  0.4857320000000 1.0
C      1  0.4293630000000  0.5647590000000  0.4449170000000 1.0
C      1  0.4143430000000  0.5050940000000  0.5487510000000 1.0
C      1  0.5420270000000  0.4489970000000  0.4268700000000 1.0
C      1  0.4905350000000  0.4765640000000  0.5882300000000 1.0
C      1  0.5400290000000  0.4573940000000  0.5768370000000 1.0
C      1  0.4165940000000  0.5311300000000  0.5375880000000 1.0
C      1  0.4993200000000  0.4810850000000  0.5609050000000 1.0
C      1  0.5685470000000  0.5220970000000  0.4385850000000 1.0
C      1  0.4346230000000  0.4991400000000  0.5684110000000 1.0
C      1  0.5042790000000  0.4991420000000  0.4918060000000 1.0
C      1  0.5954010000000  0.4880110000000  0.4592280000000 1.0
C      1  0.5890750000000  0.5166640000000  0.4606960000000 1.0
C      1  0.5938810000000  0.4970190000000  0.5039070000000 1.0
C      1  0.4712170000000  0.4821720000000  0.4644050000000 1.0
C      1  0.5239850000000  0.5378850000000  0.4752120000000 1.0
C      1  0.5610640000000  0.4770300000000  0.5405040000000 1.0
C      1  0.4588470000000  0.5616950000000  0.5058900000000 1.0
C      1  0.5329460000000  0.4916750000000  0.5308220000000 1.0
C      1  0.4722540000000  0.5415200000000  0.5858920000000 1.0
C      1  0.5555920000000  0.4796040000000  0.5694690000000 1.0
C      1  0.4806290000000  0.4419170000000  0.5267850000000 1.0
C      1  0.5069830000000  0.4297180000000  0.5184210000000 1.0
C      1  0.5175040000000  0.5368940000000  0.5230640000000 1.0
C      1  0.4669210000000  0.4171560000000  0.5376750000000 1.0
C      1  0.4794540000000  0.5426050000000  0.4920420000000 1.0
C      1  0.4960650000000  0.4539650000000  0.4267770000000 1.0
C      1  0.4754920000000  0.4344780000000  0.5798830000000 1.0
C      1  0.5372910000000  0.5962390000000  0.4897710000000 1.0
C      1  0.4386050000000  0.4265680000000  0.5378460000000 1.0
C      1  0.4655580000000  0.4595410000000  0.5845330000000 1.0
C      1  0.5790110000000  0.4751860000000  0.4397890000000 1.0
C      1  0.4133050000000  0.4479110000000  0.5054130000000 1.0
C      1  0.4283720000000  0.4245020000000  0.5105680000000 1.0
C      1  0.4575410000000  0.5555210000000  0.5351640000000 1.0
C      1  0.4976410000000  0.4950420000000  0.4621410000000 1.0
C      1  0.4488910000000  0.4449920000000  0.4426860000000 1.0
C      1  0.4340370000000  0.4385630000000  0.4662520000000 1.0
C      1  0.4075210000000  0.4895640000000  0.5259130000000 1.0
C      1  0.5173540000000  0.5020720000000  0.5550010000000 1.0
C      1  0.4749780000000  0.4352150000000  0.4351070000000 1.0
C      1  0.4911340000000  0.4760540000000  0.4091810000000 1.0
C      1  0.5500340000000  0.5569790000000  0.4708670000000 1.0
C      1  0.4767290000000  0.5419810000000  0.4624800000000 1.0
C      1  0.5104520000000  0.5918850000000  0.5494690000000 1.0
C      1  0.5034160000000  0.5799290000000  0.5755760000000 1.0
C      1  0.4779790000000  0.5876890000000  0.5044570000000 1.0
C      1  0.4792070000000  0.5292080000000  0.4087450000000 1.0
C      1  0.4236910000000  0.4899360000000  0.4759830000000 1.0
C      1  0.5603470000000  0.5428000000000  0.5544310000000 1.0
C      1  0.5011700000000  0.5251970000000  0.4538690000000 1.0
C      1  0.4198080000000  0.4597190000000  0.4800290000000 1.0
C      1  0.4836190000000  0.5723800000000  0.4282290000000 1.0
C      1  0.5757380000000  0.4535260000000  0.4873080000000 1.0
C      1  0.5194170000000  0.4663220000000  0.5945450000000 1.0
END
