TITL C-21090-1295-9 -0.343867752154975 125000 -290.833795765348 0 0 42 (C1) n - 1
REM
REM in /rds/project/t2_vol4/rds-t2-cs072/BORA/CARBON/from-Arr/AIRSS/Generating-Clusters/GAP-ML-2020/Only-C1/SD-CG/HFTN-CG
REM
REM
REM
REM
REM
REM ./C.cell (11c1c37f851c82e70ff6c80c92926a4b)
REM AIRSS Version 0.9.1 bugfix July 2018 build 013d7b7c2542+ Fri, 06 Jul 2018 19:26:36 +0100
REM compiler GCC version 9.3.0
REM options -cpp -mtune=generic -march=x86-64 -g -O0
REM seed 1871818258 1095721843 132022749 -1911328150 -510734177 -434787959 954084213 -1573456511 -1750210721 -410362227 -1978998356 -998975944 -1340483324 -1540999362 1622685025 -297680356 1405903499 -1909061650 -118117460 -120361159 1213270989 -1231590301 -296885788 747584710 2125066744 1373851110 -739392109 -1694023825 -909669417 -400375768 627316117 2119524741 132192244
REM
CELL 1.54180   50.00000   50.00000   50.00000   90.00000   90.00000   90.00000
LATT -1
SFAC C  
C      1  0.4338610000000  0.4803510000000  0.4658410000000 1.0
C      1  0.5548690000000  0.4722670000000  0.4882090000000 1.0
C      1  0.4596650000000  0.4775290000000  0.4589290000000 1.0
C      1  0.4656940000000  0.5069240000000  0.5003120000000 1.0
C      1  0.4724900000000  0.5264960000000  0.4586740000000 1.0
C      1  0.5361510000000  0.4639550000000  0.5304590000000 1.0
C      1  0.4950770000000  0.4488490000000  0.5152930000000 1.0
C      1  0.5148640000000  0.4449570000000  0.4941770000000 1.0
C      1  0.5434810000000  0.5405950000000  0.5048080000000 1.0
C      1  0.4933830000000  0.4812190000000  0.5515270000000 1.0
C      1  0.4277760000000  0.4821680000000  0.5074950000000 1.0
C      1  0.4980370000000  0.5397300000000  0.4595230000000 1.0
C      1  0.5188600000000  0.5205030000000  0.4527600000000 1.0
C      1  0.4730270000000  0.5251740000000  0.5455660000000 1.0
C      1  0.4737090000000  0.5519090000000  0.4991610000000 1.0
C      1  0.5440370000000  0.4822090000000  0.4638700000000 1.0
C      1  0.5398020000000  0.4537940000000  0.5034060000000 1.0
C      1  0.5035980000000  0.4543990000000  0.4698070000000 1.0
C      1  0.4595300000000  0.5302730000000  0.4849990000000 1.0
C      1  0.5104230000000  0.5044950000000  0.5589160000000 1.0
C      1  0.5436840000000  0.5114350000000  0.4646250000000 1.0
C      1  0.4554070000000  0.4831880000000  0.5160120000000 1.0
C      1  0.4711410000000  0.4585280000000  0.5039840000000 1.0
C      1  0.5187510000000  0.4727280000000  0.4540770000000 1.0
C      1  0.5552500000000  0.5192680000000  0.4906630000000 1.0
C      1  0.4930990000000  0.5252090000000  0.5636380000000 1.0
C      1  0.5351760000000  0.5106580000000  0.5452630000000 1.0
C      1  0.5040620000000  0.4959670000000  0.4453430000000 1.0
C      1  0.4686410000000  0.4934450000000  0.5416350000000 1.0
C      1  0.5117040000000  0.4945080000000  0.4993400000000 1.0
C      1  0.5611750000000  0.4948000000000  0.5055080000000 1.0
C      1  0.4943940000000  0.5106220000000  0.5063250000000 1.0
C      1  0.4819860000000  0.5482400000000  0.5272700000000 1.0
C      1  0.5080610000000  0.4604400000000  0.5381340000000 1.0
C      1  0.4977080000000  0.5568800000000  0.4835460000000 1.0
C      1  0.4148040000000  0.4815170000000  0.4846900000000 1.0
C      1  0.4759730000000  0.4994130000000  0.4480870000000 1.0
C      1  0.4759150000000  0.4596420000000  0.4753170000000 1.0
C      1  0.5341920000000  0.5362810000000  0.5329170000000 1.0
C      1  0.5203310000000  0.5569130000000  0.4998440000000 1.0
C      1  0.5105850000000  0.5529770000000  0.5281050000000 1.0
C      1  0.5496280000000  0.4895440000000  0.5319450000000 1.0
END
