TITL C-2114524-4667-33 0.121983382520027 125000 -425.743467670897 0 0 63 (C1) n - 1
REM
REM in /nfs/bkarasulu/CARBON/AIRSS/Generating-Clusters/GAP-ML-2020/Only-C1/SD-CG/HFTN-CG
REM
REM
REM
REM
REM
REM ./C.cell (11c1c37f851c82e70ff6c80c92926a4b)
REM
REM compiler GCC version 9.2.1 20190827 (Red Hat 9.2.1-1)
REM options -cpp -mtune=generic -march=x86-64 -g -O0 -fpre-include=/usr/include/finclude/math-vector-fortran.h
REM seed -2133001510 547900636 -1046307898 -77349249 -780096891 -838364351 873427682 1055302118 77789059 905111459 -3298533 -1184444318 1965919274 687094973 -2050503393 15970938 -871678858 -1630377339 1837051200 1993624576 -1440622502 365100360 -60117718 603833336 2096806570 -1137891339 -1367001728 -951506698 -313584451 -1586108542 -1434283944 -1279215626 -164851367
REM
CELL 1.54180   50.00000   50.00000   50.00000   90.00000   90.00000   90.00000
LATT -1
SFAC C  
C      1  0.4613700000000  0.4610940000000  0.4711880000000 1.0
C      1  0.5090020000000  0.5469140000000  0.5235900000000 1.0
C      1  0.4879650000000  0.5023720000000  0.4981100000000 1.0
C      1  0.4878520000000  0.4297670000000  0.5072640000000 1.0
C      1  0.4679750000000  0.4954030000000  0.4361080000000 1.0
C      1  0.4672890000000  0.5180590000000  0.5673750000000 1.0
C      1  0.5362890000000  0.4607310000000  0.4785760000000 1.0
C      1  0.5012100000000  0.5383600000000  0.4399970000000 1.0
C      1  0.5267150000000  0.5475460000000  0.4509400000000 1.0
C      1  0.4906210000000  0.4752620000000  0.5737520000000 1.0
C      1  0.5605740000000  0.5401830000000  0.5079930000000 1.0
C      1  0.4458020000000  0.4817820000000  0.4842470000000 1.0
C      1  0.5283740000000  0.5664280000000  0.4722920000000 1.0
C      1  0.4800800000000  0.5556380000000  0.5189340000000 1.0
C      1  0.4625100000000  0.4779400000000  0.5376240000000 1.0
C      1  0.5103080000000  0.4405900000000  0.5464740000000 1.0
C      1  0.4338100000000  0.5456810000000  0.5050820000000 1.0
C      1  0.5552500000000  0.5257880000000  0.4850060000000 1.0
C      1  0.5469080000000  0.5281710000000  0.4562900000000 1.0
C      1  0.4707780000000  0.4608800000000  0.5593290000000 1.0
C      1  0.5353920000000  0.5049130000000  0.4936380000000 1.0
C      1  0.4197860000000  0.5221550000000  0.4997400000000 1.0
C      1  0.5238920000000  0.5691060000000  0.5120890000000 1.0
C      1  0.5619500000000  0.4451520000000  0.5200160000000 1.0
C      1  0.5091150000000  0.5209480000000  0.4972910000000 1.0
C      1  0.5430060000000  0.4280250000000  0.5065750000000 1.0
C      1  0.5604650000000  0.4958880000000  0.5311840000000 1.0
C      1  0.5173940000000  0.4372940000000  0.5181390000000 1.0
C      1  0.4626060000000  0.5153760000000  0.4559300000000 1.0
C      1  0.5350070000000  0.4871490000000  0.5187040000000 1.0
C      1  0.4423770000000  0.4971250000000  0.5325230000000 1.0
C      1  0.4880840000000  0.4863630000000  0.5251310000000 1.0
C      1  0.5376930000000  0.4315090000000  0.4746680000000 1.0
C      1  0.4642940000000  0.5599650000000  0.4722520000000 1.0
C      1  0.4632930000000  0.5046820000000  0.4819600000000 1.0
C      1  0.5079890000000  0.5774080000000  0.4887510000000 1.0
C      1  0.4757230000000  0.5410680000000  0.4530960000000 1.0
C      1  0.4901530000000  0.5050650000000  0.5724230000000 1.0
C      1  0.5429260000000  0.4872360000000  0.4718150000000 1.0
C      1  0.4548150000000  0.5449110000000  0.5260950000000 1.0
C      1  0.4385410000000  0.5593030000000  0.4813740000000 1.0
C      1  0.5126840000000  0.4663850000000  0.5583200000000 1.0
C      1  0.4819250000000  0.4348850000000  0.5501990000000 1.0
C      1  0.5048020000000  0.4660170000000  0.4440920000000 1.0
C      1  0.5413660000000  0.5010650000000  0.4477260000000 1.0
C      1  0.4319570000000  0.4977990000000  0.5046630000000 1.0
C      1  0.5145580000000  0.5122590000000  0.5585200000000 1.0
C      1  0.5146810000000  0.4895500000000  0.5401930000000 1.0
C      1  0.5225950000000  0.4640100000000  0.5050170000000 1.0
C      1  0.5529620000000  0.5255350000000  0.5324690000000 1.0
C      1  0.5669750000000  0.4695840000000  0.5290140000000 1.0
C      1  0.5458520000000  0.5605610000000  0.4964250000000 1.0
C      1  0.5189720000000  0.4910960000000  0.4336830000000 1.0
C      1  0.4794710000000  0.4512510000000  0.4907590000000 1.0
C      1  0.5201140000000  0.4455950000000  0.4583560000000 1.0
C      1  0.4818360000000  0.5697230000000  0.4937070000000 1.0
C      1  0.5268350000000  0.5328960000000  0.5438270000000 1.0
C      1  0.4738510000000  0.4193250000000  0.5285840000000 1.0
C      1  0.4951280000000  0.4732780000000  0.5007370000000 1.0
C      1  0.4759360000000  0.4693990000000  0.4474480000000 1.0
C      1  0.4522950000000  0.5226140000000  0.5442450000000 1.0
C      1  0.4783410000000  0.5054670000000  0.4130720000000 1.0
C      1  0.5016830000000  0.5124740000000  0.4253760000000 1.0
END
