TITL C-2114524-4667-23 -9.53683572264458 125000 -611.720512615526 0 0 87 (C1) n - 1
REM
REM in /nfs/bkarasulu/CARBON/AIRSS/Generating-Clusters/GAP-ML-2020/Only-C1/SD-CG/HFTN-CG
REM
REM
REM
REM
REM
REM ./C.cell (11c1c37f851c82e70ff6c80c92926a4b)
REM
REM compiler GCC version 9.2.1 20190827 (Red Hat 9.2.1-1)
REM options -cpp -mtune=generic -march=x86-64 -g -O0 -fpre-include=/usr/include/finclude/math-vector-fortran.h
REM seed -1201740627 389247235 -325466257 348012076 -943378357 -1480743138 879393854 -1852017473 -529609913 738677038 822913977 501962150 822559026 1884236984 583378728 2083513183 2079462701 465067741 1553540935 465639381 -689148303 -1265881202 -94157929 -1976851207 1944457433 906286556 359894882 1107535487 -918835685 -737171661 -1380214882 1973611610 -1971342626
REM
CELL 1.54180   50.00000   50.00000   50.00000   90.00000   90.00000   90.00000
LATT -1
SFAC C  
C      1  0.5260640000000  0.5143240000000  0.5779200000000 1.0
C      1  0.5240550000000  0.4928920000000  0.4240400000000 1.0
C      1  0.4824120000000  0.4298380000000  0.5531520000000 1.0
C      1  0.5116530000000  0.4715350000000  0.5078800000000 1.0
C      1  0.4844540000000  0.4919610000000  0.5852840000000 1.0
C      1  0.5444120000000  0.4544090000000  0.4621920000000 1.0
C      1  0.4579680000000  0.4948890000000  0.5735430000000 1.0
C      1  0.4786400000000  0.4815160000000  0.4245900000000 1.0
C      1  0.5174610000000  0.5231670000000  0.4885130000000 1.0
C      1  0.4706240000000  0.5704860000000  0.4587260000000 1.0
C      1  0.4596510000000  0.5639260000000  0.5382030000000 1.0
C      1  0.4755930000000  0.4514820000000  0.5671090000000 1.0
C      1  0.5328910000000  0.4264480000000  0.5022380000000 1.0
C      1  0.4246610000000  0.5203850000000  0.4812880000000 1.0
C      1  0.4419460000000  0.5372890000000  0.4419140000000 1.0
C      1  0.4421910000000  0.4695630000000  0.5346820000000 1.0
C      1  0.5335320000000  0.4898510000000  0.5185380000000 1.0
C      1  0.4777920000000  0.5382960000000  0.5052240000000 1.0
C      1  0.5513300000000  0.4436210000000  0.4888780000000 1.0
C      1  0.4524720000000  0.4695200000000  0.5611910000000 1.0
C      1  0.5339520000000  0.5504670000000  0.4831060000000 1.0
C      1  0.5047660000000  0.5532400000000  0.5191620000000 1.0
C      1  0.5140690000000  0.5399720000000  0.4376240000000 1.0
C      1  0.4544070000000  0.5572580000000  0.5084420000000 1.0
C      1  0.4293540000000  0.4931850000000  0.4933630000000 1.0
C      1  0.5545300000000  0.5384400000000  0.5265990000000 1.0
C      1  0.5381000000000  0.5435970000000  0.4518080000000 1.0
C      1  0.4495180000000  0.4543760000000  0.4589290000000 1.0
C      1  0.4678290000000  0.5320490000000  0.4317230000000 1.0
C      1  0.4352910000000  0.5474180000000  0.4870880000000 1.0
C      1  0.5199600000000  0.5391450000000  0.5632750000000 1.0
C      1  0.4286230000000  0.4729250000000  0.4701980000000 1.0
C      1  0.5139270000000  0.4568300000000  0.4562850000000 1.0
C      1  0.5494990000000  0.4938660000000  0.4954480000000 1.0
C      1  0.4263340000000  0.4900230000000  0.5239560000000 1.0
C      1  0.5570200000000  0.5226880000000  0.4460250000000 1.0
C      1  0.5555520000000  0.4908970000000  0.5441820000000 1.0
C      1  0.4885450000000  0.5266320000000  0.4789550000000 1.0
C      1  0.4904660000000  0.5018700000000  0.5286110000000 1.0
C      1  0.5698760000000  0.5144490000000  0.5327070000000 1.0
C      1  0.4445590000000  0.5577760000000  0.4619610000000 1.0
C      1  0.5057390000000  0.4719290000000  0.4311380000000 1.0
C      1  0.5158430000000  0.5141220000000  0.5188050000000 1.0
C      1  0.4315720000000  0.4891920000000  0.4461570000000 1.0
C      1  0.5139320000000  0.5691010000000  0.4982090000000 1.0
C      1  0.4895910000000  0.4737870000000  0.5241560000000 1.0
C      1  0.4812330000000  0.5101680000000  0.4198840000000 1.0
C      1  0.5092220000000  0.5170860000000  0.4211670000000 1.0
C      1  0.5773740000000  0.5164240000000  0.4642790000000 1.0
C      1  0.4984550000000  0.5158220000000  0.5860780000000 1.0
C      1  0.5385060000000  0.4478540000000  0.5483150000000 1.0
C      1  0.5682070000000  0.4585320000000  0.5075290000000 1.0
C      1  0.4972370000000  0.4669200000000  0.5785710000000 1.0
C      1  0.5802800000000  0.4878510000000  0.4668480000000 1.0
C      1  0.5071120000000  0.4805960000000  0.4795680000000 1.0
C      1  0.5611510000000  0.4748920000000  0.4505220000000 1.0
C      1  0.4818430000000  0.4977050000000  0.4774720000000 1.0
C      1  0.5496060000000  0.4959380000000  0.4344740000000 1.0
C      1  0.4264510000000  0.5161150000000  0.4528050000000 1.0
C      1  0.4975200000000  0.4340830000000  0.4659880000000 1.0
C      1  0.4411170000000  0.5118160000000  0.5342670000000 1.0
C      1  0.4685450000000  0.4381050000000  0.4716970000000 1.0
C      1  0.4495930000000  0.5190200000000  0.5601950000000 1.0
C      1  0.4994040000000  0.4208220000000  0.5344470000000 1.0
C      1  0.4667220000000  0.5129190000000  0.5167780000000 1.0
C      1  0.4797850000000  0.5928090000000  0.4716130000000 1.0
C      1  0.4657460000000  0.5444650000000  0.5586390000000 1.0
C      1  0.4675580000000  0.5810860000000  0.5172470000000 1.0
C      1  0.5274070000000  0.4276200000000  0.5311880000000 1.0
C      1  0.4533710000000  0.4726980000000  0.4357780000000 1.0
C      1  0.5588030000000  0.5465230000000  0.4993540000000 1.0
C      1  0.4878720000000  0.4194400000000  0.5084210000000 1.0
C      1  0.5840160000000  0.5082220000000  0.5091990000000 1.0
C      1  0.5081490000000  0.4204190000000  0.4887170000000 1.0
C      1  0.4916720000000  0.5402420000000  0.5715990000000 1.0
C      1  0.5795230000000  0.5292200000000  0.4893110000000 1.0
C      1  0.4604070000000  0.4907940000000  0.4966490000000 1.0
C      1  0.4631400000000  0.4640850000000  0.5137570000000 1.0
C      1  0.5260300000000  0.5391920000000  0.5350440000000 1.0
C      1  0.5248760000000  0.4653370000000  0.5681720000000 1.0
C      1  0.5292540000000  0.4999270000000  0.4760730000000 1.0
C      1  0.5383760000000  0.4906970000000  0.5679130000000 1.0
C      1  0.4906590000000  0.5857260000000  0.4963070000000 1.0
C      1  0.5785950000000  0.4828470000000  0.4953630000000 1.0
C      1  0.5589780000000  0.4629430000000  0.5349720000000 1.0
C      1  0.4664440000000  0.4369530000000  0.5003480000000 1.0
C      1  0.4871030000000  0.5454550000000  0.4504310000000 1.0
END
