TITL C-21796-2009-2 -437.903188746956 125000 -539.271440205274 0 0 80 (C1) n - 1
REM
REM in /rds/project/t2_vol4/rds-t2-cs072/BORA/CARBON/from-Arr/AIRSS/Generating-Clusters/GAP-ML-2020/Only-C1/SD-CG/HFTN-CG
REM
REM
REM
REM
REM
REM ./C.cell (11c1c37f851c82e70ff6c80c92926a4b)
REM AIRSS Version 0.9.1 bugfix July 2018 build 013d7b7c2542+ Fri, 06 Jul 2018 19:26:36 +0100
REM compiler GCC version 9.3.0
REM options -cpp -mtune=generic -march=x86-64 -g -O0
REM seed 1778185040 1492057118 -574026120 200585252 1756150995 134682231 274774865 996792297 229568611 757207606 2033961728 -2033934365 1810106760 980215010 -95143849 -1428357851 1293701283 -219807843 -1857700789 -1600708294 134290396 10301647 449636458 360832186 -2046573789 -702458458 -484911006 -1579281102 883093268 1953177452 1911815367 821357757 706274541
REM
CELL 1.54180   50.00000   50.00000   50.00000   90.00000   90.00000   90.00000
LATT -1
SFAC C  
C      1  0.4680890000000  0.5282620000000  0.4404920000000 1.0
C      1  0.4396140000000  0.5598540000000  0.4709230000000 1.0
C      1  0.4613360000000  0.4592840000000  0.5492680000000 1.0
C      1  0.5100480000000  0.5480710000000  0.4544000000000 1.0
C      1  0.5148820000000  0.4171890000000  0.4717720000000 1.0
C      1  0.5660620000000  0.4735400000000  0.4600910000000 1.0
C      1  0.5018140000000  0.4995250000000  0.4540820000000 1.0
C      1  0.5624820000000  0.4775750000000  0.5519310000000 1.0
C      1  0.4803030000000  0.5095640000000  0.4962210000000 1.0
C      1  0.5554730000000  0.5316640000000  0.4588800000000 1.0
C      1  0.5013750000000  0.5754680000000  0.4919890000000 1.0
C      1  0.5370250000000  0.4697920000000  0.5661730000000 1.0
C      1  0.5440690000000  0.5579570000000  0.4942800000000 1.0
C      1  0.5263240000000  0.4835110000000  0.5142260000000 1.0
C      1  0.4771110000000  0.4653980000000  0.4605860000000 1.0
C      1  0.4836610000000  0.4643970000000  0.5095150000000 1.0
C      1  0.5766870000000  0.4812560000000  0.5072160000000 1.0
C      1  0.4386120000000  0.4824340000000  0.5159700000000 1.0
C      1  0.4653300000000  0.5624200000000  0.5152220000000 1.0
C      1  0.4290730000000  0.4899960000000  0.4569070000000 1.0
C      1  0.4310230000000  0.4651400000000  0.4692700000000 1.0
C      1  0.4491440000000  0.5114210000000  0.4602100000000 1.0
C      1  0.4936590000000  0.4545890000000  0.4824220000000 1.0
C      1  0.4756850000000  0.4966000000000  0.4696360000000 1.0
C      1  0.4908650000000  0.4872680000000  0.4144230000000 1.0
C      1  0.5343240000000  0.4567420000000  0.5045640000000 1.0
C      1  0.5715130000000  0.4965390000000  0.5312010000000 1.0
C      1  0.5205500000000  0.4761190000000  0.4522750000000 1.0
C      1  0.4952690000000  0.4273390000000  0.5192670000000 1.0
C      1  0.4837160000000  0.5655100000000  0.5377360000000 1.0
C      1  0.5614560000000  0.5234130000000  0.5298940000000 1.0
C      1  0.5384850000000  0.5527860000000  0.4663810000000 1.0
C      1  0.4903870000000  0.5125130000000  0.4270690000000 1.0
C      1  0.5638800000000  0.4558430000000  0.5119790000000 1.0
C      1  0.5426100000000  0.5144720000000  0.4410410000000 1.0
C      1  0.5238580000000  0.5174190000000  0.5677780000000 1.0
C      1  0.4416740000000  0.5340290000000  0.4824350000000 1.0
C      1  0.4697650000000  0.5374580000000  0.4943910000000 1.0
C      1  0.4674720000000  0.4892890000000  0.5124910000000 1.0
C      1  0.4909120000000  0.5237720000000  0.5429770000000 1.0
C      1  0.4817530000000  0.4972600000000  0.5370920000000 1.0
C      1  0.5612120000000  0.4444970000000  0.4590130000000 1.0
C      1  0.5244060000000  0.5751320000000  0.5073600000000 1.0
C      1  0.5623200000000  0.5369980000000  0.5041080000000 1.0
C      1  0.5369730000000  0.4310900000000  0.4641700000000 1.0
C      1  0.4764210000000  0.5447680000000  0.5578370000000 1.0
C      1  0.5103500000000  0.5636380000000  0.5287070000000 1.0
C      1  0.5179110000000  0.4890680000000  0.5749490000000 1.0
C      1  0.5633670000000  0.4509300000000  0.5396780000000 1.0
C      1  0.4434200000000  0.5093950000000  0.5535900000000 1.0
C      1  0.5136860000000  0.5342580000000  0.5279920000000 1.0
C      1  0.5025910000000  0.4782480000000  0.5275920000000 1.0
C      1  0.5372270000000  0.5274640000000  0.5444330000000 1.0
C      1  0.4616000000000  0.4282410000000  0.4828110000000 1.0
C      1  0.5084690000000  0.5221760000000  0.5003410000000 1.0
C      1  0.4738150000000  0.5808180000000  0.4923730000000 1.0
C      1  0.5764190000000  0.4922730000000  0.4812470000000 1.0
C      1  0.4491550000000  0.4377950000000  0.5055880000000 1.0
C      1  0.5152560000000  0.5238760000000  0.4386190000000 1.0
C      1  0.4954630000000  0.5242260000000  0.5727610000000 1.0
C      1  0.4493910000000  0.5367620000000  0.5534640000000 1.0
C      1  0.5275350000000  0.5028450000000  0.4951630000000 1.0
C      1  0.4304000000000  0.5299110000000  0.5117560000000 1.0
C      1  0.5213690000000  0.4370230000000  0.5252400000000 1.0
C      1  0.4696120000000  0.4429660000000  0.5271180000000 1.0
C      1  0.4982460000000  0.5466980000000  0.4821400000000 1.0
C      1  0.4287520000000  0.5059450000000  0.5286020000000 1.0
C      1  0.5455800000000  0.4870580000000  0.4453230000000 1.0
C      1  0.4794350000000  0.5537490000000  0.4488740000000 1.0
C      1  0.4888840000000  0.4955020000000  0.5778750000000 1.0
C      1  0.4418650000000  0.5489530000000  0.5280550000000 1.0
C      1  0.4959330000000  0.4710480000000  0.4372040000000 1.0
C      1  0.4914640000000  0.4241680000000  0.4886100000000 1.0
C      1  0.4657430000000  0.4860900000000  0.5602390000000 1.0
C      1  0.4534060000000  0.4481200000000  0.4624190000000 1.0
C      1  0.4632080000000  0.5721940000000  0.4657680000000 1.0
C      1  0.5220430000000  0.4572600000000  0.4761030000000 1.0
C      1  0.5369830000000  0.4444100000000  0.5489110000000 1.0
C      1  0.5706310000000  0.5211360000000  0.4806340000000 1.0
C      1  0.4320860000000  0.4605970000000  0.4986580000000 1.0
END
