TITL C-21692-8314-8 0.0502379605285753 125000 -145.892325885497 0 0 23 (C1) n - 1
REM
REM in /rds/project/t2_vol4/rds-t2-cs072/BORA/CARBON/from-Arr/AIRSS/Generating-Clusters/GAP-ML-2020/Only-C1/SD-CG/HFTN-CG
REM
REM
REM
REM
REM
REM ./C.cell (11c1c37f851c82e70ff6c80c92926a4b)
REM AIRSS Version 0.9.1 bugfix July 2018 build 013d7b7c2542+ Fri, 06 Jul 2018 19:26:36 +0100
REM compiler GCC version 9.3.0
REM options -cpp -mtune=generic -march=x86-64 -g -O0
REM seed 1190384187 -1944943976 -1788621735 -1541365944 -1952674473 60349280 -781592329 -826084721 -1290183302 1005903757 -1403927484 861959487 240615284 426656857 -1357459553 1846419733 -1223648649 -2099825403 -292616823 -561681651 -347725600 -114095290 655187450 -1350170962 -1069636783 -120146076 173837550 630361002 -99832139 -935753072 1186831104 1355852673 -340735819
REM
CELL 1.54180   50.00000   50.00000   50.00000   90.00000   90.00000   90.00000
LATT -1
SFAC C  
C      1  0.4914080000000  0.4760570000000  0.5347350000000 1.0
C      1  0.4871950000000  0.5020350000000  0.5798460000000 1.0
C      1  0.5377930000000  0.5366250000000  0.5040210000000 1.0
C      1  0.5102070000000  0.4578180000000  0.4736790000000 1.0
C      1  0.4866180000000  0.4601050000000  0.4910080000000 1.0
C      1  0.5481650000000  0.4786250000000  0.4885870000000 1.0
C      1  0.4790230000000  0.5335740000000  0.5016450000000 1.0
C      1  0.4881780000000  0.4917180000000  0.4916380000000 1.0
C      1  0.4923450000000  0.4563690000000  0.5188990000000 1.0
C      1  0.4965200000000  0.4937290000000  0.4447720000000 1.0
C      1  0.4843440000000  0.5520640000000  0.5210560000000 1.0
C      1  0.4496560000000  0.4891970000000  0.4981820000000 1.0
C      1  0.4970750000000  0.5295480000000  0.4783380000000 1.0
C      1  0.5345860000000  0.4557950000000  0.4876930000000 1.0
C      1  0.5070680000000  0.5604160000000  0.5301190000000 1.0
C      1  0.5339790000000  0.4975210000000  0.4747010000000 1.0
C      1  0.5154820000000  0.4820310000000  0.4589840000000 1.0
C      1  0.4864780000000  0.5073240000000  0.4647650000000 1.0
C      1  0.4595910000000  0.4671790000000  0.4862350000000 1.0
C      1  0.4894080000000  0.4879050000000  0.5583590000000 1.0
C      1  0.5254660000000  0.5235780000000  0.4835570000000 1.0
C      1  0.4671880000000  0.5080850000000  0.5060040000000 1.0
C      1  0.5322260000000  0.5527020000000  0.5231780000000 1.0
END
