TITL C-215734-9305-1 41.3588291313147 125000 -384.79157472112 0 0 57 (C1) n - 1
REM
REM in /rds/project/t2_vol4/rds-t2-cs072/BORA/CARBON/from-Arr/AIRSS/Generating-Clusters/GAP-ML-2020/Only-C1/SD-CG/HFTN-CG
REM
REM
REM
REM
REM
REM ./C.cell (11c1c37f851c82e70ff6c80c92926a4b)
REM AIRSS Version 0.9.1 bugfix July 2018 build 013d7b7c2542+ Fri, 06 Jul 2018 19:26:36 +0100
REM compiler GCC version 9.3.0
REM options -cpp -mtune=generic -march=x86-64 -g -O0
REM seed -2060016101 1594506308 -1292373387 -127937619 2106237521 -1189825598 -691845404 -333511115 2052352297 -707701038 -1094780238 1430402121 1768786150 1937293787 -1571724436 -105655743 1897331682 -763530529 -238566570 -148169573 -183321712 1812795598 350092284 1139302628 -913945719 661909823 797771728 -264284793 1154766343 1427240196 -359442163 -310924778 -963593554
REM
CELL 1.54180   50.00000   50.00000   50.00000   90.00000   90.00000   90.00000
LATT -1
SFAC C  
C      1  0.5084170000000  0.4796460000000  0.4218400000000 1.0
C      1  0.5547980000000  0.4920240000000  0.4929520000000 1.0
C      1  0.5096780000000  0.5189890000000  0.5696450000000 1.0
C      1  0.5398690000000  0.4813240000000  0.5166970000000 1.0
C      1  0.5090260000000  0.5393010000000  0.5475900000000 1.0
C      1  0.4764880000000  0.4421270000000  0.5108740000000 1.0
C      1  0.4555950000000  0.4901150000000  0.4814480000000 1.0
C      1  0.4989500000000  0.4320730000000  0.5492200000000 1.0
C      1  0.5611620000000  0.5195020000000  0.4972840000000 1.0
C      1  0.4591320000000  0.4613280000000  0.5544010000000 1.0
C      1  0.4948140000000  0.5187960000000  0.4816700000000 1.0
C      1  0.5131610000000  0.4604910000000  0.4393820000000 1.0
C      1  0.5050380000000  0.5500510000000  0.4457060000000 1.0
C      1  0.5002350000000  0.5040430000000  0.4302370000000 1.0
C      1  0.5400800000000  0.5329110000000  0.4826020000000 1.0
C      1  0.4734150000000  0.5074300000000  0.4984820000000 1.0
C      1  0.5043750000000  0.5780520000000  0.4888710000000 1.0
C      1  0.5183720000000  0.4406600000000  0.5322460000000 1.0
C      1  0.4737400000000  0.4430700000000  0.5401180000000 1.0
C      1  0.4924880000000  0.4962710000000  0.5199930000000 1.0
C      1  0.4843520000000  0.5122170000000  0.5752130000000 1.0
C      1  0.4728560000000  0.5038320000000  0.4399190000000 1.0
C      1  0.5049030000000  0.5601950000000  0.5111910000000 1.0
C      1  0.5528870000000  0.5541890000000  0.5288830000000 1.0
C      1  0.4367540000000  0.5323460000000  0.4905470000000 1.0
C      1  0.5595580000000  0.5279990000000  0.5243240000000 1.0
C      1  0.4584710000000  0.4512940000000  0.4914130000000 1.0
C      1  0.5106490000000  0.4786880000000  0.5051800000000 1.0
C      1  0.4963150000000  0.4466410000000  0.4579780000000 1.0
C      1  0.5394770000000  0.4646650000000  0.4528790000000 1.0
C      1  0.4646820000000  0.5127260000000  0.5564730000000 1.0
C      1  0.4639540000000  0.4825130000000  0.4560020000000 1.0
C      1  0.5140940000000  0.4377700000000  0.4789420000000 1.0
C      1  0.5136810000000  0.5331820000000  0.4990530000000 1.0
C      1  0.4608930000000  0.5289810000000  0.4468750000000 1.0
C      1  0.5371040000000  0.4738100000000  0.5640380000000 1.0
C      1  0.5385680000000  0.4603540000000  0.5394180000000 1.0
C      1  0.5315550000000  0.5004120000000  0.5621940000000 1.0
C      1  0.4415340000000  0.4912870000000  0.5227520000000 1.0
C      1  0.4414050000000  0.5346910000000  0.4657060000000 1.0
C      1  0.5269200000000  0.5585720000000  0.5330920000000 1.0
C      1  0.5084210000000  0.5691880000000  0.4648240000000 1.0
C      1  0.4709480000000  0.4567980000000  0.4650740000000 1.0
C      1  0.5395140000000  0.5071420000000  0.5342120000000 1.0
C      1  0.5397870000000  0.4903800000000  0.4671990000000 1.0
C      1  0.5097750000000  0.4913610000000  0.4773200000000 1.0
C      1  0.5398690000000  0.4422360000000  0.4685870000000 1.0
C      1  0.4849270000000  0.5355090000000  0.4595780000000 1.0
C      1  0.4628240000000  0.5335180000000  0.5363450000000 1.0
C      1  0.4852980000000  0.5499450000000  0.5336660000000 1.0
C      1  0.4433300000000  0.4734660000000  0.5005510000000 1.0
C      1  0.5379630000000  0.5182190000000  0.4575070000000 1.0
C      1  0.4498540000000  0.5198600000000  0.5136440000000 1.0
C      1  0.5052460000000  0.4472570000000  0.5055380000000 1.0
C      1  0.4519200000000  0.4869530000000  0.5479980000000 1.0
C      1  0.5181230000000  0.5255930000000  0.4393520000000 1.0
C      1  0.5127590000000  0.5180050000000  0.5252760000000 1.0
END
