TITL C-21788-1995-8 12.6205249031661 125000 -126.430005123422 0 0 20 (C1) n - 1
REM
REM in /rds/project/t2_vol4/rds-t2-cs072/BORA/CARBON/from-Arr/AIRSS/Generating-Clusters/GAP-ML-2020/Only-C1/SD-CG/HFTN-CG
REM
REM
REM
REM
REM
REM ./C.cell (11c1c37f851c82e70ff6c80c92926a4b)
REM AIRSS Version 0.9.1 bugfix July 2018 build 013d7b7c2542+ Fri, 06 Jul 2018 19:26:36 +0100
REM compiler GCC version 9.3.0
REM options -cpp -mtune=generic -march=x86-64 -g -O0
REM seed -484269169 275508102 -1787854218 -436505125 1401088381 -836326972 -2140177353 1992290586 861031408 -81482032 -727939957 -794081775 -1482490290 -1667038908 1818602075 1858436870 228446617 561155902 1826200714 -815603859 -88853134 1571799494 25471944 1839491173 1076089870 1328330247 1112954505 -439716767 -215010290 288759456 -1495016603 256560493 -1977313072
REM
CELL 1.54180   50.00000   50.00000   50.00000   90.00000   90.00000   90.00000
LATT -1
SFAC C  
C      1  0.4723310000000  0.5049680000000  0.4651350000000 1.0
C      1  0.4839830000000  0.5218580000000  0.5221630000000 1.0
C      1  0.4692110000000  0.4775080000000  0.5026480000000 1.0
C      1  0.4810590000000  0.4526300000000  0.4977960000000 1.0
C      1  0.4887170000000  0.4877320000000  0.4491730000000 1.0
C      1  0.5344220000000  0.4691500000000  0.4945980000000 1.0
C      1  0.4731970000000  0.5357580000000  0.5015130000000 1.0
C      1  0.4945340000000  0.4803330000000  0.5441270000000 1.0
C      1  0.5269460000000  0.4614500000000  0.4716300000000 1.0
C      1  0.4559050000000  0.4913690000000  0.4823140000000 1.0
C      1  0.5062810000000  0.4721020000000  0.4580000000000 1.0
C      1  0.5190410000000  0.5451090000000  0.5528330000000 1.0
C      1  0.5185830000000  0.4764510000000  0.5387400000000 1.0
C      1  0.5318370000000  0.5164190000000  0.5118000000000 1.0
C      1  0.5132540000000  0.5305160000000  0.5317540000000 1.0
C      1  0.5331450000000  0.4861640000000  0.5161230000000 1.0
C      1  0.4823350000000  0.5309480000000  0.4754920000000 1.0
C      1  0.4766260000000  0.4940950000000  0.5276120000000 1.0
C      1  0.5105740000000  0.5379800000000  0.4707120000000 1.0
C      1  0.5280170000000  0.5274600000000  0.4858360000000 1.0
END
