TITL C-214955-4956-6 -86.4668091261925 125000 -697.033559647002 0 0 100 (C1) n - 1
REM
REM in /rds/project/t2_vol4/rds-t2-cs072/BORA/CARBON/from-Arr/AIRSS/Generating-Clusters/GAP-ML-2020/Only-C1/SD-CG/HFTN-CG
REM
REM
REM
REM
REM
REM ./C.cell (11c1c37f851c82e70ff6c80c92926a4b)
REM AIRSS Version 0.9.1 bugfix July 2018 build 013d7b7c2542+ Fri, 06 Jul 2018 19:26:36 +0100
REM compiler GCC version 9.3.0
REM options -cpp -mtune=generic -march=x86-64 -g -O0
REM seed 260936682 -707815645 -1541811471 1590506781 -47388707 570616049 483666182 -775425527 -1024234338 1463363460 1236792435 868294172 -2023047858 1530230968 -1440208251 135136220 -923827188 -772956149 -1391044984 -1911073410 -900047643 -1603793263 1760883118 2146733073 319931622 -1019623802 143761728 1775389045 950755474 871690670 -1765706748 1548438559 1683624211
REM
CELL 1.54180   50.00000   50.00000   50.00000   90.00000   90.00000   90.00000
LATT -1
SFAC C  
C      1  0.4983100000000  0.5323940000000  0.5106790000000 1.0
C      1  0.5547140000000  0.5520580000000  0.4684840000000 1.0
C      1  0.4359590000000  0.5317010000000  0.4627740000000 1.0
C      1  0.4845070000000  0.5854850000000  0.5162040000000 1.0
C      1  0.4247260000000  0.5070640000000  0.4708440000000 1.0
C      1  0.4861840000000  0.4951340000000  0.5356110000000 1.0
C      1  0.4397860000000  0.5432830000000  0.5578910000000 1.0
C      1  0.5709920000000  0.5270280000000  0.4606830000000 1.0
C      1  0.4453530000000  0.4658390000000  0.5501780000000 1.0
C      1  0.5593570000000  0.4837400000000  0.4794660000000 1.0
C      1  0.4750700000000  0.4272080000000  0.4660130000000 1.0
C      1  0.4592900000000  0.5058480000000  0.5059500000000 1.0
C      1  0.4879690000000  0.4712590000000  0.4890730000000 1.0
C      1  0.5134070000000  0.5519560000000  0.4917910000000 1.0
C      1  0.5904770000000  0.4972180000000  0.5052870000000 1.0
C      1  0.4721400000000  0.5201500000000  0.5850900000000 1.0
C      1  0.5082780000000  0.4157360000000  0.5001720000000 1.0
C      1  0.4928760000000  0.4457130000000  0.4265190000000 1.0
C      1  0.4541600000000  0.4433840000000  0.4510160000000 1.0
C      1  0.5599900000000  0.5105730000000  0.4388680000000 1.0
C      1  0.4662380000000  0.5687370000000  0.5297180000000 1.0
C      1  0.4406770000000  0.4911450000000  0.5625560000000 1.0
C      1  0.4729070000000  0.4794780000000  0.5131420000000 1.0
C      1  0.4343020000000  0.5526810000000  0.4835350000000 1.0
C      1  0.4545470000000  0.5262660000000  0.4403190000000 1.0
C      1  0.5645800000000  0.4828070000000  0.4351290000000 1.0
C      1  0.5754260000000  0.4719190000000  0.5025040000000 1.0
C      1  0.4906960000000  0.5111570000000  0.4668980000000 1.0
C      1  0.4672240000000  0.4528850000000  0.5633560000000 1.0
C      1  0.4312600000000  0.4593390000000  0.4594120000000 1.0
C      1  0.5292730000000  0.5730700000000  0.5049940000000 1.0
C      1  0.4206800000000  0.5198350000000  0.5205050000000 1.0
C      1  0.5733920000000  0.5266550000000  0.5409410000000 1.0
C      1  0.4479270000000  0.4994610000000  0.4323780000000 1.0
C      1  0.5119590000000  0.5815880000000  0.5257400000000 1.0
C      1  0.5347190000000  0.4727600000000  0.4294040000000 1.0
C      1  0.4266480000000  0.5461870000000  0.5117970000000 1.0
C      1  0.4262650000000  0.4694440000000  0.5025310000000 1.0
C      1  0.5543950000000  0.5301900000000  0.5627970000000 1.0
C      1  0.5091220000000  0.4667630000000  0.4167170000000 1.0
C      1  0.4345450000000  0.5164170000000  0.5473680000000 1.0
C      1  0.5417960000000  0.4495610000000  0.4459260000000 1.0
C      1  0.4621330000000  0.4940520000000  0.5816260000000 1.0
C      1  0.4811260000000  0.4718500000000  0.5798150000000 1.0
C      1  0.4279660000000  0.4996680000000  0.4995480000000 1.0
C      1  0.5569170000000  0.5456350000000  0.5218200000000 1.0
C      1  0.4308370000000  0.4871890000000  0.4515720000000 1.0
C      1  0.4959700000000  0.5668270000000  0.4734460000000 1.0
C      1  0.5154690000000  0.5654630000000  0.5499570000000 1.0
C      1  0.5484100000000  0.5123100000000  0.5846800000000 1.0
C      1  0.5208880000000  0.5089820000000  0.4679020000000 1.0
C      1  0.4642390000000  0.5168130000000  0.5341200000000 1.0
C      1  0.5253720000000  0.4287520000000  0.4560100000000 1.0
C      1  0.5033790000000  0.5128340000000  0.4225220000000 1.0
C      1  0.5396920000000  0.5505690000000  0.5478700000000 1.0
C      1  0.5303430000000  0.4864940000000  0.4870980000000 1.0
C      1  0.5114930000000  0.5090960000000  0.5259150000000 1.0
C      1  0.4799970000000  0.4845240000000  0.4660660000000 1.0
C      1  0.5559440000000  0.5653620000000  0.4998880000000 1.0
C      1  0.5290480000000  0.5044160000000  0.4381950000000 1.0
C      1  0.5500050000000  0.5228570000000  0.5027050000000 1.0
C      1  0.4856580000000  0.5309230000000  0.4396960000000 1.0
C      1  0.5307290000000  0.4199250000000  0.4819940000000 1.0
C      1  0.4156520000000  0.4552220000000  0.4820000000000 1.0
C      1  0.5457720000000  0.4324830000000  0.5230420000000 1.0
C      1  0.4663810000000  0.4335810000000  0.5189510000000 1.0
C      1  0.4916960000000  0.5492470000000  0.5594000000000 1.0
C      1  0.5070120000000  0.4335750000000  0.5471810000000 1.0
C      1  0.5728100000000  0.4490330000000  0.4850930000000 1.0
C      1  0.5060220000000  0.5016470000000  0.5560840000000 1.0
C      1  0.5421630000000  0.5678540000000  0.4481160000000 1.0
C      1  0.4763470000000  0.5813710000000  0.4885100000000 1.0
C      1  0.5819590000000  0.5014700000000  0.5320590000000 1.0
C      1  0.5724760000000  0.5109420000000  0.4855710000000 1.0
C      1  0.5331600000000  0.5335640000000  0.4802380000000 1.0
C      1  0.5325730000000  0.4930690000000  0.5907410000000 1.0
C      1  0.5650580000000  0.4621850000000  0.4580130000000 1.0
C      1  0.5123930000000  0.4774550000000  0.5733500000000 1.0
C      1  0.4659000000000  0.4542300000000  0.4278080000000 1.0
C      1  0.5198180000000  0.4213190000000  0.5253370000000 1.0
C      1  0.5203670000000  0.5716800000000  0.4342280000000 1.0
C      1  0.4802800000000  0.5424990000000  0.5326520000000 1.0
C      1  0.4977790000000  0.5235360000000  0.5733160000000 1.0
C      1  0.4793670000000  0.5211450000000  0.4915440000000 1.0
C      1  0.5475630000000  0.4551890000000  0.5409250000000 1.0
C      1  0.4507510000000  0.5743320000000  0.4829010000000 1.0
C      1  0.4982670000000  0.4285790000000  0.4483250000000 1.0
C      1  0.4632090000000  0.5443610000000  0.5739930000000 1.0
C      1  0.5587050000000  0.4798160000000  0.5276770000000 1.0
C      1  0.4396970000000  0.5599890000000  0.5336720000000 1.0
C      1  0.5236860000000  0.4546560000000  0.5574720000000 1.0
C      1  0.4485230000000  0.4592320000000  0.5210790000000 1.0
C      1  0.4917300000000  0.4895730000000  0.4132960000000 1.0
C      1  0.4790630000000  0.4348580000000  0.5447970000000 1.0
C      1  0.4975560000000  0.5582200000000  0.4461080000000 1.0
C      1  0.5534670000000  0.4309400000000  0.4956110000000 1.0
C      1  0.5140230000000  0.4645460000000  0.4898150000000 1.0
C      1  0.5359510000000  0.4989110000000  0.5142550000000 1.0
C      1  0.4648180000000  0.4817760000000  0.4190720000000 1.0
C      1  0.4802660000000  0.4222530000000  0.4950650000000 1.0
END
