TITL C-21802-4514-5 -0.122520484190769 125000 -700.254883943228 0 0 102 (C1) n - 1
REM
REM in /rds/project/t2_vol4/rds-t2-cs072/BORA/CARBON/from-Arr/AIRSS/Generating-Clusters/GAP-ML-2020/Only-C1/SD-CG/HFTN-CG
REM
REM
REM
REM
REM
REM ./C.cell (11c1c37f851c82e70ff6c80c92926a4b)
REM AIRSS Version 0.9.1 bugfix July 2018 build 013d7b7c2542+ Fri, 06 Jul 2018 19:26:36 +0100
REM compiler GCC version 9.3.0
REM options -cpp -mtune=generic -march=x86-64 -g -O0
REM seed -1463715795 -1572718727 720652743 503679868 -702113757 -107540178 -1889684498 218593181 -1808401383 568266120 1912241023 981517421 -414470576 154698379 1674539058 2027873521 -786123443 -1915661860 1697118984 394864051 1095343587 -2079707771 875184894 -569146064 -157560542 1378366923 -275321211 1862475668 -890433337 -1661915891 -255427366 -65245599 -1991488133
REM
CELL 1.54180   50.00000   50.00000   50.00000   90.00000   90.00000   90.00000
LATT -1
SFAC C  
C      1  0.4652240000000  0.5653030000000  0.4669240000000 1.0
C      1  0.5632030000000  0.5258170000000  0.4450700000000 1.0
C      1  0.4602620000000  0.4944270000000  0.4544840000000 1.0
C      1  0.4628430000000  0.4829540000000  0.5305140000000 1.0
C      1  0.4948340000000  0.5251770000000  0.5400180000000 1.0
C      1  0.4794650000000  0.4852200000000  0.5753820000000 1.0
C      1  0.5672100000000  0.5280330000000  0.5526870000000 1.0
C      1  0.4891190000000  0.5022260000000  0.4511190000000 1.0
C      1  0.4451620000000  0.5731220000000  0.5069530000000 1.0
C      1  0.5592570000000  0.5579670000000  0.4784200000000 1.0
C      1  0.5166160000000  0.4553250000000  0.5540540000000 1.0
C      1  0.4969540000000  0.4436990000000  0.4169240000000 1.0
C      1  0.4491420000000  0.5224310000000  0.4483970000000 1.0
C      1  0.4415540000000  0.5603350000000  0.4815830000000 1.0
C      1  0.5293800000000  0.5149140000000  0.4814120000000 1.0
C      1  0.5694850000000  0.4803100000000  0.4663420000000 1.0
C      1  0.5469100000000  0.4485690000000  0.5135950000000 1.0
C      1  0.4438560000000  0.5126320000000  0.4978360000000 1.0
C      1  0.5234890000000  0.5574320000000  0.5592220000000 1.0
C      1  0.5067610000000  0.4956640000000  0.4753700000000 1.0
C      1  0.5805810000000  0.5535340000000  0.5513410000000 1.0
C      1  0.4161580000000  0.4826790000000  0.5243540000000 1.0
C      1  0.5744890000000  0.4581410000000  0.5207970000000 1.0
C      1  0.4725390000000  0.4771590000000  0.5024360000000 1.0
C      1  0.5748730000000  0.5068980000000  0.5346870000000 1.0
C      1  0.4852380000000  0.4955820000000  0.5468630000000 1.0
C      1  0.4316820000000  0.5623400000000  0.5277420000000 1.0
C      1  0.4835860000000  0.5762130000000  0.5366760000000 1.0
C      1  0.5264290000000  0.4373060000000  0.5339380000000 1.0
C      1  0.4304590000000  0.5333280000000  0.4800670000000 1.0
C      1  0.5101080000000  0.4196430000000  0.4580570000000 1.0
C      1  0.5626530000000  0.4965930000000  0.4427100000000 1.0
C      1  0.5565890000000  0.4532840000000  0.4627030000000 1.0
C      1  0.4875480000000  0.4130350000000  0.4772880000000 1.0
C      1  0.5509680000000  0.5597900000000  0.5073960000000 1.0
C      1  0.4717660000000  0.5828130000000  0.5105720000000 1.0
C      1  0.4959910000000  0.4905360000000  0.4252220000000 1.0
C      1  0.5080160000000  0.4099120000000  0.4979770000000 1.0
C      1  0.4844860000000  0.5375570000000  0.5159840000000 1.0
C      1  0.5292440000000  0.4177360000000  0.4795620000000 1.0
C      1  0.4689650000000  0.5585970000000  0.5556320000000 1.0
C      1  0.4110740000000  0.4970510000000  0.4510430000000 1.0
C      1  0.4966700000000  0.5099450000000  0.5822020000000 1.0
C      1  0.5062060000000  0.4196550000000  0.5239390000000 1.0
C      1  0.4720430000000  0.5203860000000  0.4998490000000 1.0
C      1  0.5119780000000  0.5737900000000  0.5359040000000 1.0
C      1  0.4888260000000  0.5388380000000  0.5684370000000 1.0
C      1  0.4959640000000  0.5321420000000  0.4477660000000 1.0
C      1  0.5861610000000  0.4812340000000  0.5332030000000 1.0
C      1  0.5250090000000  0.5208300000000  0.5305360000000 1.0
C      1  0.5237220000000  0.5723810000000  0.5085580000000 1.0
C      1  0.5167840000000  0.5829030000000  0.4807390000000 1.0
C      1  0.5917300000000  0.4736020000000  0.5064030000000 1.0
C      1  0.4789520000000  0.4247850000000  0.5328010000000 1.0
C      1  0.5192070000000  0.5289610000000  0.4280780000000 1.0
C      1  0.4580720000000  0.4704940000000  0.4367900000000 1.0
C      1  0.4910790000000  0.4565830000000  0.4949580000000 1.0
C      1  0.4428950000000  0.4391980000000  0.4704940000000 1.0
C      1  0.5409470000000  0.5428800000000  0.4383290000000 1.0
C      1  0.5496350000000  0.4355960000000  0.4849440000000 1.0
C      1  0.4568800000000  0.4262100000000  0.5146260000000 1.0
C      1  0.5375610000000  0.5273880000000  0.5573110000000 1.0
C      1  0.5131980000000  0.4681160000000  0.4825560000000 1.0
C      1  0.5143210000000  0.5400180000000  0.4721470000000 1.0
C      1  0.4818890000000  0.4662150000000  0.4217800000000 1.0
C      1  0.4366160000000  0.5024030000000  0.5264300000000 1.0
C      1  0.4385300000000  0.4525190000000  0.4453860000000 1.0
C      1  0.5394310000000  0.4558700000000  0.4401790000000 1.0
C      1  0.5743910000000  0.5354190000000  0.4693180000000 1.0
C      1  0.4501420000000  0.4859810000000  0.4830460000000 1.0
C      1  0.4347540000000  0.5200930000000  0.5513330000000 1.0
C      1  0.4164630000000  0.4716840000000  0.4567680000000 1.0
C      1  0.5151220000000  0.4837510000000  0.5493510000000 1.0
C      1  0.4199550000000  0.4599170000000  0.5105860000000 1.0
C      1  0.4925770000000  0.4576850000000  0.5686000000000 1.0
C      1  0.4607920000000  0.4223560000000  0.4848450000000 1.0
C      1  0.5514310000000  0.4929020000000  0.4896340000000 1.0
C      1  0.5215230000000  0.5010830000000  0.4199340000000 1.0
C      1  0.4376520000000  0.4439480000000  0.5264410000000 1.0
C      1  0.4741250000000  0.4422640000000  0.5545600000000 1.0
C      1  0.5413860000000  0.5294260000000  0.5079810000000 1.0
C      1  0.5066590000000  0.5571880000000  0.5804060000000 1.0
C      1  0.5338520000000  0.4746570000000  0.5034640000000 1.0
C      1  0.4423720000000  0.5489440000000  0.5487200000000 1.0
C      1  0.5661390000000  0.5129350000000  0.5081700000000 1.0
C      1  0.5163500000000  0.4371710000000  0.4359360000000 1.0
C      1  0.4354280000000  0.5022870000000  0.5724390000000 1.0
C      1  0.5183070000000  0.4930230000000  0.5213570000000 1.0
C      1  0.5347210000000  0.5612770000000  0.4638640000000 1.0
C      1  0.4518340000000  0.4593550000000  0.5487570000000 1.0
C      1  0.5222180000000  0.5050120000000  0.5716310000000 1.0
C      1  0.4864470000000  0.5760770000000  0.4851140000000 1.0
C      1  0.4216830000000  0.5221590000000  0.4551300000000 1.0
C      1  0.5707900000000  0.5619880000000  0.5287060000000 1.0
C      1  0.5021140000000  0.5518990000000  0.4967090000000 1.0
C      1  0.4292700000000  0.4630270000000  0.4829750000000 1.0
C      1  0.4504550000000  0.4800140000000  0.5729320000000 1.0
C      1  0.5420070000000  0.4831140000000  0.4291080000000 1.0
C      1  0.4919360000000  0.4997930000000  0.5004890000000 1.0
C      1  0.5867240000000  0.5171490000000  0.4872440000000 1.0
C      1  0.4688100000000  0.5434000000000  0.4484450000000 1.0
C      1  0.5930930000000  0.4887960000000  0.4823060000000 1.0
END
