TITL C-21828-6205-4 -35.9196295572693 125000 -347.622811449048 0 0 51 (C1) n - 1
REM
REM in /rds/project/t2_vol4/rds-t2-cs072/BORA/CARBON/from-Arr/AIRSS/Generating-Clusters/GAP-ML-2020/Only-C1/SD-CG/HFTN-CG
REM
REM
REM
REM
REM
REM ./C.cell (11c1c37f851c82e70ff6c80c92926a4b)
REM AIRSS Version 0.9.1 bugfix July 2018 build 013d7b7c2542+ Fri, 06 Jul 2018 19:26:36 +0100
REM compiler GCC version 9.3.0
REM options -cpp -mtune=generic -march=x86-64 -g -O0
REM seed 254822322 -1863848869 -1560196928 248266211 595993456 1417519193 1753778489 885884190 -1790322212 1564206640 -1887704148 294859176 -1515525192 446859853 1173791815 -558958938 333043494 -1634024932 1884461363 829385565 852935926 1127950454 -699133141 968222991 -382709537 -503174861 770008338 -194387219 1429754860 -1084748107 -983315610 1039955404 -1742572360
REM
CELL 1.54180   50.00000   50.00000   50.00000   90.00000   90.00000   90.00000
LATT -1
SFAC C  
C      1  0.5395810000000  0.4963080000000  0.4532800000000 1.0
C      1  0.5053020000000  0.4909260000000  0.5629310000000 1.0
C      1  0.5007510000000  0.4442870000000  0.5386770000000 1.0
C      1  0.4844840000000  0.5083910000000  0.4430910000000 1.0
C      1  0.5431300000000  0.4589960000000  0.5164360000000 1.0
C      1  0.4362250000000  0.4795410000000  0.5390620000000 1.0
C      1  0.4684340000000  0.5444720000000  0.4769990000000 1.0
C      1  0.5557260000000  0.4893720000000  0.4780170000000 1.0
C      1  0.4547240000000  0.4468810000000  0.5091300000000 1.0
C      1  0.4946500000000  0.4717920000000  0.5473580000000 1.0
C      1  0.5236650000000  0.5591380000000  0.4887090000000 1.0
C      1  0.4472170000000  0.4627460000000  0.4857160000000 1.0
C      1  0.4878920000000  0.5547920000000  0.5475060000000 1.0
C      1  0.4971850000000  0.4382300000000  0.4873400000000 1.0
C      1  0.4755220000000  0.5568240000000  0.5020330000000 1.0
C      1  0.5132100000000  0.4569900000000  0.4542250000000 1.0
C      1  0.5089050000000  0.4891450000000  0.5023280000000 1.0
C      1  0.4377430000000  0.5053100000000  0.5430310000000 1.0
C      1  0.4410330000000  0.4554680000000  0.5319220000000 1.0
C      1  0.5348140000000  0.5549850000000  0.5337980000000 1.0
C      1  0.4437800000000  0.5071470000000  0.4683770000000 1.0
C      1  0.5614200000000  0.5314730000000  0.5036180000000 1.0
C      1  0.5195830000000  0.4814060000000  0.4411490000000 1.0
C      1  0.4439850000000  0.5342690000000  0.4706550000000 1.0
C      1  0.5501410000000  0.5126000000000  0.5226950000000 1.0
C      1  0.4864890000000  0.4504420000000  0.4629910000000 1.0
C      1  0.5361010000000  0.5275370000000  0.5431080000000 1.0
C      1  0.5407910000000  0.5245750000000  0.4598070000000 1.0
C      1  0.5266070000000  0.4458440000000  0.5322380000000 1.0
C      1  0.5243730000000  0.4438450000000  0.4776220000000 1.0
C      1  0.4922780000000  0.5278840000000  0.4663920000000 1.0
C      1  0.5091260000000  0.5673190000000  0.5329270000000 1.0
C      1  0.5460960000000  0.5552310000000  0.5065030000000 1.0
C      1  0.5012900000000  0.4969700000000  0.4249560000000 1.0
C      1  0.4968920000000  0.5394090000000  0.5683660000000 1.0
C      1  0.4424610000000  0.4903410000000  0.4918650000000 1.0
C      1  0.5684590000000  0.4641210000000  0.4770100000000 1.0
C      1  0.4904330000000  0.5056970000000  0.4895770000000 1.0
C      1  0.5013130000000  0.5679210000000  0.5049140000000 1.0
C      1  0.4669900000000  0.5466570000000  0.5279430000000 1.0
C      1  0.5133480000000  0.5174270000000  0.5606030000000 1.0
C      1  0.4552690000000  0.5201460000000  0.5272530000000 1.0
C      1  0.5394320000000  0.4887840000000  0.5077950000000 1.0
C      1  0.4634840000000  0.4658070000000  0.4627860000000 1.0
C      1  0.5186450000000  0.5407600000000  0.4671950000000 1.0
C      1  0.5494520000000  0.4472280000000  0.4901420000000 1.0
C      1  0.4838930000000  0.4451060000000  0.5119260000000 1.0
C      1  0.4872230000000  0.4772900000000  0.5187300000000 1.0
C      1  0.5620350000000  0.5194470000000  0.4787230000000 1.0
C      1  0.4667010000000  0.4998810000000  0.5084370000000 1.0
C      1  0.4617150000000  0.4928420000000  0.4521090000000 1.0
END
