TITL C-216158-3532-6 162.502290447061 125000 -462.190170166848 0 0 68 (C1) n - 1
REM
REM in /rds/project/t2_vol4/rds-t2-cs072/BORA/CARBON/from-Arr/AIRSS/Generating-Clusters/GAP-ML-2020/Only-C1/SD-CG/HFTN-CG
REM
REM
REM
REM
REM
REM ./C.cell (11c1c37f851c82e70ff6c80c92926a4b)
REM AIRSS Version 0.9.1 bugfix July 2018 build 013d7b7c2542+ Fri, 06 Jul 2018 19:26:36 +0100
REM compiler GCC version 9.3.0
REM options -cpp -mtune=generic -march=x86-64 -g -O0
REM seed 1559796470 -1454044923 -262993971 -1450120482 392468073 940108548 841191183 453142207 -859556528 1430281895 -1459960212 2048544695 1014987409 1533904034 -115760696 -758673953 -1158303018 -1592930294 -302606501 -911376835 -1111086834 -711335369 1904087954 1430075387 -1269121548 -801785767 2074487240 1783957893 1866898068 -2118226547 1248196451 988648767 -290670214
REM
CELL 1.54180   50.00000   50.00000   50.00000   90.00000   90.00000   90.00000
LATT -1
SFAC C  
C      1  0.5092610000000  0.4813340000000  0.4941360000000 1.0
C      1  0.5322270000000  0.5451260000000  0.5275540000000 1.0
C      1  0.5211700000000  0.4391310000000  0.5557690000000 1.0
C      1  0.4825090000000  0.5533780000000  0.5448700000000 1.0
C      1  0.5475550000000  0.4555570000000  0.4755620000000 1.0
C      1  0.5255970000000  0.5058860000000  0.4210650000000 1.0
C      1  0.5739720000000  0.5443630000000  0.5064770000000 1.0
C      1  0.4786320000000  0.5260310000000  0.4211900000000 1.0
C      1  0.5512480000000  0.5254200000000  0.5399560000000 1.0
C      1  0.5691550000000  0.5189290000000  0.5184480000000 1.0
C      1  0.5420210000000  0.4580800000000  0.5494480000000 1.0
C      1  0.4781420000000  0.5246290000000  0.4677010000000 1.0
C      1  0.4975470000000  0.5808260000000  0.5072820000000 1.0
C      1  0.5335550000000  0.5108150000000  0.4631200000000 1.0
C      1  0.4679220000000  0.4755300000000  0.4696500000000 1.0
C      1  0.5362720000000  0.4914340000000  0.4414560000000 1.0
C      1  0.4390470000000  0.5127110000000  0.5011790000000 1.0
C      1  0.4254920000000  0.4861770000000  0.5023430000000 1.0
C      1  0.4630020000000  0.5152600000000  0.4414200000000 1.0
C      1  0.5460280000000  0.5617800000000  0.4813720000000 1.0
C      1  0.4675070000000  0.5013850000000  0.4864880000000 1.0
C      1  0.5685880000000  0.5429810000000  0.4783330000000 1.0
C      1  0.5611590000000  0.4992410000000  0.4976650000000 1.0
C      1  0.5508120000000  0.4530770000000  0.5214120000000 1.0
C      1  0.5071990000000  0.4797740000000  0.5731550000000 1.0
C      1  0.4540330000000  0.4851760000000  0.5522280000000 1.0
C      1  0.5070600000000  0.4311980000000  0.4678730000000 1.0
C      1  0.4945570000000  0.5235860000000  0.5123660000000 1.0
C      1  0.5387000000000  0.5107200000000  0.5604540000000 1.0
C      1  0.5054280000000  0.5239930000000  0.4278680000000 1.0
C      1  0.5196500000000  0.5303900000000  0.5024920000000 1.0
C      1  0.4347030000000  0.5166860000000  0.4525300000000 1.0
C      1  0.4933030000000  0.5049130000000  0.5710550000000 1.0
C      1  0.5603300000000  0.4688070000000  0.4985770000000 1.0
C      1  0.4864510000000  0.4974460000000  0.5082380000000 1.0
C      1  0.4775950000000  0.5682530000000  0.5209090000000 1.0
C      1  0.4814110000000  0.4207790000000  0.4723160000000 1.0
C      1  0.5101080000000  0.4545950000000  0.4519940000000 1.0
C      1  0.4962610000000  0.4711460000000  0.4697510000000 1.0
C      1  0.4982280000000  0.4549190000000  0.5637450000000 1.0
C      1  0.4671890000000  0.5077740000000  0.5599980000000 1.0
C      1  0.5033180000000  0.5751260000000  0.4830230000000 1.0
C      1  0.5095010000000  0.4309590000000  0.5312460000000 1.0
C      1  0.5088280000000  0.5297820000000  0.4584530000000 1.0
C      1  0.4279870000000  0.4889530000000  0.4527600000000 1.0
C      1  0.5617560000000  0.5166230000000  0.4724150000000 1.0
C      1  0.5308330000000  0.4328390000000  0.4842100000000 1.0
C      1  0.4620850000000  0.5327600000000  0.5462280000000 1.0
C      1  0.5296250000000  0.5038130000000  0.4918320000000 1.0
C      1  0.5188670000000  0.5524580000000  0.4762510000000 1.0
C      1  0.4415200000000  0.4641720000000  0.5128730000000 1.0
C      1  0.4481200000000  0.4554910000000  0.4841220000000 1.0
C      1  0.4573770000000  0.4283620000000  0.4768110000000 1.0
C      1  0.4575510000000  0.5544840000000  0.5063350000000 1.0
C      1  0.5134180000000  0.5243710000000  0.5656020000000 1.0
C      1  0.4473930000000  0.5329470000000  0.5215260000000 1.0
C      1  0.4243470000000  0.4743300000000  0.4762150000000 1.0
C      1  0.4587700000000  0.5461980000000  0.4792520000000 1.0
C      1  0.5369160000000  0.4643710000000  0.4504130000000 1.0
C      1  0.4566760000000  0.4626110000000  0.5365050000000 1.0
C      1  0.5312680000000  0.4328220000000  0.5121910000000 1.0
C      1  0.4342270000000  0.5298910000000  0.4768140000000 1.0
C      1  0.5099490000000  0.5474200000000  0.5501030000000 1.0
C      1  0.4555890000000  0.4855220000000  0.4447590000000 1.0
C      1  0.4868730000000  0.4543960000000  0.5351100000000 1.0
C      1  0.5345240000000  0.4824810000000  0.5640750000000 1.0
C      1  0.5007590000000  0.4761040000000  0.5205920000000 1.0
C      1  0.5513000000000  0.5614780000000  0.5108420000000 1.0
END
