TITL C-211907-516-7 34.586254774982 125000 -342.218171206777 0 0 50 (C1) n - 1
REM
REM in /rds/project/t2_vol4/rds-t2-cs072/BORA/CARBON/from-Arr/AIRSS/Generating-Clusters/GAP-ML-2020/Only-C1/SD-CG/HFTN-CG
REM
REM
REM
REM
REM
REM ./C.cell (11c1c37f851c82e70ff6c80c92926a4b)
REM AIRSS Version 0.9.1 bugfix July 2018 build 013d7b7c2542+ Fri, 06 Jul 2018 19:26:36 +0100
REM compiler GCC version 9.3.0
REM options -cpp -mtune=generic -march=x86-64 -g -O0
REM seed -839223498 161305637 -1311976898 1170064 -1899308301 1955925530 1844924150 1185006531 422353420 -94525639 567754988 -838687676 407127403 526614892 626316864 864296716 -1370764633 692844401 -1921417428 1680093363 -683703603 -2099907720 2132586856 849227258 2094704374 1362612320 -1508538422 932691073 1958371185 -872291817 -1294020408 1862908132 509102365
REM
CELL 1.54180   50.00000   50.00000   50.00000   90.00000   90.00000   90.00000
LATT -1
SFAC C  
C      1  0.4421920000000  0.4991990000000  0.4732440000000 1.0
C      1  0.4927870000000  0.5632860000000  0.5408990000000 1.0
C      1  0.4386090000000  0.5217850000000  0.5167140000000 1.0
C      1  0.5087490000000  0.4843880000000  0.4543760000000 1.0
C      1  0.5318080000000  0.4463800000000  0.4804290000000 1.0
C      1  0.5368750000000  0.4772560000000  0.4445930000000 1.0
C      1  0.5720960000000  0.4697860000000  0.4769810000000 1.0
C      1  0.5203280000000  0.5554470000000  0.5357530000000 1.0
C      1  0.5050390000000  0.4931830000000  0.5240120000000 1.0
C      1  0.5062580000000  0.5128220000000  0.5449840000000 1.0
C      1  0.5512710000000  0.4587350000000  0.4618280000000 1.0
C      1  0.5118430000000  0.5595620000000  0.4591470000000 1.0
C      1  0.4647510000000  0.5583840000000  0.5027080000000 1.0
C      1  0.4437080000000  0.4971340000000  0.5298940000000 1.0
C      1  0.4630990000000  0.5038030000000  0.4536420000000 1.0
C      1  0.5441330000000  0.4661490000000  0.5259850000000 1.0
C      1  0.4470360000000  0.4729780000000  0.5144400000000 1.0
C      1  0.5107560000000  0.4417720000000  0.5227720000000 1.0
C      1  0.4717240000000  0.5449680000000  0.5471930000000 1.0
C      1  0.4840680000000  0.4413980000000  0.4834990000000 1.0
C      1  0.5519810000000  0.5155120000000  0.5337200000000 1.0
C      1  0.5193940000000  0.4762590000000  0.4807580000000 1.0
C      1  0.5168630000000  0.4666190000000  0.5384300000000 1.0
C      1  0.4886670000000  0.5711640000000  0.5130250000000 1.0
C      1  0.4800540000000  0.5189520000000  0.5547490000000 1.0
C      1  0.5213630000000  0.4976970000000  0.5006060000000 1.0
C      1  0.5280570000000  0.5210400000000  0.4821260000000 1.0
C      1  0.4722560000000  0.5309380000000  0.4560720000000 1.0
C      1  0.5444690000000  0.5058140000000  0.4465570000000 1.0
C      1  0.5662860000000  0.4931550000000  0.4897930000000 1.0
C      1  0.4991540000000  0.4656750000000  0.5606550000000 1.0
C      1  0.5514620000000  0.4931840000000  0.5160110000000 1.0
C      1  0.5163150000000  0.5640640000000  0.5076040000000 1.0
C      1  0.5299070000000  0.5295840000000  0.5426640000000 1.0
C      1  0.4465960000000  0.4741000000000  0.4860490000000 1.0
C      1  0.4623800000000  0.4964050000000  0.5514000000000 1.0
C      1  0.4738920000000  0.4699320000000  0.5516760000000 1.0
C      1  0.4681650000000  0.4616380000000  0.4718640000000 1.0
C      1  0.4799760000000  0.4803910000000  0.4532520000000 1.0
C      1  0.5216970000000  0.5503630000000  0.4836740000000 1.0
C      1  0.4581370000000  0.5426460000000  0.4790290000000 1.0
C      1  0.4388170000000  0.5224760000000  0.4882240000000 1.0
C      1  0.5075900000000  0.4354020000000  0.4705780000000 1.0
C      1  0.4525770000000  0.5452840000000  0.5256500000000 1.0
C      1  0.5545260000000  0.5125800000000  0.4725450000000 1.0
C      1  0.5359280000000  0.4440110000000  0.5092020000000 1.0
C      1  0.5165680000000  0.5136640000000  0.4533390000000 1.0
C      1  0.4994100000000  0.5361950000000  0.4478980000000 1.0
C      1  0.4655480000000  0.4560360000000  0.5274110000000 1.0
C      1  0.4848310000000  0.4408010000000  0.5123430000000 1.0
END
