TITL C-21901-2290-6 -0.214743934078301 125000 -403.757601123399 0 0 59 (C1) n - 1
REM
REM in /rds/project/t2_vol4/rds-t2-cs072/BORA/CARBON/from-Arr/AIRSS/Generating-Clusters/GAP-ML-2020/Only-C1/SD-CG/HFTN-CG
REM
REM
REM
REM
REM
REM ./C.cell (11c1c37f851c82e70ff6c80c92926a4b)
REM AIRSS Version 0.9.1 bugfix July 2018 build 013d7b7c2542+ Fri, 06 Jul 2018 19:26:36 +0100
REM compiler GCC version 9.3.0
REM options -cpp -mtune=generic -march=x86-64 -g -O0
REM seed 508901059 -236064908 916465218 1911096601 -486575940 -1341854443 -1334371434 1737473032 -137803467 1590106597 -1402267581 1215359950 -1560203274 1990874996 -1970926199 -153114600 801229611 -1318785340 -235907145 -1839238053 594101245 -1395668330 -903418018 1680639289 -753146184 1616476371 1901015910 -1371127687 -1693575753 1447345328 -1184078884 -263257698 -1575648101
REM
CELL 1.54180   50.00000   50.00000   50.00000   90.00000   90.00000   90.00000
LATT -1
SFAC C  
C      1  0.4303960000000  0.5066750000000  0.4687040000000 1.0
C      1  0.5714550000000  0.4885730000000  0.5312770000000 1.0
C      1  0.4944070000000  0.5366340000000  0.5589780000000 1.0
C      1  0.4600680000000  0.5367630000000  0.4479290000000 1.0
C      1  0.5723530000000  0.4603720000000  0.5295500000000 1.0
C      1  0.5242470000000  0.4579950000000  0.4759200000000 1.0
C      1  0.5151840000000  0.5015910000000  0.4437560000000 1.0
C      1  0.4821470000000  0.4842260000000  0.5623520000000 1.0
C      1  0.4414090000000  0.4667760000000  0.4988880000000 1.0
C      1  0.4974090000000  0.5600340000000  0.5111260000000 1.0
C      1  0.4853730000000  0.5586020000000  0.4664670000000 1.0
C      1  0.4794430000000  0.5014490000000  0.5149570000000 1.0
C      1  0.5425070000000  0.5440320000000  0.5088320000000 1.0
C      1  0.5913610000000  0.4942390000000  0.4853640000000 1.0
C      1  0.5861180000000  0.4861520000000  0.4608790000000 1.0
C      1  0.4744340000000  0.5582440000000  0.4935370000000 1.0
C      1  0.4407480000000  0.5332370000000  0.4696660000000 1.0
C      1  0.5770190000000  0.5042800000000  0.5068450000000 1.0
C      1  0.4733350000000  0.4980180000000  0.4859950000000 1.0
C      1  0.4712950000000  0.5616630000000  0.4432000000000 1.0
C      1  0.5090950000000  0.4914680000000  0.5694830000000 1.0
C      1  0.5347700000000  0.4820150000000  0.4597300000000 1.0
C      1  0.5554730000000  0.5215150000000  0.4975390000000 1.0
C      1  0.5151920000000  0.5195350000000  0.5682740000000 1.0
C      1  0.5251660000000  0.4942960000000  0.5048660000000 1.0
C      1  0.5206610000000  0.5552580000000  0.4949380000000 1.0
C      1  0.5030780000000  0.4552680000000  0.5253440000000 1.0
C      1  0.5624120000000  0.4812010000000  0.4514040000000 1.0
C      1  0.5059710000000  0.5525860000000  0.5377650000000 1.0
C      1  0.5127010000000  0.5487870000000  0.4686760000000 1.0
C      1  0.4478470000000  0.5458170000000  0.4942910000000 1.0
C      1  0.4804030000000  0.4668800000000  0.4373320000000 1.0
C      1  0.4953100000000  0.4455810000000  0.4423200000000 1.0
C      1  0.5511650000000  0.4980910000000  0.5497200000000 1.0
C      1  0.4439730000000  0.4938770000000  0.4474660000000 1.0
C      1  0.4686370000000  0.5223980000000  0.5580940000000 1.0
C      1  0.4650190000000  0.5010320000000  0.5751490000000 1.0
C      1  0.4827840000000  0.4381770000000  0.5109740000000 1.0
C      1  0.5261750000000  0.4646530000000  0.5039670000000 1.0
C      1  0.5066640000000  0.5072880000000  0.5204330000000 1.0
C      1  0.4265350000000  0.4920210000000  0.4939980000000 1.0
C      1  0.5395580000000  0.5236120000000  0.5541710000000 1.0
C      1  0.5213130000000  0.5234600000000  0.4606930000000 1.0
C      1  0.4653440000000  0.5102670000000  0.4383120000000 1.0
C      1  0.5266310000000  0.4541360000000  0.5436540000000 1.0
C      1  0.4894640000000  0.4944740000000  0.4347370000000 1.0
C      1  0.5306850000000  0.4782930000000  0.5580050000000 1.0
C      1  0.4536740000000  0.4682520000000  0.4498660000000 1.0
C      1  0.4796090000000  0.4740110000000  0.5329520000000 1.0
C      1  0.4171420000000  0.5113160000000  0.5110210000000 1.0
C      1  0.4890880000000  0.4248720000000  0.4878590000000 1.0
C      1  0.4372660000000  0.5299260000000  0.5166940000000 1.0
C      1  0.5042460000000  0.4396420000000  0.4678540000000 1.0
C      1  0.5359290000000  0.5069840000000  0.4804780000000 1.0
C      1  0.4599830000000  0.4702570000000  0.4778000000000 1.0
C      1  0.4587120000000  0.5197710000000  0.5318010000000 1.0
C      1  0.5473360000000  0.4525090000000  0.5238920000000 1.0
C      1  0.4601850000000  0.4561200000000  0.5180100000000 1.0
C      1  0.5340930000000  0.5448000000000  0.5362170000000 1.0
END
