TITL C-21071-1311-5 0.143989043153593 125000 -870.462170848867 0 0 123 (C1) n - 1
REM
REM in /rds/project/t2_vol4/rds-t2-cs072/BORA/CARBON/from-Arr/AIRSS/Generating-Clusters/GAP-ML-2020/Only-C1/SD-CG/HFTN-CG
REM
REM
REM
REM
REM
REM ./C.cell (11c1c37f851c82e70ff6c80c92926a4b)
REM AIRSS Version 0.9.1 bugfix July 2018 build 013d7b7c2542+ Fri, 06 Jul 2018 19:26:36 +0100
REM compiler GCC version 9.3.0
REM options -cpp -mtune=generic -march=x86-64 -g -O0
REM seed -99699160 1174207379 -1884844388 -512531652 1707060682 1678892381 1675049081 1773988458 -1669485783 1236061278 -1599538266 1314256286 -352920545 568590241 -1528082915 -1114787729 1546157200 -1396970364 362516225 577892301 -1934071908 -1010428165 -845550775 -1535527756 -1403955360 118075142 -1924531579 88899792 -1840058568 1804169969 -724860527 86553910 1732070073
REM
CELL 1.54180   50.00000   50.00000   50.00000   90.00000   90.00000   90.00000
LATT -1
SFAC C  
C      1  0.5615150000000  0.4091730000000  0.4825610000000 1.0
C      1  0.5208520000000  0.5174170000000  0.4106850000000 1.0
C      1  0.5202960000000  0.4766840000000  0.5378380000000 1.0
C      1  0.4816300000000  0.5222370000000  0.5439050000000 1.0
C      1  0.4814990000000  0.5418160000000  0.5010270000000 1.0
C      1  0.5716750000000  0.4591970000000  0.4743000000000 1.0
C      1  0.4789610000000  0.4701680000000  0.5564690000000 1.0
C      1  0.5440900000000  0.5184550000000  0.5814930000000 1.0
C      1  0.5357850000000  0.5408330000000  0.4214380000000 1.0
C      1  0.4859220000000  0.4232860000000  0.4877990000000 1.0
C      1  0.5929210000000  0.4838240000000  0.4786020000000 1.0
C      1  0.5876550000000  0.4932030000000  0.5251750000000 1.0
C      1  0.4500400000000  0.4195280000000  0.5288530000000 1.0
C      1  0.4749310000000  0.5371040000000  0.4148770000000 1.0
C      1  0.5528780000000  0.4538590000000  0.5626090000000 1.0
C      1  0.5114160000000  0.4960540000000  0.5175940000000 1.0
C      1  0.5128770000000  0.5722960000000  0.5402950000000 1.0
C      1  0.5155490000000  0.4174070000000  0.4574750000000 1.0
C      1  0.5616990000000  0.4302380000000  0.4651470000000 1.0
C      1  0.5029890000000  0.4790880000000  0.4593390000000 1.0
C      1  0.4284650000000  0.4879090000000  0.4374070000000 1.0
C      1  0.5437220000000  0.5741500000000  0.4584290000000 1.0
C      1  0.5555360000000  0.5732490000000  0.5036300000000 1.0
C      1  0.5587020000000  0.5240550000000  0.4286750000000 1.0
C      1  0.5894420000000  0.5301080000000  0.4973250000000 1.0
C      1  0.5123270000000  0.4336380000000  0.5565670000000 1.0
C      1  0.5042920000000  0.4839500000000  0.5626490000000 1.0
C      1  0.5699760000000  0.4705230000000  0.5269020000000 1.0
C      1  0.5379200000000  0.5060800000000  0.4859540000000 1.0
C      1  0.5784460000000  0.5235260000000  0.4494650000000 1.0
C      1  0.5635300000000  0.5639130000000  0.4770680000000 1.0
C      1  0.4780420000000  0.5619410000000  0.4298150000000 1.0
C      1  0.4339730000000  0.5268110000000  0.5449290000000 1.0
C      1  0.4784810000000  0.5925220000000  0.4804900000000 1.0
C      1  0.5141700000000  0.4104430000000  0.4856820000000 1.0
C      1  0.4674340000000  0.5802390000000  0.5278950000000 1.0
C      1  0.4944410000000  0.4500970000000  0.5016460000000 1.0
C      1  0.5533600000000  0.5092390000000  0.5542290000000 1.0
C      1  0.5706210000000  0.4737980000000  0.4470420000000 1.0
C      1  0.5291070000000  0.4488140000000  0.5755500000000 1.0
C      1  0.5509360000000  0.4744920000000  0.4272810000000 1.0
C      1  0.4635360000000  0.5174800000000  0.5032750000000 1.0
C      1  0.4657560000000  0.4234400000000  0.5534710000000 1.0
C      1  0.5013760000000  0.5158090000000  0.6010730000000 1.0
C      1  0.4379930000000  0.5428160000000  0.4430620000000 1.0
C      1  0.4786600000000  0.5527240000000  0.5726940000000 1.0
C      1  0.5076100000000  0.4653940000000  0.4318740000000 1.0
C      1  0.5054530000000  0.5155690000000  0.5577120000000 1.0
C      1  0.5219330000000  0.5048830000000  0.4621550000000 1.0
C      1  0.4380270000000  0.5360800000000  0.5169480000000 1.0
C      1  0.4920660000000  0.5140790000000  0.4085410000000 1.0
C      1  0.5392220000000  0.4304820000000  0.4466800000000 1.0
C      1  0.4986960000000  0.5212230000000  0.4663250000000 1.0
C      1  0.5053920000000  0.5365790000000  0.4894080000000 1.0
C      1  0.5493640000000  0.4801380000000  0.5471550000000 1.0
C      1  0.4548190000000  0.5089090000000  0.5850820000000 1.0
C      1  0.4491190000000  0.5276890000000  0.4216530000000 1.0
C      1  0.5958270000000  0.5018200000000  0.4994960000000 1.0
C      1  0.5779450000000  0.5157080000000  0.5394080000000 1.0
C      1  0.5858750000000  0.4964940000000  0.4541720000000 1.0
C      1  0.4597280000000  0.4906370000000  0.4862990000000 1.0
C      1  0.5319020000000  0.5441100000000  0.5766410000000 1.0
C      1  0.4756900000000  0.4400850000000  0.4327880000000 1.0
C      1  0.5389520000000  0.4134220000000  0.4999790000000 1.0
C      1  0.5548770000000  0.4624340000000  0.5015220000000 1.0
C      1  0.5633320000000  0.4432880000000  0.5392000000000 1.0
C      1  0.4255600000000  0.4343260000000  0.5302230000000 1.0
C      1  0.5353720000000  0.5539670000000  0.5471470000000 1.0
C      1  0.4183040000000  0.4432790000000  0.5044490000000 1.0
C      1  0.5264820000000  0.5912870000000  0.4727820000000 1.0
C      1  0.4794000000000  0.4982080000000  0.4655990000000 1.0
C      1  0.4231750000000  0.5303440000000  0.4642530000000 1.0
C      1  0.4705770000000  0.4672330000000  0.5050190000000 1.0
C      1  0.4578410000000  0.4169810000000  0.4999620000000 1.0
C      1  0.5296140000000  0.5241070000000  0.5389140000000 1.0
C      1  0.4363150000000  0.5698330000000  0.4906650000000 1.0
C      1  0.5286730000000  0.5645390000000  0.4354220000000 1.0
C      1  0.5108170000000  0.4651830000000  0.4830760000000 1.0
C      1  0.5243150000000  0.5214820000000  0.5075220000000 1.0
C      1  0.4195410000000  0.4551320000000  0.5488150000000 1.0
C      1  0.4701620000000  0.4772730000000  0.5306470000000 1.0
C      1  0.5269960000000  0.5000630000000  0.5960950000000 1.0
C      1  0.4479540000000  0.4400050000000  0.4363800000000 1.0
C      1  0.4849630000000  0.5691440000000  0.5494060000000 1.0
C      1  0.5112950000000  0.5895050000000  0.5177470000000 1.0
C      1  0.4131490000000  0.4791280000000  0.5341180000000 1.0
C      1  0.4845490000000  0.5926140000000  0.5085630000000 1.0
C      1  0.4888190000000  0.4256300000000  0.4550140000000 1.0
C      1  0.5788740000000  0.5386410000000  0.5229220000000 1.0
C      1  0.4552350000000  0.5650240000000  0.4470480000000 1.0
C      1  0.5037370000000  0.5377220000000  0.5815920000000 1.0
C      1  0.4808490000000  0.5023490000000  0.5231090000000 1.0
C      1  0.4472910000000  0.4998230000000  0.4189080000000 1.0
C      1  0.4347380000000  0.4904890000000  0.5747030000000 1.0
C      1  0.5327540000000  0.5902650000000  0.5000940000000 1.0
C      1  0.4843060000000  0.4634470000000  0.4171800000000 1.0
C      1  0.5329590000000  0.4529160000000  0.4306230000000 1.0
C      1  0.4855480000000  0.5475040000000  0.5297570000000 1.0
C      1  0.5163580000000  0.4480870000000  0.5286990000000 1.0
C      1  0.4223160000000  0.5016350000000  0.5512010000000 1.0
C      1  0.4205520000000  0.5021490000000  0.4612140000000 1.0
C      1  0.4586480000000  0.5298500000000  0.5639740000000 1.0
C      1  0.4545220000000  0.5798640000000  0.4712220000000 1.0
C      1  0.5195460000000  0.4744780000000  0.5859820000000 1.0
C      1  0.4143050000000  0.4720950000000  0.5055890000000 1.0
C      1  0.4243340000000  0.5435930000000  0.4894040000000 1.0
C      1  0.4763510000000  0.5061190000000  0.6021440000000 1.0
C      1  0.4615510000000  0.4495640000000  0.5673070000000 1.0
C      1  0.4347720000000  0.4291980000000  0.4857140000000 1.0
C      1  0.5428620000000  0.4375460000000  0.5178050000000 1.0
C      1  0.5016450000000  0.5747040000000  0.4385400000000 1.0
C      1  0.4292910000000  0.4598130000000  0.4410810000000 1.0
C      1  0.4444210000000  0.5670970000000  0.5177350000000 1.0
C      1  0.5596830000000  0.5590970000000  0.5278560000000 1.0
C      1  0.5446330000000  0.5007760000000  0.4178470000000 1.0
C      1  0.4357880000000  0.4615020000000  0.5709910000000 1.0
C      1  0.5307380000000  0.4801080000000  0.4962430000000 1.0
C      1  0.4740390000000  0.4901010000000  0.4111030000000 1.0
C      1  0.4918120000000  0.4158250000000  0.5590790000000 1.0
C      1  0.5802870000000  0.5412110000000  0.4728980000000 1.0
C      1  0.5003540000000  0.5908300000000  0.4623600000000 1.0
C      1  0.4275470000000  0.4872870000000  0.4844650000000 1.0
C      1  0.4322260000000  0.4373720000000  0.4590710000000 1.0
END
