TITL C-21800-2004-4 -0.26454718698303 125000 -932.268891134351 0 0 131 (C1) n - 1
REM
REM in /rds/project/t2_vol4/rds-t2-cs072/BORA/CARBON/from-Arr/AIRSS/Generating-Clusters/GAP-ML-2020/Only-C1/SD-CG/HFTN-CG
REM
REM
REM
REM
REM
REM ./C.cell (11c1c37f851c82e70ff6c80c92926a4b)
REM AIRSS Version 0.9.1 bugfix July 2018 build 013d7b7c2542+ Fri, 06 Jul 2018 19:26:36 +0100
REM compiler GCC version 9.3.0
REM options -cpp -mtune=generic -march=x86-64 -g -O0
REM seed 1730722453 2122490143 -121657327 1457798746 1948527168 452847197 -1631712630 49397685 977412553 -1006635100 -1298147678 1911120149 1875010721 -606799395 262032452 1999920625 667552356 58343358 -819253468 -1235559837 -1920290524 554017432 1932890234 -1727369658 -1240959182 -1704635995 131280145 -2059818905 1273963408 -1299453996 -1573774764 -535023608 518158132
REM
CELL 1.54180   50.00000   50.00000   50.00000   90.00000   90.00000   90.00000
LATT -1
SFAC C  
C      1  0.4413470000000  0.4788430000000  0.5865090000000 1.0
C      1  0.5627070000000  0.5444500000000  0.4802720000000 1.0
C      1  0.5465520000000  0.4829100000000  0.4266530000000 1.0
C      1  0.5163620000000  0.5251560000000  0.4197930000000 1.0
C      1  0.4972930000000  0.5374840000000  0.5185390000000 1.0
C      1  0.5491580000000  0.4956380000000  0.4964940000000 1.0
C      1  0.5352850000000  0.4240460000000  0.4706010000000 1.0
C      1  0.5045730000000  0.5690430000000  0.5237720000000 1.0
C      1  0.5609420000000  0.5902230000000  0.5120850000000 1.0
C      1  0.4417800000000  0.5384900000000  0.5638780000000 1.0
C      1  0.5602210000000  0.4469850000000  0.5827740000000 1.0
C      1  0.5266860000000  0.4676350000000  0.5341770000000 1.0
C      1  0.4730450000000  0.5209760000000  0.4755410000000 1.0
C      1  0.5305610000000  0.4932340000000  0.5176150000000 1.0
C      1  0.5034060000000  0.4991290000000  0.5541120000000 1.0
C      1  0.5444960000000  0.5325150000000  0.4213020000000 1.0
C      1  0.5642310000000  0.4744270000000  0.5773410000000 1.0
C      1  0.4233670000000  0.4780810000000  0.5637340000000 1.0
C      1  0.4854580000000  0.4238410000000  0.4476250000000 1.0
C      1  0.4129210000000  0.4575740000000  0.5236440000000 1.0
C      1  0.5591570000000  0.5705660000000  0.5312480000000 1.0
C      1  0.4117020000000  0.4987330000000  0.5476370000000 1.0
C      1  0.5849460000000  0.5406500000000  0.5000690000000 1.0
C      1  0.5567350000000  0.4317890000000  0.4886350000000 1.0
C      1  0.4919580000000  0.5881380000000  0.5063090000000 1.0
C      1  0.5597930000000  0.5937470000000  0.4845400000000 1.0
C      1  0.5116040000000  0.5088270000000  0.4430170000000 1.0
C      1  0.5765780000000  0.4518920000000  0.4849350000000 1.0
C      1  0.5874640000000  0.4665640000000  0.5080950000000 1.0
C      1  0.5769470000000  0.5473570000000  0.5263100000000 1.0
C      1  0.4574850000000  0.4659990000000  0.4679830000000 1.0
C      1  0.5780850000000  0.5849390000000  0.4647130000000 1.0
C      1  0.5521000000000  0.4442000000000  0.5352770000000 1.0
C      1  0.4207900000000  0.5259660000000  0.5469010000000 1.0
C      1  0.5995220000000  0.5088270000000  0.4663700000000 1.0
C      1  0.4644040000000  0.4074630000000  0.5186400000000 1.0
C      1  0.4496590000000  0.5122200000000  0.4885480000000 1.0
C      1  0.4565460000000  0.4538020000000  0.5866870000000 1.0
C      1  0.5855940000000  0.5023550000000  0.5394730000000 1.0
C      1  0.4506080000000  0.4433800000000  0.4141920000000 1.0
C      1  0.4882090000000  0.5910470000000  0.4579540000000 1.0
C      1  0.4723440000000  0.5316080000000  0.5312390000000 1.0
C      1  0.4611110000000  0.5823830000000  0.4583390000000 1.0
C      1  0.5187740000000  0.5162780000000  0.5340350000000 1.0
C      1  0.5316180000000  0.5850030000000  0.4733890000000 1.0
C      1  0.5215940000000  0.4903970000000  0.4871830000000 1.0
C      1  0.5986140000000  0.5161690000000  0.4938430000000 1.0
C      1  0.4632940000000  0.5871910000000  0.5071220000000 1.0
C      1  0.4359810000000  0.5400560000000  0.4445170000000 1.0
C      1  0.5471740000000  0.4335630000000  0.5632690000000 1.0
C      1  0.4633590000000  0.4676840000000  0.4970310000000 1.0
C      1  0.5155160000000  0.5399160000000  0.4767220000000 1.0
C      1  0.5533330000000  0.5162710000000  0.4766340000000 1.0
C      1  0.5200400000000  0.4771110000000  0.5637550000000 1.0
C      1  0.5287950000000  0.5750480000000  0.4436170000000 1.0
C      1  0.4533290000000  0.4425720000000  0.5563610000000 1.0
C      1  0.4491980000000  0.5735120000000  0.5277780000000 1.0
C      1  0.4502780000000  0.5033130000000  0.5960170000000 1.0
C      1  0.4705870000000  0.5112270000000  0.4224030000000 1.0
C      1  0.5011770000000  0.5767880000000  0.4371300000000 1.0
C      1  0.5014180000000  0.4510380000000  0.5712570000000 1.0
C      1  0.4218190000000  0.5435550000000  0.4707790000000 1.0
C      1  0.5328410000000  0.4386080000000  0.4460440000000 1.0
C      1  0.4864920000000  0.5592140000000  0.5647720000000 1.0
C      1  0.4179170000000  0.4486070000000  0.4961820000000 1.0
C      1  0.5381380000000  0.5607560000000  0.5492520000000 1.0
C      1  0.5037670000000  0.4706070000000  0.4789780000000 1.0
C      1  0.4913640000000  0.5369870000000  0.4892250000000 1.0
C      1  0.4861010000000  0.4128900000000  0.4744790000000 1.0
C      1  0.4415410000000  0.5151730000000  0.4303890000000 1.0
C      1  0.4900130000000  0.4595460000000  0.5007170000000 1.0
C      1  0.5237640000000  0.4104620000000  0.5130450000000 1.0
C      1  0.5606790000000  0.5085510000000  0.4260630000000 1.0
C      1  0.4808760000000  0.4585130000000  0.5487220000000 1.0
C      1  0.4589450000000  0.4931430000000  0.5067060000000 1.0
C      1  0.4266440000000  0.5619950000000  0.5148660000000 1.0
C      1  0.4601270000000  0.4160570000000  0.5459540000000 1.0
C      1  0.5476680000000  0.4252110000000  0.5141280000000 1.0
C      1  0.5423130000000  0.5313450000000  0.5532270000000 1.0
C      1  0.4177310000000  0.5365690000000  0.5207130000000 1.0
C      1  0.4603790000000  0.4129630000000  0.4914290000000 1.0
C      1  0.5341710000000  0.5192300000000  0.5825990000000 1.0
C      1  0.4049450000000  0.4948600000000  0.4963040000000 1.0
C      1  0.5359360000000  0.5575880000000  0.4857350000000 1.0
C      1  0.4607850000000  0.5556270000000  0.5484990000000 1.0
C      1  0.4326620000000  0.4876450000000  0.4328800000000 1.0
C      1  0.5044580000000  0.5945690000000  0.4809290000000 1.0
C      1  0.4481560000000  0.5844970000000  0.4826490000000 1.0
C      1  0.4588240000000  0.4309470000000  0.4372310000000 1.0
C      1  0.4829640000000  0.5056140000000  0.4515490000000 1.0
C      1  0.4038390000000  0.4852110000000  0.5231830000000 1.0
C      1  0.4816320000000  0.5582450000000  0.4259910000000 1.0
C      1  0.4576660000000  0.5274440000000  0.5854390000000 1.0
C      1  0.5533330000000  0.4591070000000  0.4414640000000 1.0
C      1  0.4491300000000  0.4709600000000  0.4149920000000 1.0
C      1  0.4893850000000  0.5339030000000  0.4142450000000 1.0
C      1  0.5194190000000  0.4268930000000  0.5616720000000 1.0
C      1  0.4559890000000  0.5610660000000  0.4395890000000 1.0
C      1  0.5062060000000  0.4398790000000  0.4356610000000 1.0
C      1  0.5251270000000  0.5141600000000  0.4689280000000 1.0
C      1  0.4271930000000  0.4545440000000  0.5484490000000 1.0
C      1  0.5706150000000  0.5599630000000  0.4550310000000 1.0
C      1  0.5761200000000  0.4628310000000  0.4587340000000 1.0
C      1  0.4654930000000  0.5037090000000  0.5308250000000 1.0
C      1  0.5925650000000  0.4853400000000  0.4537880000000 1.0
C      1  0.5797980000000  0.4783490000000  0.5531990000000 1.0
C      1  0.4743190000000  0.4829270000000  0.4130770000000 1.0
C      1  0.4968770000000  0.4680400000000  0.4281080000000 1.0
C      1  0.5105220000000  0.5280890000000  0.5928520000000 1.0
C      1  0.5494330000000  0.5571620000000  0.4349600000000 1.0
C      1  0.5102180000000  0.5688280000000  0.5515280000000 1.0
C      1  0.5404860000000  0.4903720000000  0.5801230000000 1.0
C      1  0.4858240000000  0.5398020000000  0.5861690000000 1.0
C      1  0.5112940000000  0.4098830000000  0.5395230000000 1.0
C      1  0.5136610000000  0.4115240000000  0.4853300000000 1.0
C      1  0.4269920000000  0.5662320000000  0.4863880000000 1.0
C      1  0.4116870000000  0.4717590000000  0.4799510000000 1.0
C      1  0.5947320000000  0.4951780000000  0.5128540000000 1.0
C      1  0.4832620000000  0.4762430000000  0.4565090000000 1.0
C      1  0.5773850000000  0.4584710000000  0.5329940000000 1.0
C      1  0.4839670000000  0.4043490000000  0.5377930000000 1.0
C      1  0.5187250000000  0.4868970000000  0.4257860000000 1.0
C      1  0.4825420000000  0.4511690000000  0.5939070000000 1.0
C      1  0.4430240000000  0.4409850000000  0.4589070000000 1.0
C      1  0.4297620000000  0.4722710000000  0.4576580000000 1.0
C      1  0.5714650000000  0.5267460000000  0.5438600000000 1.0
C      1  0.5851260000000  0.5088770000000  0.4403300000000 1.0
C      1  0.4364130000000  0.4282130000000  0.4833170000000 1.0
C      1  0.4798050000000  0.4874290000000  0.5474510000000 1.0
C      1  0.4995380000000  0.4577770000000  0.5263750000000 1.0
C      1  0.4196010000000  0.5215790000000  0.4933820000000 1.0
END
