TITL C-215735-9236-7 -158.132227336284 125000 -248.406713005669 0 0 38 (C1) n - 1
REM
REM in /rds/project/t2_vol4/rds-t2-cs072/BORA/CARBON/from-Arr/AIRSS/Generating-Clusters/GAP-ML-2020/Only-C1/SD-CG/HFTN-CG
REM
REM
REM
REM
REM
REM ./C.cell (11c1c37f851c82e70ff6c80c92926a4b)
REM AIRSS Version 0.9.1 bugfix July 2018 build 013d7b7c2542+ Fri, 06 Jul 2018 19:26:36 +0100
REM compiler GCC version 9.3.0
REM options -cpp -mtune=generic -march=x86-64 -g -O0
REM seed 925241843 1657189719 1839612238 909741086 1501563421 2135942507 -629561390 48584782 844459584 200492374 17847020 1495358808 1106201230 -1197332376 329421216 429766207 427453309 186036574 -91139333 -605096109 -637039582 -2137877457 1960777594 370184148 1684941661 -451428342 1921053516 -1494576212 -305543250 -1052487098 -940907623 -1843642232 -448375229
REM
CELL 1.54180   50.00000   50.00000   50.00000   90.00000   90.00000   90.00000
LATT -1
SFAC C  
C      1  0.5285070000000  0.5011060000000  0.5446100000000 1.0
C      1  0.5120670000000  0.4297910000000  0.5252500000000 1.0
C      1  0.4475710000000  0.4952650000000  0.4447940000000 1.0
C      1  0.4972110000000  0.5509630000000  0.5212720000000 1.0
C      1  0.5117240000000  0.4573540000000  0.4818540000000 1.0
C      1  0.4750390000000  0.4501740000000  0.5004000000000 1.0
C      1  0.4890210000000  0.4973790000000  0.4920920000000 1.0
C      1  0.4365970000000  0.4875300000000  0.5176300000000 1.0
C      1  0.4677630000000  0.5080090000000  0.4331450000000 1.0
C      1  0.5601210000000  0.5358770000000  0.4987130000000 1.0
C      1  0.5017490000000  0.5394990000000  0.4518100000000 1.0
C      1  0.5328520000000  0.4871860000000  0.5203890000000 1.0
C      1  0.4557820000000  0.4530360000000  0.5212350000000 1.0
C      1  0.5289590000000  0.5440990000000  0.4636060000000 1.0
C      1  0.5185620000000  0.5642680000000  0.4819920000000 1.0
C      1  0.4581870000000  0.4793800000000  0.5371140000000 1.0
C      1  0.4305000000000  0.4609620000000  0.5106110000000 1.0
C      1  0.5490940000000  0.4662960000000  0.5126130000000 1.0
C      1  0.5473170000000  0.5241830000000  0.4750850000000 1.0
C      1  0.5440640000000  0.5452200000000  0.5192420000000 1.0
C      1  0.5018110000000  0.4384820000000  0.5011730000000 1.0
C      1  0.5211990000000  0.4274300000000  0.5483710000000 1.0
C      1  0.5332610000000  0.5300020000000  0.5415380000000 1.0
C      1  0.4989640000000  0.5052680000000  0.5512850000000 1.0
C      1  0.4852990000000  0.4709620000000  0.4834830000000 1.0
C      1  0.5594510000000  0.4570090000000  0.4908170000000 1.0
C      1  0.5170270000000  0.5005960000000  0.4981720000000 1.0
C      1  0.4914480000000  0.5559160000000  0.4752660000000 1.0
C      1  0.5374870000000  0.4689820000000  0.4765230000000 1.0
C      1  0.4434970000000  0.5043890000000  0.4955760000000 1.0
C      1  0.5218480000000  0.5614440000000  0.5099840000000 1.0
C      1  0.5355850000000  0.4977600000000  0.4763870000000 1.0
C      1  0.4759020000000  0.4909440000000  0.5534860000000 1.0
C      1  0.4695220000000  0.5169600000000  0.4967790000000 1.0
C      1  0.4791170000000  0.5445640000000  0.4992190000000 1.0
C      1  0.4432450000000  0.4941320000000  0.4699860000000 1.0
C      1  0.5044580000000  0.5341490000000  0.5438350000000 1.0
C      1  0.4881900000000  0.5234360000000  0.4346650000000 1.0
END
