TITL C-21797-5059-1 -99.6937142886026 125000 -600.774376923594 0 0 87 (C1) n - 1
REM
REM in /rds/project/t2_vol4/rds-t2-cs072/BORA/CARBON/from-Arr/AIRSS/Generating-Clusters/GAP-ML-2020/Only-C1/SD-CG/HFTN-CG
REM
REM
REM
REM
REM
REM ./C.cell (11c1c37f851c82e70ff6c80c92926a4b)
REM AIRSS Version 0.9.1 bugfix July 2018 build 013d7b7c2542+ Fri, 06 Jul 2018 19:26:36 +0100
REM compiler GCC version 9.3.0
REM options -cpp -mtune=generic -march=x86-64 -g -O0
REM seed -756367786 2071769364 1062122086 1718852664 -763596313 594634609 -2077912084 -798996728 -1182538144 1271413765 -664297180 -1122357123 749724046 991088215 -869318504 -1096917894 1855919876 1469471657 -9192252 821984779 2037038090 -191842505 -1306914426 -251098724 1636145664 -492326315 -1470589829 1103424354 -10674629 -1760433515 -1147046727 -1488784582 -221512727
REM
CELL 1.54180   50.00000   50.00000   50.00000   90.00000   90.00000   90.00000
LATT -1
SFAC C  
C      1  0.4377690000000  0.4671210000000  0.4626490000000 1.0
C      1  0.4854840000000  0.4856280000000  0.4999910000000 1.0
C      1  0.5308480000000  0.5764260000000  0.5248850000000 1.0
C      1  0.4861960000000  0.5748090000000  0.4565780000000 1.0
C      1  0.4094050000000  0.4935310000000  0.4789640000000 1.0
C      1  0.4617670000000  0.4982240000000  0.5071850000000 1.0
C      1  0.4560170000000  0.5177700000000  0.4317190000000 1.0
C      1  0.4963690000000  0.4770030000000  0.5674990000000 1.0
C      1  0.4437830000000  0.5372830000000  0.5296260000000 1.0
C      1  0.4791100000000  0.4577730000000  0.4907640000000 1.0
C      1  0.5300020000000  0.5403860000000  0.4860220000000 1.0
C      1  0.4555180000000  0.5044140000000  0.5639030000000 1.0
C      1  0.5247660000000  0.4910720000000  0.4318780000000 1.0
C      1  0.5390180000000  0.4545750000000  0.5555870000000 1.0
C      1  0.5305930000000  0.5102320000000  0.4860530000000 1.0
C      1  0.5371910000000  0.5717890000000  0.4467010000000 1.0
C      1  0.5005530000000  0.4397980000000  0.5341950000000 1.0
C      1  0.5007650000000  0.5084520000000  0.4826610000000 1.0
C      1  0.4839210000000  0.4554470000000  0.5518490000000 1.0
C      1  0.5056270000000  0.5164850000000  0.5302930000000 1.0
C      1  0.4481630000000  0.5294570000000  0.5555340000000 1.0
C      1  0.5041430000000  0.5742780000000  0.5144060000000 1.0
C      1  0.5272540000000  0.4329980000000  0.5414460000000 1.0
C      1  0.5460040000000  0.4245660000000  0.5202110000000 1.0
C      1  0.4565080000000  0.5737850000000  0.4952660000000 1.0
C      1  0.4193870000000  0.4677060000000  0.4866220000000 1.0
C      1  0.4594230000000  0.4342620000000  0.5012260000000 1.0
C      1  0.5268490000000  0.5622370000000  0.5504920000000 1.0
C      1  0.5644130000000  0.4837510000000  0.5200690000000 1.0
C      1  0.5253570000000  0.4763530000000  0.5673200000000 1.0
C      1  0.4699310000000  0.5878720000000  0.4746680000000 1.0
C      1  0.4637140000000  0.5269060000000  0.5075000000000 1.0
C      1  0.5765900000000  0.4613270000000  0.5038520000000 1.0
C      1  0.4837350000000  0.5698900000000  0.5350740000000 1.0
C      1  0.5527840000000  0.5738000000000  0.5083380000000 1.0
C      1  0.5035030000000  0.4446130000000  0.5035070000000 1.0
C      1  0.4920960000000  0.5245510000000  0.4575310000000 1.0
C      1  0.5102960000000  0.4175170000000  0.4914920000000 1.0
C      1  0.5546860000000  0.5265990000000  0.4498790000000 1.0
C      1  0.5283220000000  0.4599880000000  0.4982280000000 1.0
C      1  0.4581270000000  0.5667180000000  0.5235820000000 1.0
C      1  0.5334050000000  0.4870600000000  0.5065930000000 1.0
C      1  0.4352650000000  0.5177260000000  0.4489750000000 1.0
C      1  0.5703540000000  0.5248360000000  0.4967800000000 1.0
C      1  0.4566470000000  0.4584340000000  0.5450230000000 1.0
C      1  0.4934270000000  0.5286560000000  0.5067510000000 1.0
C      1  0.5112150000000  0.5664700000000  0.4420550000000 1.0
C      1  0.4310640000000  0.5334330000000  0.4731710000000 1.0
C      1  0.4235760000000  0.4894010000000  0.5304790000000 1.0
C      1  0.5410690000000  0.4718470000000  0.4447070000000 1.0
C      1  0.4813400000000  0.5089970000000  0.4348490000000 1.0
C      1  0.5601980000000  0.5084210000000  0.4719790000000 1.0
C      1  0.5387290000000  0.4171240000000  0.4935180000000 1.0
C      1  0.5518040000000  0.5523670000000  0.4613780000000 1.0
C      1  0.4159730000000  0.5170470000000  0.4922090000000 1.0
C      1  0.5683970000000  0.4414670000000  0.5224900000000 1.0
C      1  0.4969580000000  0.4846790000000  0.4311270000000 1.0
C      1  0.4871100000000  0.4599940000000  0.4428670000000 1.0
C      1  0.4212290000000  0.5165010000000  0.5200140000000 1.0
C      1  0.4242770000000  0.4653530000000  0.5136410000000 1.0
C      1  0.5624360000000  0.4619690000000  0.5416720000000 1.0
C      1  0.5581080000000  0.5514810000000  0.4913370000000 1.0
C      1  0.5043330000000  0.4378040000000  0.4501110000000 1.0
C      1  0.5001870000000  0.5251790000000  0.5610580000000 1.0
C      1  0.4814320000000  0.5490310000000  0.4696800000000 1.0
C      1  0.5591650000000  0.5181700000000  0.5497780000000 1.0
C      1  0.5325540000000  0.5186020000000  0.4337070000000 1.0
C      1  0.5690700000000  0.4572070000000  0.4774300000000 1.0
C      1  0.5313570000000  0.4457790000000  0.4523150000000 1.0
C      1  0.5620460000000  0.4801340000000  0.4622000000000 1.0
C      1  0.4655020000000  0.4600230000000  0.4622490000000 1.0
C      1  0.4989270000000  0.5555060000000  0.5551090000000 1.0
C      1  0.4552490000000  0.5455600000000  0.4845550000000 1.0
C      1  0.5470080000000  0.4386130000000  0.4752880000000 1.0
C      1  0.4831060000000  0.5022180000000  0.5697070000000 1.0
C      1  0.4937160000000  0.4164110000000  0.4691720000000 1.0
C      1  0.5264530000000  0.5231450000000  0.5742780000000 1.0
C      1  0.5088120000000  0.4895850000000  0.5214100000000 1.0
C      1  0.5038560000000  0.5522820000000  0.4934770000000 1.0
C      1  0.5413460000000  0.4999180000000  0.5677270000000 1.0
C      1  0.4710790000000  0.4138450000000  0.4861720000000 1.0
C      1  0.4424950000000  0.4830160000000  0.5507330000000 1.0
C      1  0.5437840000000  0.5409940000000  0.5599770000000 1.0
C      1  0.5104320000000  0.5360090000000  0.4377820000000 1.0
C      1  0.4244090000000  0.4918230000000  0.4540330000000 1.0
C      1  0.4441600000000  0.4463720000000  0.5220340000000 1.0
C      1  0.5709520000000  0.5121160000000  0.5231580000000 1.0
END
