TITL C-215716-9174-7 -82.8367507871491 125000 -1003.892542076 0 0 142 (C1) n - 1
REM
REM in /rds/project/t2_vol4/rds-t2-cs072/BORA/CARBON/from-Arr/AIRSS/Generating-Clusters/GAP-ML-2020/Only-C1/SD-CG/HFTN-CG
REM
REM
REM
REM
REM
REM ./C.cell (11c1c37f851c82e70ff6c80c92926a4b)
REM AIRSS Version 0.9.1 bugfix July 2018 build 013d7b7c2542+ Fri, 06 Jul 2018 19:26:36 +0100
REM compiler GCC version 9.3.0
REM options -cpp -mtune=generic -march=x86-64 -g -O0
REM seed 87005682 -1285278482 81266352 1686487869 28305177 -1758252246 1574866120 -2040130675 2084460849 926599395 847716220 -2119162709 -1417346295 1153782406 386347375 465201258 123926044 1436225804 -1175124254 151075299 734185110 1750274011 335232215 695314879 -711683645 -1739478487 -2041056111 -865644791 789547510 1601268305 1713915109 -1305749551 357569323
REM
CELL 1.54180   50.00000   50.00000   50.00000   90.00000   90.00000   90.00000
LATT -1
SFAC C  
C      1  0.4511610000000  0.5097070000000  0.4272800000000 1.0
C      1  0.4939220000000  0.5132700000000  0.5856650000000 1.0
C      1  0.5127510000000  0.4756430000000  0.5389220000000 1.0
C      1  0.5439380000000  0.5169680000000  0.5826120000000 1.0
C      1  0.4175470000000  0.5011030000000  0.5514990000000 1.0
C      1  0.5462890000000  0.5656420000000  0.4366560000000 1.0
C      1  0.5155770000000  0.4788820000000  0.5993760000000 1.0
C      1  0.4839910000000  0.4045790000000  0.5187840000000 1.0
C      1  0.5561030000000  0.4339340000000  0.5474310000000 1.0
C      1  0.5864990000000  0.5364710000000  0.4603760000000 1.0
C      1  0.4984170000000  0.4028760000000  0.4737390000000 1.0
C      1  0.4349550000000  0.5427300000000  0.5735930000000 1.0
C      1  0.5479840000000  0.4452470000000  0.5732790000000 1.0
C      1  0.3979220000000  0.5087580000000  0.5035240000000 1.0
C      1  0.4491400000000  0.5000450000000  0.5564190000000 1.0
C      1  0.4038140000000  0.4642510000000  0.4836880000000 1.0
C      1  0.5227720000000  0.5921180000000  0.5037650000000 1.0
C      1  0.5056210000000  0.4022200000000  0.5011680000000 1.0
C      1  0.5864430000000  0.4425260000000  0.4655660000000 1.0
C      1  0.4830280000000  0.5154380000000  0.4647270000000 1.0
C      1  0.5309490000000  0.5783910000000  0.4599130000000 1.0
C      1  0.4894400000000  0.5341500000000  0.4055770000000 1.0
C      1  0.5263490000000  0.5618870000000  0.4162690000000 1.0
C      1  0.5223270000000  0.4636330000000  0.5142630000000 1.0
C      1  0.5601740000000  0.5745560000000  0.4893790000000 1.0
C      1  0.5795620000000  0.5632260000000  0.5055290000000 1.0
C      1  0.6084240000000  0.4578730000000  0.4690260000000 1.0
C      1  0.4157800000000  0.4707590000000  0.5577610000000 1.0
C      1  0.5025620000000  0.4108070000000  0.4471740000000 1.0
C      1  0.5428270000000  0.5452050000000  0.5752740000000 1.0
C      1  0.4375390000000  0.4603610000000  0.5732480000000 1.0
C      1  0.4598280000000  0.4792220000000  0.5787090000000 1.0
C      1  0.4712200000000  0.5732400000000  0.5104230000000 1.0
C      1  0.5542080000000  0.4267710000000  0.4449900000000 1.0
C      1  0.4312690000000  0.5260760000000  0.4682940000000 1.0
C      1  0.4321730000000  0.4287410000000  0.4739760000000 1.0
C      1  0.4494200000000  0.5203110000000  0.5796960000000 1.0
C      1  0.5467820000000  0.4666620000000  0.4738920000000 1.0
C      1  0.5065710000000  0.5219150000000  0.4509670000000 1.0
C      1  0.5096220000000  0.5192300000000  0.5139090000000 1.0
C      1  0.5243430000000  0.4803420000000  0.4665900000000 1.0
C      1  0.5716110000000  0.4685020000000  0.4590280000000 1.0
C      1  0.5338050000000  0.4191880000000  0.5371240000000 1.0
C      1  0.5383210000000  0.4398880000000  0.4269680000000 1.0
C      1  0.5027220000000  0.5827330000000  0.4507980000000 1.0
C      1  0.5552840000000  0.4987020000000  0.5246540000000 1.0
C      1  0.4760510000000  0.5098810000000  0.4100620000000 1.0
C      1  0.5418280000000  0.5247490000000  0.4815750000000 1.0
C      1  0.4543190000000  0.5297090000000  0.4492660000000 1.0
C      1  0.4674780000000  0.4995560000000  0.5301530000000 1.0
C      1  0.5511390000000  0.4265550000000  0.4946320000000 1.0
C      1  0.5944080000000  0.4860050000000  0.4721370000000 1.0
C      1  0.5736810000000  0.5084080000000  0.5462090000000 1.0
C      1  0.4767510000000  0.4096310000000  0.4575850000000 1.0
C      1  0.4556620000000  0.4840050000000  0.4860630000000 1.0
C      1  0.4143470000000  0.5304730000000  0.5560210000000 1.0
C      1  0.4611270000000  0.5488110000000  0.5246210000000 1.0
C      1  0.4284850000000  0.4618560000000  0.4394800000000 1.0
C      1  0.5198650000000  0.5047480000000  0.5936680000000 1.0
C      1  0.4864670000000  0.4080820000000  0.5469840000000 1.0
C      1  0.4727530000000  0.4499120000000  0.4198270000000 1.0
C      1  0.5435050000000  0.4682280000000  0.4185810000000 1.0
C      1  0.4372670000000  0.5610430000000  0.5368980000000 1.0
C      1  0.4892850000000  0.5582600000000  0.4904580000000 1.0
C      1  0.4997850000000  0.4694950000000  0.4752890000000 1.0
C      1  0.5104210000000  0.5459450000000  0.5250820000000 1.0
C      1  0.4478110000000  0.5662280000000  0.5624330000000 1.0
C      1  0.4316760000000  0.5723380000000  0.4837410000000 1.0
C      1  0.5632350000000  0.4987540000000  0.5708720000000 1.0
C      1  0.5375500000000  0.5142370000000  0.5072600000000 1.0
C      1  0.4047850000000  0.5366680000000  0.5067550000000 1.0
C      1  0.5924270000000  0.5095820000000  0.4534480000000 1.0
C      1  0.5262390000000  0.4898650000000  0.4087240000000 1.0
C      1  0.5490000000000  0.4569910000000  0.5004540000000 1.0
C      1  0.4595750000000  0.4192590000000  0.5495950000000 1.0
C      1  0.5318980000000  0.4113960000000  0.5097940000000 1.0
C      1  0.5627320000000  0.5239900000000  0.4198680000000 1.0
C      1  0.4821250000000  0.4743580000000  0.4314300000000 1.0
C      1  0.4520710000000  0.4230810000000  0.4544360000000 1.0
C      1  0.5163220000000  0.5632470000000  0.5006040000000 1.0
C      1  0.5044940000000  0.4555860000000  0.5920530000000 1.0
C      1  0.4000530000000  0.4923400000000  0.4796510000000 1.0
C      1  0.5780600000000  0.5025670000000  0.4297460000000 1.0
C      1  0.4184380000000  0.5488190000000  0.4841310000000 1.0
C      1  0.5912030000000  0.5418380000000  0.4891280000000 1.0
C      1  0.4940050000000  0.5214340000000  0.5576960000000 1.0
C      1  0.4163330000000  0.4504070000000  0.4627070000000 1.0
C      1  0.4776840000000  0.5727640000000  0.4645940000000 1.0
C      1  0.4981610000000  0.5015520000000  0.5362670000000 1.0
C      1  0.4683350000000  0.5046680000000  0.5937070000000 1.0
C      1  0.4996870000000  0.4568760000000  0.5000630000000 1.0
C      1  0.5532860000000  0.5621240000000  0.5522240000000 1.0
C      1  0.4051740000000  0.4660760000000  0.5308220000000 1.0
C      1  0.4325930000000  0.4292330000000  0.5026090000000 1.0
C      1  0.4142380000000  0.5042140000000  0.4574140000000 1.0
C      1  0.4771440000000  0.4515200000000  0.5193250000000 1.0
C      1  0.5630310000000  0.4699860000000  0.5676810000000 1.0
C      1  0.4971390000000  0.4899190000000  0.4134120000000 1.0
C      1  0.5188450000000  0.5370680000000  0.4041980000000 1.0
C      1  0.5679210000000  0.4766530000000  0.4307960000000 1.0
C      1  0.4858140000000  0.5876520000000  0.5334360000000 1.0
C      1  0.4798330000000  0.5573240000000  0.4190780000000 1.0
C      1  0.4491720000000  0.4427810000000  0.4337710000000 1.0
C      1  0.4614820000000  0.5224010000000  0.5104930000000 1.0
C      1  0.5877110000000  0.5291810000000  0.5341710000000 1.0
C      1  0.4916400000000  0.4325990000000  0.4084440000000 1.0
C      1  0.5418820000000  0.5961950000000  0.4833030000000 1.0
C      1  0.5758220000000  0.5554700000000  0.5338410000000 1.0
C      1  0.5219030000000  0.4370500000000  0.5789360000000 1.0
C      1  0.4568310000000  0.5827550000000  0.4852130000000 1.0
C      1  0.4645620000000  0.5563040000000  0.4424280000000 1.0
C      1  0.4794510000000  0.4566280000000  0.5744600000000 1.0
C      1  0.5227290000000  0.5615930000000  0.5882160000000 1.0
C      1  0.5716560000000  0.4580160000000  0.5420260000000 1.0
C      1  0.5280940000000  0.5087420000000  0.4624270000000 1.0
C      1  0.4859700000000  0.5465740000000  0.5434470000000 1.0
C      1  0.4113150000000  0.4500150000000  0.5080730000000 1.0
C      1  0.4587970000000  0.4245720000000  0.5193200000000 1.0
C      1  0.5670750000000  0.5460920000000  0.4385700000000 1.0
C      1  0.5131260000000  0.4257960000000  0.4250420000000 1.0
C      1  0.4126370000000  0.5456140000000  0.5325460000000 1.0
C      1  0.4295170000000  0.4911020000000  0.4368350000000 1.0
C      1  0.4012080000000  0.4941340000000  0.5270490000000 1.0
C      1  0.5217350000000  0.5870070000000  0.5755470000000 1.0
C      1  0.5144880000000  0.5948960000000  0.5300410000000 1.0
C      1  0.5955710000000  0.5200620000000  0.5074220000000 1.0
C      1  0.5019940000000  0.5741880000000  0.4240750000000 1.0
C      1  0.5377480000000  0.5164230000000  0.4065090000000 1.0
C      1  0.5909050000000  0.4925270000000  0.5002820000000 1.0
C      1  0.4779580000000  0.5722050000000  0.5591000000000 1.0
C      1  0.5657420000000  0.4221160000000  0.4696860000000 1.0
C      1  0.4557570000000  0.4383110000000  0.5699080000000 1.0
C      1  0.4935620000000  0.4543020000000  0.5468980000000 1.0
C      1  0.5097160000000  0.4252570000000  0.5536600000000 1.0
C      1  0.4973200000000  0.5764660000000  0.5814710000000 1.0
C      1  0.5369700000000  0.5550740000000  0.4817660000000 1.0
C      1  0.5701470000000  0.4745390000000  0.5160480000000 1.0
C      1  0.5340240000000  0.5850450000000  0.5502960000000 1.0
C      1  0.4770730000000  0.4843560000000  0.4649920000000 1.0
C      1  0.4434240000000  0.5097950000000  0.4915090000000 1.0
C      1  0.4627680000000  0.4756910000000  0.5128910000000 1.0
C      1  0.4859940000000  0.5273860000000  0.4930480000000 1.0
END
