TITL C-214953-6757-6 0.0125736719850876 125000 -577.890544022743 0 0 83 (C1) n - 1
REM
REM in /rds/project/t2_vol4/rds-t2-cs072/BORA/CARBON/from-Arr/AIRSS/Generating-Clusters/GAP-ML-2020/Only-C1/SD-CG/HFTN-CG
REM
REM
REM
REM
REM
REM ./C.cell (11c1c37f851c82e70ff6c80c92926a4b)
REM AIRSS Version 0.9.1 bugfix July 2018 build 013d7b7c2542+ Fri, 06 Jul 2018 19:26:36 +0100
REM compiler GCC version 9.3.0
REM options -cpp -mtune=generic -march=x86-64 -g -O0
REM seed 871157920 231294723 -761487466 -2032716362 -86131498 996770177 -538271982 -901791707 -228362697 -1875592906 2110631773 897950869 1281405048 1731320199 2109561464 399160992 2025405436 400525096 713401059 1889909773 1453417762 609901932 -1457352730 848169356 1417250131 87452011 -456906654 -684233580 386492110 -1092672818 1254045261 759282412 -303718868
REM
CELL 1.54180   50.00000   50.00000   50.00000   90.00000   90.00000   90.00000
LATT -1
SFAC C  
C      1  0.4608210000000  0.4794790000000  0.5369840000000 1.0
C      1  0.5306740000000  0.5705950000000  0.4879700000000 1.0
C      1  0.5094650000000  0.4387590000000  0.4536930000000 1.0
C      1  0.4381100000000  0.4733730000000  0.4597490000000 1.0
C      1  0.5611380000000  0.5356030000000  0.5349880000000 1.0
C      1  0.4275840000000  0.5444800000000  0.5154400000000 1.0
C      1  0.5248060000000  0.5028880000000  0.4756620000000 1.0
C      1  0.5636130000000  0.4703740000000  0.4466250000000 1.0
C      1  0.4136820000000  0.5013970000000  0.5277010000000 1.0
C      1  0.5825500000000  0.5195800000000  0.4954140000000 1.0
C      1  0.5696520000000  0.5428000000000  0.5076320000000 1.0
C      1  0.4776970000000  0.5227160000000  0.4416220000000 1.0
C      1  0.4841880000000  0.5158260000000  0.5171690000000 1.0
C      1  0.5565180000000  0.5581650000000  0.4864970000000 1.0
C      1  0.5272680000000  0.5280500000000  0.5683320000000 1.0
C      1  0.5456810000000  0.5396050000000  0.4410420000000 1.0
C      1  0.4625820000000  0.5525370000000  0.5502240000000 1.0
C      1  0.4693690000000  0.4883980000000  0.5803880000000 1.0
C      1  0.5574570000000  0.4498020000000  0.4660720000000 1.0
C      1  0.4894890000000  0.4774740000000  0.4941510000000 1.0
C      1  0.5396970000000  0.4582250000000  0.5492750000000 1.0
C      1  0.4664730000000  0.4511060000000  0.5315600000000 1.0
C      1  0.5187190000000  0.4552210000000  0.4318290000000 1.0
C      1  0.4127180000000  0.5083080000000  0.4823930000000 1.0
C      1  0.4910080000000  0.5471590000000  0.4842680000000 1.0
C      1  0.4868430000000  0.4384340000000  0.5466260000000 1.0
C      1  0.4764170000000  0.4768610000000  0.4309790000000 1.0
C      1  0.5793350000000  0.4982730000000  0.5147650000000 1.0
C      1  0.4719440000000  0.5661160000000  0.4981750000000 1.0
C      1  0.5418650000000  0.4351570000000  0.5018500000000 1.0
C      1  0.4490090000000  0.4901120000000  0.5127070000000 1.0
C      1  0.5370580000000  0.5441510000000  0.5471670000000 1.0
C      1  0.5450540000000  0.4605870000000  0.4299440000000 1.0
C      1  0.5332460000000  0.4892080000000  0.5181380000000 1.0
C      1  0.4445490000000  0.5555910000000  0.4948840000000 1.0
C      1  0.5461850000000  0.5123480000000  0.4314850000000 1.0
C      1  0.5671890000000  0.4994130000000  0.4470430000000 1.0
C      1  0.5639150000000  0.4526320000000  0.4942740000000 1.0
C      1  0.5084160000000  0.4825450000000  0.4729210000000 1.0
C      1  0.5326340000000  0.4373330000000  0.5289540000000 1.0
C      1  0.4878780000000  0.4946910000000  0.5370750000000 1.0
C      1  0.4633090000000  0.4582770000000  0.4495840000000 1.0
C      1  0.4724790000000  0.5279500000000  0.4706960000000 1.0
C      1  0.4198000000000  0.4797160000000  0.4828990000000 1.0
C      1  0.4476410000000  0.4917710000000  0.5606140000000 1.0
C      1  0.4970860000000  0.4202760000000  0.5046200000000 1.0
C      1  0.5280380000000  0.5136490000000  0.5009710000000 1.0
C      1  0.4897960000000  0.5528450000000  0.5529840000000 1.0
C      1  0.5062500000000  0.5325150000000  0.5088370000000 1.0
C      1  0.4812100000000  0.4375140000000  0.4597630000000 1.0
C      1  0.5146350000000  0.5782380000000  0.5120050000000 1.0
C      1  0.5214240000000  0.4633570000000  0.5696560000000 1.0
C      1  0.4996010000000  0.5322340000000  0.5697410000000 1.0
C      1  0.4455920000000  0.5398380000000  0.4711700000000 1.0
C      1  0.4390760000000  0.5397770000000  0.5424590000000 1.0
C      1  0.4782460000000  0.4289620000000  0.4876370000000 1.0
C      1  0.4956410000000  0.4520610000000  0.5709040000000 1.0
C      1  0.4385460000000  0.4984560000000  0.4466720000000 1.0
C      1  0.4776430000000  0.4641430000000  0.5886480000000 1.0
C      1  0.5062560000000  0.4261750000000  0.5298470000000 1.0
C      1  0.4272840000000  0.5202870000000  0.4622300000000 1.0
C      1  0.4880090000000  0.5860000000000  0.5076930000000 1.0
C      1  0.5056920000000  0.4784710000000  0.5195750000000 1.0
C      1  0.4944000000000  0.5031380000000  0.5667360000000 1.0
C      1  0.4624280000000  0.5013300000000  0.4326620000000 1.0
C      1  0.4296870000000  0.5117870000000  0.5505050000000 1.0
C      1  0.5776340000000  0.5190570000000  0.4665320000000 1.0
C      1  0.5187090000000  0.5043140000000  0.4239940000000 1.0
C      1  0.5328360000000  0.4350520000000  0.4729070000000 1.0
C      1  0.5622290000000  0.4772480000000  0.5073350000000 1.0
C      1  0.4224370000000  0.4779950000000  0.5112790000000 1.0
C      1  0.5441790000000  0.4892610000000  0.5469900000000 1.0
C      1  0.4712530000000  0.5018190000000  0.4952570000000 1.0
C      1  0.5679320000000  0.5081830000000  0.5395350000000 1.0
C      1  0.4689520000000  0.4506640000000  0.5032150000000 1.0
C      1  0.5033270000000  0.5272910000000  0.4322530000000 1.0
C      1  0.4108090000000  0.5218520000000  0.5082200000000 1.0
C      1  0.5246900000000  0.4962990000000  0.5692120000000 1.0
C      1  0.5039780000000  0.4784250000000  0.4240610000000 1.0
C      1  0.5638300000000  0.5440080000000  0.4620170000000 1.0
C      1  0.5122060000000  0.5606930000000  0.4683020000000 1.0
C      1  0.5134840000000  0.5557360000000  0.5320820000000 1.0
C      1  0.5192490000000  0.5479660000000  0.4440380000000 1.0
END
