TITL C-2109097-5040-6 -0.396541064495965 125000 -93.3427021427795 0 0 15 (C1) n - 1
REM
REM in /nfs/bkarasulu/CARBON/AIRSS/Generating-Clusters/GAP-ML-2020/Only-C1/SD-CG/HFTN-CG
REM
REM
REM
REM
REM
REM ./C.cell (11c1c37f851c82e70ff6c80c92926a4b)
REM
REM compiler GCC version 9.2.1 20190827 (Red Hat 9.2.1-1)
REM options -cpp -mtune=generic -march=x86-64 -g -O0 -fpre-include=/usr/include/finclude/math-vector-fortran.h
REM seed -813608598 -1045194805 -2000045661 -57556417 1501898224 1650791161 -1698907738 789961259 1348897514 -229246491 -1889033807 -1923833723 71981789 525500233 -1202239764 -1446083582 -1288874942 1826482480 -1758338516 -1408558840 593713252 -1410908539 -1863468749 1236481072 -1894532053 -768676437 1097121443 1411866173 -667315929 358974518 -171256354 1412340759 -1275723800
REM
CELL 1.54180   50.00000   50.00000   50.00000   90.00000   90.00000   90.00000
LATT -1
SFAC C  
C      1  0.5269310000000  0.4585380000000  0.5328970000000 1.0
C      1  0.5071460000000  0.4440310000000  0.4879410000000 1.0
C      1  0.5337300000000  0.5496820000000  0.4968870000000 1.0
C      1  0.4827300000000  0.5412100000000  0.4991190000000 1.0
C      1  0.5451780000000  0.5266940000000  0.4865340000000 1.0
C      1  0.4596400000000  0.4897670000000  0.5349700000000 1.0
C      1  0.4514360000000  0.5129310000000  0.5254620000000 1.0
C      1  0.5019570000000  0.4621880000000  0.5382900000000 1.0
C      1  0.5018210000000  0.4968020000000  0.4398150000000 1.0
C      1  0.5215280000000  0.5154590000000  0.4776830000000 1.0
C      1  0.4622120000000  0.5318410000000  0.5110090000000 1.0
C      1  0.5112930000000  0.4913320000000  0.4646060000000 1.0
C      1  0.5083140000000  0.4674290000000  0.4789120000000 1.0
C      1  0.4780820000000  0.4722920000000  0.5359530000000 1.0
C      1  0.5080020000000  0.5398050000000  0.4899230000000 1.0
END
