TITL C-21713-8264-5 -0.19486269988384 125000 -131.980311893925 0 0 21 (C1) n - 1
REM
REM in /rds/project/t2_vol4/rds-t2-cs072/BORA/CARBON/from-Arr/AIRSS/Generating-Clusters/GAP-ML-2020/Only-C1/SD-CG/HFTN-CG
REM
REM
REM
REM
REM
REM ./C.cell (11c1c37f851c82e70ff6c80c92926a4b)
REM AIRSS Version 0.9.1 bugfix July 2018 build 013d7b7c2542+ Fri, 06 Jul 2018 19:26:36 +0100
REM compiler GCC version 9.3.0
REM options -cpp -mtune=generic -march=x86-64 -g -O0
REM seed 1157600149 -447509088 -1088365374 1201036600 333197911 -929485268 -1043715493 1106344125 731386998 125412306 797437566 -570918022 1804885090 -879403317 804616912 -353450807 -368982525 -1126542025 166024441 877355839 -391701795 -271355185 1804538783 2077160636 1471768761 -758485121 1515687251 1149292548 1590982930 -1975700206 1948702042 -1688310511 1003329642
REM
CELL 1.54180   50.00000   50.00000   50.00000   90.00000   90.00000   90.00000
LATT -1
SFAC C  
C      1  0.4965030000000  0.4547910000000  0.5144410000000 1.0
C      1  0.4466890000000  0.4928360000000  0.5036080000000 1.0
C      1  0.5000480000000  0.4669190000000  0.4909000000000 1.0
C      1  0.4720270000000  0.5274350000000  0.4768100000000 1.0
C      1  0.5233000000000  0.4807770000000  0.4795000000000 1.0
C      1  0.4629070000000  0.5005500000000  0.4823960000000 1.0
C      1  0.4226520000000  0.4988520000000  0.5184060000000 1.0
C      1  0.4755220000000  0.4601960000000  0.5296270000000 1.0
C      1  0.5665220000000  0.5347710000000  0.4718020000000 1.0
C      1  0.5490320000000  0.5077720000000  0.5482590000000 1.0
C      1  0.5309320000000  0.5218500000000  0.5354500000000 1.0
C      1  0.5169890000000  0.5365810000000  0.4883700000000 1.0
C      1  0.4536350000000  0.4754940000000  0.5261010000000 1.0
C      1  0.5057980000000  0.4906780000000  0.4593310000000 1.0
C      1  0.5417810000000  0.5349700000000  0.4766670000000 1.0
C      1  0.5180830000000  0.5298240000000  0.5149540000000 1.0
C      1  0.5457200000000  0.4873700000000  0.4927380000000 1.0
C      1  0.5687100000000  0.4904860000000  0.5035960000000 1.0
C      1  0.4289790000000  0.4829590000000  0.5391560000000 1.0
C      1  0.4914160000000  0.5428800000000  0.4748570000000 1.0
C      1  0.4827550000000  0.4820080000000  0.4730310000000 1.0
END
