TITL C-211907-516-2 -0.0711436529336013 125000 -338.651231511748 0 0 49 (C1) n - 1
REM
REM in /rds/project/t2_vol4/rds-t2-cs072/BORA/CARBON/from-Arr/AIRSS/Generating-Clusters/GAP-ML-2020/Only-C1/SD-CG/HFTN-CG
REM
REM
REM
REM
REM
REM ./C.cell (11c1c37f851c82e70ff6c80c92926a4b)
REM AIRSS Version 0.9.1 bugfix July 2018 build 013d7b7c2542+ Fri, 06 Jul 2018 19:26:36 +0100
REM compiler GCC version 9.3.0
REM options -cpp -mtune=generic -march=x86-64 -g -O0
REM seed 625254688 -377764720 -979035747 -467017372 473991414 -1518426963 -1922822024 -1354463591 -25636459 -188980998 740894796 -1636832752 -477451140 863002834 1739060970 -1821208440 -1628665489 1010458679 2008739608 1688116125 -360368325 -2062153500 1601919211 -1707081807 -1916105936 479776087 561059922 -857633161 -2026673756 148982302 -646625726 1774866210 471622067
REM
CELL 1.54180   50.00000   50.00000   50.00000   90.00000   90.00000   90.00000
LATT -1
SFAC C  
C      1  0.4645170000000  0.4967260000000  0.4515800000000 1.0
C      1  0.5391310000000  0.4575050000000  0.4711080000000 1.0
C      1  0.5144980000000  0.4978670000000  0.5768170000000 1.0
C      1  0.4708800000000  0.4907910000000  0.5556930000000 1.0
C      1  0.4914970000000  0.5558640000000  0.5263920000000 1.0
C      1  0.4887310000000  0.5035510000000  0.5114040000000 1.0
C      1  0.5134350000000  0.4823320000000  0.4404540000000 1.0
C      1  0.4526180000000  0.5194980000000  0.4644620000000 1.0
C      1  0.5388020000000  0.5380010000000  0.4725890000000 1.0
C      1  0.5185830000000  0.4625220000000  0.5490120000000 1.0
C      1  0.5609300000000  0.5415690000000  0.5149960000000 1.0
C      1  0.4592860000000  0.5572190000000  0.4920230000000 1.0
C      1  0.4976870000000  0.4805420000000  0.5634660000000 1.0
C      1  0.5513160000000  0.4830860000000  0.4673820000000 1.0
C      1  0.5393790000000  0.4804490000000  0.5401720000000 1.0
C      1  0.5359410000000  0.5463940000000  0.5252460000000 1.0
C      1  0.4921650000000  0.4406520000000  0.4502630000000 1.0
C      1  0.4385570000000  0.4836830000000  0.5192100000000 1.0
C      1  0.5032350000000  0.5270200000000  0.4442000000000 1.0
C      1  0.5138040000000  0.4393120000000  0.5343350000000 1.0
C      1  0.5159000000000  0.5538310000000  0.4809950000000 1.0
C      1  0.4377750000000  0.5134400000000  0.5149030000000 1.0
C      1  0.5313270000000  0.5237400000000  0.4495600000000 1.0
C      1  0.5579560000000  0.4957700000000  0.4922230000000 1.0
C      1  0.5328450000000  0.5053180000000  0.5558100000000 1.0
C      1  0.5244630000000  0.5317470000000  0.5474830000000 1.0
C      1  0.4847090000000  0.4527150000000  0.4955740000000 1.0
C      1  0.4977880000000  0.5038360000000  0.4871120000000 1.0
C      1  0.5512560000000  0.4763700000000  0.5135930000000 1.0
C      1  0.4491880000000  0.4774350000000  0.5431530000000 1.0
C      1  0.5143910000000  0.5588490000000  0.5093280000000 1.0
C      1  0.4945720000000  0.4797390000000  0.5001140000000 1.0
C      1  0.4940730000000  0.5467890000000  0.4621090000000 1.0
C      1  0.4532720000000  0.5305170000000  0.5311640000000 1.0
C      1  0.4645790000000  0.5530780000000  0.5177070000000 1.0
C      1  0.4663470000000  0.5448310000000  0.4691020000000 1.0
C      1  0.5000280000000  0.4339810000000  0.5096940000000 1.0
C      1  0.4961640000000  0.5371510000000  0.5471260000000 1.0
C      1  0.4381700000000  0.4804480000000  0.4885260000000 1.0
C      1  0.5565070000000  0.5254250000000  0.4924210000000 1.0
C      1  0.5373870000000  0.4966770000000  0.4467870000000 1.0
C      1  0.4733470000000  0.4498920000000  0.4683550000000 1.0
C      1  0.4909090000000  0.5008840000000  0.4398720000000 1.0
C      1  0.4366950000000  0.5099640000000  0.4863390000000 1.0
C      1  0.4546430000000  0.4724250000000  0.4657880000000 1.0
C      1  0.5159780000000  0.4557140000000  0.4520830000000 1.0
C      1  0.4721340000000  0.5202050000000  0.5501060000000 1.0
C      1  0.5437480000000  0.4520290000000  0.4995060000000 1.0
C      1  0.5288580000000  0.4326160000000  0.5126660000000 1.0
END
