TITL C-21071-1311-7 -0.0937679010831255 125000 -606.68951838711 0 0 88 (C1) n - 1
REM
REM in /rds/project/t2_vol4/rds-t2-cs072/BORA/CARBON/from-Arr/AIRSS/Generating-Clusters/GAP-ML-2020/Only-C1/SD-CG/HFTN-CG
REM
REM
REM
REM
REM
REM ./C.cell (11c1c37f851c82e70ff6c80c92926a4b)
REM AIRSS Version 0.9.1 bugfix July 2018 build 013d7b7c2542+ Fri, 06 Jul 2018 19:26:36 +0100
REM compiler GCC version 9.3.0
REM options -cpp -mtune=generic -march=x86-64 -g -O0
REM seed 1966623895 596489184 53247494 865379981 1945304827 350979873 -303727927 -595567656 -1061806819 -1234584802 1469109072 -1764439681 1424033440 365657795 435058038 -2033314792 -2118394571 -546095446 -613422123 -619108350 1892087115 -593039155 39514328 -1622983384 2001659307 694907057 -560408845 -1681387391 -410798226 -763040235 841276645 871539481 -1763582187
REM
CELL 1.54180   50.00000   50.00000   50.00000   90.00000   90.00000   90.00000
LATT -1
SFAC C  
C      1  0.4881580000000  0.5055630000000  0.4152140000000 1.0
C      1  0.5654310000000  0.5328490000000  0.5331790000000 1.0
C      1  0.4970100000000  0.5659540000000  0.4496130000000 1.0
C      1  0.5593930000000  0.4903410000000  0.4532370000000 1.0
C      1  0.4928150000000  0.4775500000000  0.4218650000000 1.0
C      1  0.4978310000000  0.5357650000000  0.4578700000000 1.0
C      1  0.4831020000000  0.4613240000000  0.5695050000000 1.0
C      1  0.4203440000000  0.5144730000000  0.4693770000000 1.0
C      1  0.4259610000000  0.5419820000000  0.4672470000000 1.0
C      1  0.5554890000000  0.5284080000000  0.5060530000000 1.0
C      1  0.4403900000000  0.5135540000000  0.5377810000000 1.0
C      1  0.5014810000000  0.4798490000000  0.5809420000000 1.0
C      1  0.4338170000000  0.5321710000000  0.5167730000000 1.0
C      1  0.5703620000000  0.4708090000000  0.4718550000000 1.0
C      1  0.4618510000000  0.5068040000000  0.4726680000000 1.0
C      1  0.5448970000000  0.4994230000000  0.5699330000000 1.0
C      1  0.5327780000000  0.5050890000000  0.5119210000000 1.0
C      1  0.5450190000000  0.5370500000000  0.4540120000000 1.0
C      1  0.5349160000000  0.4325090000000  0.4711410000000 1.0
C      1  0.5049170000000  0.5305580000000  0.5733130000000 1.0
C      1  0.5391230000000  0.5595340000000  0.4717830000000 1.0
C      1  0.4700730000000  0.5727740000000  0.4632710000000 1.0
C      1  0.5360940000000  0.5478640000000  0.4982270000000 1.0
C      1  0.5039620000000  0.5849280000000  0.4929470000000 1.0
C      1  0.4848940000000  0.5434000000000  0.5530250000000 1.0
C      1  0.4492620000000  0.4868740000000  0.4365760000000 1.0
C      1  0.5736390000000  0.4874090000000  0.4940380000000 1.0
C      1  0.5358930000000  0.4568260000000  0.5528930000000 1.0
C      1  0.5241520000000  0.5535960000000  0.5254490000000 1.0
C      1  0.4628370000000  0.4309730000000  0.4950960000000 1.0
C      1  0.5005480000000  0.5562290000000  0.4222630000000 1.0
C      1  0.5224760000000  0.5226070000000  0.4417580000000 1.0
C      1  0.4940020000000  0.4356010000000  0.5570430000000 1.0
C      1  0.5490010000000  0.4812270000000  0.5110710000000 1.0
C      1  0.5070420000000  0.5289340000000  0.4160760000000 1.0
C      1  0.4758770000000  0.5841060000000  0.4888780000000 1.0
C      1  0.5166630000000  0.4685650000000  0.4347810000000 1.0
C      1  0.5203060000000  0.4188030000000  0.4928390000000 1.0
C      1  0.5309480000000  0.4653500000000  0.4929600000000 1.0
C      1  0.5305430000000  0.4916580000000  0.4474000000000 1.0
C      1  0.4778560000000  0.5045100000000  0.4958330000000 1.0
C      1  0.4688600000000  0.5272800000000  0.4531650000000 1.0
C      1  0.4638130000000  0.5105100000000  0.4290510000000 1.0
C      1  0.4460420000000  0.4835340000000  0.5335320000000 1.0
C      1  0.4520610000000  0.5508960000000  0.4588800000000 1.0
C      1  0.4563840000000  0.4644250000000  0.5558530000000 1.0
C      1  0.5566870000000  0.4650170000000  0.5348600000000 1.0
C      1  0.4650520000000  0.5749770000000  0.5153980000000 1.0
C      1  0.4468350000000  0.4393100000000  0.5178310000000 1.0
C      1  0.4723580000000  0.4188630000000  0.5554250000000 1.0
C      1  0.5194120000000  0.4845640000000  0.4739950000000 1.0
C      1  0.4347770000000  0.4661280000000  0.4819010000000 1.0
C      1  0.4356120000000  0.4646050000000  0.5117090000000 1.0
C      1  0.5118900000000  0.5040480000000  0.5303030000000 1.0
C      1  0.5655750000000  0.5178120000000  0.4603740000000 1.0
C      1  0.4562870000000  0.5487210000000  0.5109450000000 1.0
C      1  0.4670600000000  0.4663200000000  0.4313970000000 1.0
C      1  0.4924480000000  0.4378470000000  0.4614300000000 1.0
C      1  0.5796520000000  0.5112010000000  0.5417890000000 1.0
C      1  0.5429950000000  0.5439600000000  0.5468800000000 1.0
C      1  0.4540230000000  0.4375100000000  0.5450370000000 1.0
C      1  0.5051420000000  0.5344910000000  0.4861930000000 1.0
C      1  0.4710680000000  0.4855210000000  0.5162750000000 1.0
C      1  0.5079830000000  0.4562120000000  0.5110750000000 1.0
C      1  0.5173580000000  0.4434270000000  0.4502280000000 1.0
C      1  0.4678130000000  0.4459810000000  0.4507860000000 1.0
C      1  0.4590620000000  0.5259450000000  0.5565670000000 1.0
C      1  0.5350240000000  0.4237740000000  0.5181770000000 1.0
C      1  0.4995620000000  0.5318210000000  0.5300890000000 1.0
C      1  0.5561930000000  0.4470150000000  0.4835040000000 1.0
C      1  0.4665210000000  0.5077630000000  0.5750710000000 1.0
C      1  0.4963180000000  0.4797250000000  0.5255530000000 1.0
C      1  0.4924610000000  0.5069820000000  0.5826000000000 1.0
C      1  0.4497600000000  0.4442770000000  0.4728400000000 1.0
C      1  0.5652410000000  0.4908380000000  0.5513850000000 1.0
C      1  0.5583940000000  0.4387210000000  0.5135830000000 1.0
C      1  0.4183290000000  0.5306040000000  0.4925530000000 1.0
C      1  0.5284670000000  0.4761450000000  0.5729750000000 1.0
C      1  0.5327450000000  0.5270670000000  0.5676470000000 1.0
C      1  0.5176060000000  0.5771700000000  0.4683090000000 1.0
C      1  0.4376380000000  0.4904100000000  0.4647380000000 1.0
C      1  0.5731960000000  0.5150310000000  0.4872540000000 1.0
C      1  0.4837330000000  0.5721800000000  0.5366730000000 1.0
C      1  0.4821880000000  0.5326600000000  0.5061300000000 1.0
C      1  0.5107720000000  0.5055610000000  0.4904080000000 1.0
C      1  0.5182740000000  0.4386480000000  0.5389820000000 1.0
C      1  0.5073020000000  0.5771030000000  0.5214430000000 1.0
C      1  0.4928730000000  0.4336070000000  0.4915000000000 1.0
END
