TITL C-21697-8294-9 -0.0269999787646873 125000 -308.85547838424 0 0 46 (C1) n - 1
REM
REM in /rds/project/t2_vol4/rds-t2-cs072/BORA/CARBON/from-Arr/AIRSS/Generating-Clusters/GAP-ML-2020/Only-C1/SD-CG/HFTN-CG
REM
REM
REM
REM
REM
REM ./C.cell (11c1c37f851c82e70ff6c80c92926a4b)
REM AIRSS Version 0.9.1 bugfix July 2018 build 013d7b7c2542+ Fri, 06 Jul 2018 19:26:36 +0100
REM compiler GCC version 9.3.0
REM options -cpp -mtune=generic -march=x86-64 -g -O0
REM seed -55358305 869362216 -1861418912 795710584 49102466 -388893574 141608005 1703934818 1647982647 -549800979 1200054817 -2067017093 -2063072868 -1292684906 -1128723638 1173477302 99640987 1448239606 1784788442 -1239552994 -1752984431 -329300372 1804221412 710007519 -772305268 18935496 726995663 -1364534865 1741357300 2116742317 379299126 785272999 -315905573
REM
CELL 1.54180   50.00000   50.00000   50.00000   90.00000   90.00000   90.00000
LATT -1
SFAC C  
C      1  0.5422560000000  0.4743390000000  0.5287080000000 1.0
C      1  0.4793430000000  0.4469770000000  0.4829430000000 1.0
C      1  0.5289280000000  0.4854420000000  0.4853430000000 1.0
C      1  0.4946750000000  0.4518620000000  0.5293210000000 1.0
C      1  0.5666900000000  0.4988840000000  0.4788240000000 1.0
C      1  0.4526480000000  0.5030450000000  0.5513300000000 1.0
C      1  0.5201920000000  0.4543380000000  0.5188200000000 1.0
C      1  0.5216880000000  0.5503900000000  0.4787190000000 1.0
C      1  0.5480360000000  0.4962760000000  0.5056880000000 1.0
C      1  0.5266190000000  0.4562640000000  0.4895520000000 1.0
C      1  0.5079090000000  0.4891970000000  0.5595630000000 1.0
C      1  0.5267440000000  0.5214340000000  0.4433630000000 1.0
C      1  0.4667180000000  0.4641420000000  0.4639150000000 1.0
C      1  0.5284960000000  0.5469130000000  0.5065980000000 1.0
C      1  0.5418410000000  0.5389350000000  0.4615990000000 1.0
C      1  0.5106430000000  0.5396770000000  0.5503500000000 1.0
C      1  0.5073610000000  0.5505880000000  0.5254500000000 1.0
C      1  0.4836770000000  0.4985920000000  0.4481630000000 1.0
C      1  0.4404190000000  0.4942240000000  0.5068280000000 1.0
C      1  0.4474950000000  0.5443990000000  0.4804050000000 1.0
C      1  0.4989930000000  0.4944440000000  0.4900910000000 1.0
C      1  0.4797690000000  0.5506420000000  0.5150950000000 1.0
C      1  0.4894010000000  0.5026080000000  0.5119340000000 1.0
C      1  0.5647290000000  0.4539160000000  0.5157190000000 1.0
C      1  0.4582950000000  0.4906790000000  0.4616090000000 1.0
C      1  0.4953880000000  0.5444470000000  0.4690940000000 1.0
C      1  0.4525650000000  0.4698980000000  0.5188100000000 1.0
C      1  0.4726300000000  0.4505280000000  0.5103680000000 1.0
C      1  0.4879590000000  0.4696390000000  0.5510060000000 1.0
C      1  0.4937210000000  0.4705620000000  0.4516310000000 1.0
C      1  0.4611720000000  0.4777120000000  0.5454580000000 1.0
C      1  0.5385070000000  0.4969660000000  0.4370890000000 1.0
C      1  0.4426040000000  0.5151070000000  0.5266660000000 1.0
C      1  0.4396970000000  0.5033700000000  0.4795240000000 1.0
C      1  0.5336480000000  0.4828050000000  0.5535560000000 1.0
C      1  0.5490670000000  0.5264320000000  0.5059630000000 1.0
C      1  0.5552810000000  0.4477560000000  0.4927270000000 1.0
C      1  0.4982890000000  0.5176710000000  0.5603390000000 1.0
C      1  0.4275810000000  0.5300780000000  0.4738880000000 1.0
C      1  0.5473470000000  0.4867710000000  0.4604080000000 1.0
C      1  0.4987360000000  0.5226740000000  0.4499540000000 1.0
C      1  0.4737910000000  0.5503840000000  0.4869980000000 1.0
C      1  0.5609280000000  0.5270780000000  0.4792690000000 1.0
C      1  0.4713790000000  0.5235620000000  0.5550680000000 1.0
C      1  0.4609630000000  0.5377930000000  0.5317010000000 1.0
C      1  0.5051840000000  0.4505570000000  0.4705530000000 1.0
END
