TITL C-2109093-6227-19 -0.0650376934486692 125000 -343.025834583109 0 0 51 (C1) n - 1
REM
REM in /nfs/bkarasulu/CARBON/AIRSS/Generating-Clusters/GAP-ML-2020/Only-C1/SD-CG/HFTN-CG
REM
REM
REM
REM
REM
REM ./C.cell (11c1c37f851c82e70ff6c80c92926a4b)
REM
REM compiler GCC version 9.2.1 20190827 (Red Hat 9.2.1-1)
REM options -cpp -mtune=generic -march=x86-64 -g -O0 -fpre-include=/usr/include/finclude/math-vector-fortran.h
REM seed 1073412631 -294746332 1418385371 1960710435 -144643729 -1675734862 -527803856 976953376 1049494291 719165513 1313078140 -1120757389 -4236434 33392092 -1464479366 155774938 -293322114 1224351056 -633469763 -876721678 -287561114 1107793500 1579970780 -816134513 -401465543 1177132357 -1772573332 -1066093871 580523809 274776144 703296711 -912536104 2022905410
REM
CELL 1.54180   50.00000   50.00000   50.00000   90.00000   90.00000   90.00000
LATT -1
SFAC C  
C      1  0.5308820000000  0.5231690000000  0.4893500000000 1.0
C      1  0.5542690000000  0.4766830000000  0.4982850000000 1.0
C      1  0.5054270000000  0.4491760000000  0.5380360000000 1.0
C      1  0.5154510000000  0.4524010000000  0.4822850000000 1.0
C      1  0.5067800000000  0.4957090000000  0.5641110000000 1.0
C      1  0.5050270000000  0.4616080000000  0.4287190000000 1.0
C      1  0.4944120000000  0.5447560000000  0.4628890000000 1.0
C      1  0.5128010000000  0.4946470000000  0.5201130000000 1.0
C      1  0.5526230000000  0.4523040000000  0.5485820000000 1.0
C      1  0.5099520000000  0.4811050000000  0.4932610000000 1.0
C      1  0.4960840000000  0.4693100000000  0.5565700000000 1.0
C      1  0.5039110000000  0.5641780000000  0.5085850000000 1.0
C      1  0.5515060000000  0.5646920000000  0.5100280000000 1.0
C      1  0.5390090000000  0.4521530000000  0.5014390000000 1.0
C      1  0.4862510000000  0.5589510000000  0.4866710000000 1.0
C      1  0.5690810000000  0.5171260000000  0.5183990000000 1.0
C      1  0.5514970000000  0.4791770000000  0.5449460000000 1.0
C      1  0.4513530000000  0.5215150000000  0.4567700000000 1.0
C      1  0.5018050000000  0.5427820000000  0.5282190000000 1.0
C      1  0.4375310000000  0.5192120000000  0.5202320000000 1.0
C      1  0.4633210000000  0.5452670000000  0.4969230000000 1.0
C      1  0.4651020000000  0.4526270000000  0.4860490000000 1.0
C      1  0.4876520000000  0.4392150000000  0.5189800000000 1.0
C      1  0.4306960000000  0.5137460000000  0.4925730000000 1.0
C      1  0.4908510000000  0.4391820000000  0.4899980000000 1.0
C      1  0.4556130000000  0.5413330000000  0.5256340000000 1.0
C      1  0.4798740000000  0.5130180000000  0.4986060000000 1.0
C      1  0.4921660000000  0.4828760000000  0.4199540000000 1.0
C      1  0.5328210000000  0.4882940000000  0.4544310000000 1.0
C      1  0.4874580000000  0.4931530000000  0.4794440000000 1.0
C      1  0.5195840000000  0.5322950000000  0.4634260000000 1.0
C      1  0.4420060000000  0.4968900000000  0.4702590000000 1.0
C      1  0.4630740000000  0.4774550000000  0.4734210000000 1.0
C      1  0.5180500000000  0.4632520000000  0.4536900000000 1.0
C      1  0.4827000000000  0.5108890000000  0.5571070000000 1.0
C      1  0.5273120000000  0.4946840000000  0.5453600000000 1.0
C      1  0.4940120000000  0.5080970000000  0.4325540000000 1.0
C      1  0.5543710000000  0.5365190000000  0.5055280000000 1.0
C      1  0.5368740000000  0.4940200000000  0.4819750000000 1.0
C      1  0.4421850000000  0.5365250000000  0.4793910000000 1.0
C      1  0.4718320000000  0.4834120000000  0.5520680000000 1.0
C      1  0.4576990000000  0.4757040000000  0.5289510000000 1.0
C      1  0.5202930000000  0.5117250000000  0.4441990000000 1.0
C      1  0.5658100000000  0.4900750000000  0.5209760000000 1.0
C      1  0.4621720000000  0.4513640000000  0.5152250000000 1.0
C      1  0.4768770000000  0.5274690000000  0.4469080000000 1.0
C      1  0.4569740000000  0.4999640000000  0.5162910000000 1.0
C      1  0.4786270000000  0.5355820000000  0.5431310000000 1.0
C      1  0.5329770000000  0.4477470000000  0.5293130000000 1.0
C      1  0.5069050000000  0.5204510000000  0.5102790000000 1.0
C      1  0.5284570000000  0.5765210000000  0.5098650000000 1.0
END
