TITL C-215714-9180-7 -0.00679123646980792 125000 -32.9154378912513 0 0 6 (Cs) n - 1
REM
REM in /rds/project/t2_vol4/rds-t2-cs072/BORA/CARBON/from-Arr/AIRSS/Generating-Clusters/GAP-ML-2020/Only-C1/SD-CG/HFTN-CG
REM
REM
REM
REM
REM
REM ./C.cell (11c1c37f851c82e70ff6c80c92926a4b)
REM AIRSS Version 0.9.1 bugfix July 2018 build 013d7b7c2542+ Fri, 06 Jul 2018 19:26:36 +0100
REM compiler GCC version 9.3.0
REM options -cpp -mtune=generic -march=x86-64 -g -O0
REM seed -1040581329 -1519705568 -516212160 -173394634 1109214771 1792953729 1930796872 187285906 1699924141 -307092948 -728358484 589647915 -1877878734 1386933106 -1252283280 809608015 -538481567 151539527 -203776532 -8705562 221904962 330277737 297991340 -559284747 -14357709 -1455093511 -75484290 -1684577082 -1943087057 1006135373 -236944951 -730207944 1940627705
REM
CELL 1.54180   50.00000   50.00000   50.00000   90.00000   90.00000   90.00000
LATT -1
SFAC C  
C      1  0.5215310000000  0.5137110000000  0.5011090000000 1.0
C      1  0.4865800000000  0.4818340000000  0.5017910000000 1.0
C      1  0.4711850000000  0.5243540000000  0.4874950000000 1.0
C      1  0.4815650000000  0.4580700000000  0.5068410000000 1.0
C      1  0.5459680000000  0.5133660000000  0.5064730000000 1.0
C      1  0.4931700000000  0.5086650000000  0.4962900000000 1.0
END
