TITL C-216140-3415-2 0.063723074033279 125000 -474.118432023817 0 0 70 (C1) n - 1
REM
REM in /rds/project/t2_vol4/rds-t2-cs072/BORA/CARBON/from-Arr/AIRSS/Generating-Clusters/GAP-ML-2020/Only-C1/SD-CG/HFTN-CG
REM
REM
REM
REM
REM
REM ./C.cell (11c1c37f851c82e70ff6c80c92926a4b)
REM AIRSS Version 0.9.1 bugfix July 2018 build 013d7b7c2542+ Fri, 06 Jul 2018 19:26:36 +0100
REM compiler GCC version 9.3.0
REM options -cpp -mtune=generic -march=x86-64 -g -O0
REM seed -1889363681 -145634118 -304293500 -69259881 -13398810 241161212 -1435460020 -1568231294 844276194 -1894406584 -18878248 1708729271 -2071076127 -1995157413 836233099 -965219945 65678180 116782600 -493366457 1213008524 355366911 265191806 2072169303 34033299 1541346341 467812185 -878829533 1868048242 -142363276 -463209906 523753050 -1307250145 1842230906
REM
CELL 1.54180   50.00000   50.00000   50.00000   90.00000   90.00000   90.00000
LATT -1
SFAC C  
C      1  0.4847080000000  0.5639270000000  0.5310270000000 1.0
C      1  0.4337340000000  0.4714390000000  0.4650840000000 1.0
C      1  0.5149990000000  0.4285140000000  0.5072430000000 1.0
C      1  0.5702050000000  0.4518000000000  0.5022860000000 1.0
C      1  0.5606590000000  0.4583790000000  0.4439730000000 1.0
C      1  0.5441640000000  0.5101350000000  0.4411510000000 1.0
C      1  0.4649360000000  0.4910390000000  0.5489060000000 1.0
C      1  0.5684920000000  0.4790330000000  0.4994710000000 1.0
C      1  0.4309590000000  0.5188160000000  0.4693740000000 1.0
C      1  0.4606660000000  0.5479710000000  0.5334200000000 1.0
C      1  0.5055300000000  0.5785800000000  0.4832740000000 1.0
C      1  0.5385370000000  0.5422460000000  0.5059290000000 1.0
C      1  0.5039460000000  0.4720040000000  0.5679670000000 1.0
C      1  0.5248810000000  0.5400690000000  0.5509480000000 1.0
C      1  0.4964750000000  0.5645780000000  0.5041910000000 1.0
C      1  0.5232820000000  0.4571310000000  0.5535350000000 1.0
C      1  0.4798470000000  0.4468580000000  0.5352800000000 1.0
C      1  0.5101930000000  0.4854610000000  0.5051440000000 1.0
C      1  0.5520930000000  0.5002930000000  0.5585620000000 1.0
C      1  0.5469400000000  0.4808230000000  0.4415320000000 1.0
C      1  0.5088200000000  0.5374070000000  0.5047980000000 1.0
C      1  0.4777550000000  0.4660410000000  0.5568920000000 1.0
C      1  0.4609610000000  0.4863370000000  0.5209390000000 1.0
C      1  0.4527450000000  0.5465200000000  0.4350130000000 1.0
C      1  0.4856630000000  0.5134760000000  0.5542240000000 1.0
C      1  0.4522890000000  0.5270710000000  0.4870520000000 1.0
C      1  0.4605420000000  0.4675750000000  0.4638290000000 1.0
C      1  0.4626850000000  0.5311760000000  0.5567580000000 1.0
C      1  0.5233440000000  0.4943430000000  0.4810050000000 1.0
C      1  0.5048460000000  0.5598500000000  0.5512960000000 1.0
C      1  0.5075800000000  0.4402140000000  0.5336000000000 1.0
C      1  0.4818240000000  0.4863810000000  0.5000040000000 1.0
C      1  0.5626300000000  0.5192150000000  0.5384420000000 1.0
C      1  0.5008510000000  0.4908440000000  0.4399490000000 1.0
C      1  0.5058990000000  0.5006070000000  0.5717110000000 1.0
C      1  0.5300170000000  0.5144460000000  0.5690260000000 1.0
C      1  0.4375600000000  0.5238130000000  0.4428740000000 1.0
C      1  0.4421840000000  0.5097120000000  0.5582440000000 1.0
C      1  0.5636190000000  0.4669380000000  0.5248050000000 1.0
C      1  0.5060850000000  0.5231380000000  0.5321890000000 1.0
C      1  0.5221130000000  0.5009890000000  0.5245430000000 1.0
C      1  0.4771230000000  0.5095720000000  0.4798900000000 1.0
C      1  0.5477170000000  0.5139280000000  0.5135330000000 1.0
C      1  0.5388370000000  0.4144750000000  0.5012700000000 1.0
C      1  0.4235680000000  0.4894310000000  0.5076180000000 1.0
C      1  0.5150300000000  0.5589000000000  0.4409920000000 1.0
C      1  0.5234580000000  0.5650500000000  0.4658600000000 1.0
C      1  0.5198660000000  0.4473190000000  0.4635840000000 1.0
C      1  0.4236200000000  0.5154390000000  0.5236700000000 1.0
C      1  0.4744120000000  0.5329520000000  0.4243020000000 1.0
C      1  0.5570120000000  0.4297390000000  0.4872370000000 1.0
C      1  0.4594320000000  0.5077480000000  0.4317080000000 1.0
C      1  0.4611050000000  0.4486750000000  0.5126060000000 1.0
C      1  0.4171210000000  0.5153830000000  0.5508070000000 1.0
C      1  0.5029190000000  0.5381010000000  0.4276880000000 1.0
C      1  0.4758360000000  0.4549980000000  0.4867750000000 1.0
C      1  0.4228030000000  0.4931720000000  0.4793860000000 1.0
C      1  0.5529520000000  0.5012870000000  0.4879610000000 1.0
C      1  0.4400850000000  0.4675730000000  0.5161460000000 1.0
C      1  0.4434600000000  0.5353630000000  0.5133800000000 1.0
C      1  0.5011830000000  0.4393910000000  0.4837140000000 1.0
C      1  0.5445670000000  0.5470300000000  0.4773390000000 1.0
C      1  0.5045120000000  0.5208010000000  0.4803600000000 1.0
C      1  0.5471260000000  0.4388710000000  0.4613490000000 1.0
C      1  0.5488340000000  0.4717670000000  0.5490500000000 1.0
C      1  0.4738770000000  0.4923560000000  0.4509280000000 1.0
C      1  0.5532880000000  0.5223100000000  0.4651230000000 1.0
C      1  0.5164070000000  0.5135850000000  0.4322030000000 1.0
C      1  0.5201150000000  0.4758360000000  0.4555570000000 1.0
C      1  0.5484770000000  0.5437630000000  0.5344770000000 1.0
END
