TITL C-21782-1978-4 4.22595117109671 125000 -74.0010030830085 0 0 12 (C1) n - 1
REM
REM in /rds/project/t2_vol4/rds-t2-cs072/BORA/CARBON/from-Arr/AIRSS/Generating-Clusters/GAP-ML-2020/Only-C1/SD-CG/HFTN-CG
REM
REM
REM
REM
REM
REM ./C.cell (11c1c37f851c82e70ff6c80c92926a4b)
REM AIRSS Version 0.9.1 bugfix July 2018 build 013d7b7c2542+ Fri, 06 Jul 2018 19:26:36 +0100
REM compiler GCC version 9.3.0
REM options -cpp -mtune=generic -march=x86-64 -g -O0
REM seed -1253639751 -248085171 1957845176 470029201 -1119420888 873133090 599559189 -508693953 -1095839419 -145205404 366689793 -1380214428 -2077229767 1549309480 -2038112992 -1747188009 -2062973114 1996515045 -483885584 -2124162292 -1925469976 1745423351 -769194461 1044060526 -544651188 -1088731428 1688679767 -590834996 -712713705 1899085810 -442207740 92830043 237411665
REM
CELL 1.54180   50.00000   50.00000   50.00000   90.00000   90.00000   90.00000
LATT -1
SFAC C  
C      1  0.4445500000000  0.4847780000000  0.4616740000000 1.0
C      1  0.4818150000000  0.4415550000000  0.5071410000000 1.0
C      1  0.4939160000000  0.4619430000000  0.5171930000000 1.0
C      1  0.4892510000000  0.5091470000000  0.4668030000000 1.0
C      1  0.4676080000000  0.4972390000000  0.4614780000000 1.0
C      1  0.5104620000000  0.5189140000000  0.4791070000000 1.0
C      1  0.5190360000000  0.5440320000000  0.5205240000000 1.0
C      1  0.5174370000000  0.4993790000000  0.5423070000000 1.0
C      1  0.5321540000000  0.5063390000000  0.4938490000000 1.0
C      1  0.5132260000000  0.5414340000000  0.4955480000000 1.0
C      1  0.5257490000000  0.5159730000000  0.5214750000000 1.0
C      1  0.5047940000000  0.4792670000000  0.5329010000000 1.0
END
