TITL C-21805-4470-5 -59.4647511104573 125000 -249.090709762336 0 0 38 (C1) n - 1
REM
REM in /rds/project/t2_vol4/rds-t2-cs072/BORA/CARBON/from-Arr/AIRSS/Generating-Clusters/GAP-ML-2020/Only-C1/SD-CG/HFTN-CG
REM
REM
REM
REM
REM
REM ./C.cell (11c1c37f851c82e70ff6c80c92926a4b)
REM AIRSS Version 0.9.1 bugfix July 2018 build 013d7b7c2542+ Fri, 06 Jul 2018 19:26:36 +0100
REM compiler GCC version 9.3.0
REM options -cpp -mtune=generic -march=x86-64 -g -O0
REM seed 1911571491 1649043143 2057639580 -388213958 276555402 -97422567 935706071 -948583828 -2047675 -1230387090 2083974317 -400055941 499461254 529894017 -128576585 773299095 1892729067 1694734678 205995677 671880197 292938352 1148359269 -1106366190 1828631960 1171985501 -982803783 1973857266 1182358064 1074900227 426610078 -1439865998 1234421830 -2138507539
REM
CELL 1.54180   50.00000   50.00000   50.00000   90.00000   90.00000   90.00000
LATT -1
SFAC C  
C      1  0.5265610000000  0.5458170000000  0.5264450000000 1.0
C      1  0.5086580000000  0.5237180000000  0.4573100000000 1.0
C      1  0.5161040000000  0.4244740000000  0.4933150000000 1.0
C      1  0.5373790000000  0.4663820000000  0.4777250000000 1.0
C      1  0.4441190000000  0.4668210000000  0.4945890000000 1.0
C      1  0.4953200000000  0.5198160000000  0.5046050000000 1.0
C      1  0.5446310000000  0.5108200000000  0.4855000000000 1.0
C      1  0.4965010000000  0.4433000000000  0.4995440000000 1.0
C      1  0.5081510000000  0.5500030000000  0.4626520000000 1.0
C      1  0.4619240000000  0.4684750000000  0.4733690000000 1.0
C      1  0.5038010000000  0.4971360000000  0.4434270000000 1.0
C      1  0.5057390000000  0.4576320000000  0.5247050000000 1.0
C      1  0.4453140000000  0.4844250000000  0.5157840000000 1.0
C      1  0.5526540000000  0.4846620000000  0.4929430000000 1.0
C      1  0.4991610000000  0.5487230000000  0.5138870000000 1.0
C      1  0.4523790000000  0.5363540000000  0.5147990000000 1.0
C      1  0.5292880000000  0.5187300000000  0.5360940000000 1.0
C      1  0.4614790000000  0.5056260000000  0.5562610000000 1.0
C      1  0.5125680000000  0.5591310000000  0.4885760000000 1.0
C      1  0.4804040000000  0.5240110000000  0.5487060000000 1.0
C      1  0.4602290000000  0.4910110000000  0.4534290000000 1.0
C      1  0.4738690000000  0.5461140000000  0.5308820000000 1.0
C      1  0.5353590000000  0.4433710000000  0.4943820000000 1.0
C      1  0.4796640000000  0.4911070000000  0.4325880000000 1.0
C      1  0.4665480000000  0.5210500000000  0.4924210000000 1.0
C      1  0.4583680000000  0.5145510000000  0.4666040000000 1.0
C      1  0.5348960000000  0.4555650000000  0.5228740000000 1.0
C      1  0.5384050000000  0.5528230000000  0.5011130000000 1.0
C      1  0.5555940000000  0.5348290000000  0.4901120000000 1.0
C      1  0.4631780000000  0.4831140000000  0.5389010000000 1.0
C      1  0.4915570000000  0.4791960000000  0.5355160000000 1.0
C      1  0.5149110000000  0.5091770000000  0.4826110000000 1.0
C      1  0.4411860000000  0.5125040000000  0.5099910000000 1.0
C      1  0.5008700000000  0.5073470000000  0.5330690000000 1.0
C      1  0.5507810000000  0.5022300000000  0.5366610000000 1.0
C      1  0.4889010000000  0.4611010000000  0.4771330000000 1.0
C      1  0.5110570000000  0.4803230000000  0.4696950000000 1.0
C      1  0.5524920000000  0.4785300000000  0.5217810000000 1.0
END
