TITL C-215738-402-5 -388.057718649898 125000 -963.389324405381 0 0 135 (C1) n - 1
REM
REM in /rds/project/t2_vol4/rds-t2-cs072/BORA/CARBON/from-Arr/AIRSS/Generating-Clusters/GAP-ML-2020/Only-C1/SD-CG/HFTN-CG
REM
REM
REM
REM
REM
REM ./C.cell (11c1c37f851c82e70ff6c80c92926a4b)
REM AIRSS Version 0.9.1 bugfix July 2018 build 013d7b7c2542+ Fri, 06 Jul 2018 19:26:36 +0100
REM compiler GCC version 9.3.0
REM options -cpp -mtune=generic -march=x86-64 -g -O0
REM seed -1221512008 -570739080 -1851999697 -1784634309 -853221521 -1697538919 -1301441215 1382480360 -1491120186 -1795109505 -1373533442 -179449832 72356730 2082927587 -1955216551 -370557628 -1396478786 1191012669 -1504473609 -82331310 -736976071 -807038764 -1464676761 -607181235 1114300959 -2090972970 483904841 66527028 1827144046 1840036488 1566937255 1963279174 583828577
REM
CELL 1.54180   50.00000   50.00000   50.00000   90.00000   90.00000   90.00000
LATT -1
SFAC C  
C      1  0.5436080000000  0.5242500000000  0.4853420000000 1.0
C      1  0.5943780000000  0.4978010000000  0.5279860000000 1.0
C      1  0.4989570000000  0.5425790000000  0.4706530000000 1.0
C      1  0.5185410000000  0.4595760000000  0.5818790000000 1.0
C      1  0.4708220000000  0.5302410000000  0.4266640000000 1.0
C      1  0.5529950000000  0.4916020000000  0.5814430000000 1.0
C      1  0.4613860000000  0.4810530000000  0.4837420000000 1.0
C      1  0.4738100000000  0.5851550000000  0.4705810000000 1.0
C      1  0.5313340000000  0.4969120000000  0.4854190000000 1.0
C      1  0.4592390000000  0.4268290000000  0.5332840000000 1.0
C      1  0.5275860000000  0.5099710000000  0.4436820000000 1.0
C      1  0.4234950000000  0.4490370000000  0.5039730000000 1.0
C      1  0.5875540000000  0.5335160000000  0.4982390000000 1.0
C      1  0.4559440000000  0.4470420000000  0.5528710000000 1.0
C      1  0.4853940000000  0.4396570000000  0.4234940000000 1.0
C      1  0.4780880000000  0.5240880000000  0.4561310000000 1.0
C      1  0.5544500000000  0.4426060000000  0.5544330000000 1.0
C      1  0.4434840000000  0.5754550000000  0.5459500000000 1.0
C      1  0.4848340000000  0.4956900000000  0.4687020000000 1.0
C      1  0.4486570000000  0.5076340000000  0.4285510000000 1.0
C      1  0.5283220000000  0.5724770000000  0.5359030000000 1.0
C      1  0.4495950000000  0.4347970000000  0.5047820000000 1.0
C      1  0.5194350000000  0.5277480000000  0.5963610000000 1.0
C      1  0.4608470000000  0.5270450000000  0.4988230000000 1.0
C      1  0.4328850000000  0.4685530000000  0.5473510000000 1.0
C      1  0.4948780000000  0.5079270000000  0.5404050000000 1.0
C      1  0.4588940000000  0.4994290000000  0.5092380000000 1.0
C      1  0.4224900000000  0.5626950000000  0.4793270000000 1.0
C      1  0.4861070000000  0.4938210000000  0.4037460000000 1.0
C      1  0.5786440000000  0.4418390000000  0.4877280000000 1.0
C      1  0.5816140000000  0.5185550000000  0.5443670000000 1.0
C      1  0.4003750000000  0.4897060000000  0.4915220000000 1.0
C      1  0.5307550000000  0.5010760000000  0.5970240000000 1.0
C      1  0.4986270000000  0.4260650000000  0.4492120000000 1.0
C      1  0.5439270000000  0.4237790000000  0.4626330000000 1.0
C      1  0.4586310000000  0.4893990000000  0.5818210000000 1.0
C      1  0.4848300000000  0.4136480000000  0.5344770000000 1.0
C      1  0.4815460000000  0.4611480000000  0.5488750000000 1.0
C      1  0.5268150000000  0.4255460000000  0.4411630000000 1.0
C      1  0.4174590000000  0.5369160000000  0.5461920000000 1.0
C      1  0.5353910000000  0.4857900000000  0.4061720000000 1.0
C      1  0.4905470000000  0.5212480000000  0.4078570000000 1.0
C      1  0.4875780000000  0.3998270000000  0.5116730000000 1.0
C      1  0.5284990000000  0.4148120000000  0.4862820000000 1.0
C      1  0.4275610000000  0.5112790000000  0.5535190000000 1.0
C      1  0.5643600000000  0.4432180000000  0.4637160000000 1.0
C      1  0.4959920000000  0.4488570000000  0.4722100000000 1.0
C      1  0.5393750000000  0.4998670000000  0.5271740000000 1.0
C      1  0.4490440000000  0.5400060000000  0.5807560000000 1.0
C      1  0.4450170000000  0.4276950000000  0.4596060000000 1.0
C      1  0.4614000000000  0.4847680000000  0.4162240000000 1.0
C      1  0.4615220000000  0.4566480000000  0.4253460000000 1.0
C      1  0.5447100000000  0.5512150000000  0.4414410000000 1.0
C      1  0.4163850000000  0.4671050000000  0.4829480000000 1.0
C      1  0.4113290000000  0.5494230000000  0.5209920000000 1.0
C      1  0.4090790000000  0.5408520000000  0.4923910000000 1.0
C      1  0.5379110000000  0.5135770000000  0.4151900000000 1.0
C      1  0.4336290000000  0.5548020000000  0.5623210000000 1.0
C      1  0.5684690000000  0.4294780000000  0.5116490000000 1.0
C      1  0.5599280000000  0.4693100000000  0.4491350000000 1.0
C      1  0.5759190000000  0.5180210000000  0.4505940000000 1.0
C      1  0.4976630000000  0.5347420000000  0.5275530000000 1.0
C      1  0.4735720000000  0.4555330000000  0.4938570000000 1.0
C      1  0.5363310000000  0.4801160000000  0.5079370000000 1.0
C      1  0.5975990000000  0.5079900000000  0.5013240000000 1.0
C      1  0.5207700000000  0.5839200000000  0.4870540000000 1.0
C      1  0.4121460000000  0.4615330000000  0.5277830000000 1.0
C      1  0.5302830000000  0.4847400000000  0.4583010000000 1.0
C      1  0.5801760000000  0.4906360000000  0.4568760000000 1.0
C      1  0.4639790000000  0.5890300000000  0.4965890000000 1.0
C      1  0.5080430000000  0.4221060000000  0.5503050000000 1.0
C      1  0.5283860000000  0.5481480000000  0.5793550000000 1.0
C      1  0.5011690000000  0.5051680000000  0.4915040000000 1.0
C      1  0.5108670000000  0.5858320000000  0.5144960000000 1.0
C      1  0.5190190000000  0.4581320000000  0.5113810000000 1.0
C      1  0.5156190000000  0.5698590000000  0.5648930000000 1.0
C      1  0.4469860000000  0.4937120000000  0.5376830000000 1.0
C      1  0.5220050000000  0.5038250000000  0.5494510000000 1.0
C      1  0.5002130000000  0.5697440000000  0.4355490000000 1.0
C      1  0.5460620000000  0.4626560000000  0.5743320000000 1.0
C      1  0.5165790000000  0.5327230000000  0.4090250000000 1.0
C      1  0.4517040000000  0.5276510000000  0.4689260000000 1.0
C      1  0.5092000000000  0.4827180000000  0.5966540000000 1.0
C      1  0.5012410000000  0.4451540000000  0.5650750000000 1.0
C      1  0.4825980000000  0.5885780000000  0.5196450000000 1.0
C      1  0.5722930000000  0.5365970000000  0.4736840000000 1.0
C      1  0.4761070000000  0.5473570000000  0.5843580000000 1.0
C      1  0.5353290000000  0.4222650000000  0.5414410000000 1.0
C      1  0.5449980000000  0.5281210000000  0.5149860000000 1.0
C      1  0.5918480000000  0.4684810000000  0.5246350000000 1.0
C      1  0.4407770000000  0.5126830000000  0.5787850000000 1.0
C      1  0.5174380000000  0.4413260000000  0.4894530000000 1.0
C      1  0.5264110000000  0.5432900000000  0.5318520000000 1.0
C      1  0.4361080000000  0.5811060000000  0.4976530000000 1.0
C      1  0.4778700000000  0.3999080000000  0.4863410000000 1.0
C      1  0.5490570000000  0.4646890000000  0.4207040000000 1.0
C      1  0.4912660000000  0.5255780000000  0.5964840000000 1.0
C      1  0.4875450000000  0.5697220000000  0.5672390000000 1.0
C      1  0.5722710000000  0.5398350000000  0.5233060000000 1.0
C      1  0.5587590000000  0.5274710000000  0.4303190000000 1.0
C      1  0.4369410000000  0.4765900000000  0.4652050000000 1.0
C      1  0.4394590000000  0.5537280000000  0.4598750000000 1.0
C      1  0.5937310000000  0.4639810000000  0.4963450000000 1.0
C      1  0.5005670000000  0.4044180000000  0.4706230000000 1.0
C      1  0.3947290000000  0.4807030000000  0.5174180000000 1.0
C      1  0.5599020000000  0.5620530000000  0.4633930000000 1.0
C      1  0.5608030000000  0.5698110000000  0.5266570000000 1.0
C      1  0.4435860000000  0.4639830000000  0.5729430000000 1.0
C      1  0.4840670000000  0.4970800000000  0.5965490000000 1.0
C      1  0.4325880000000  0.5062130000000  0.4570360000000 1.0
C      1  0.4738240000000  0.5606840000000  0.4304000000000 1.0
C      1  0.4530290000000  0.4153790000000  0.4824590000000 1.0
C      1  0.4083050000000  0.5146750000000  0.4786170000000 1.0
C      1  0.4444270000000  0.4520700000000  0.4475060000000 1.0
C      1  0.4907960000000  0.4644710000000  0.5184160000000 1.0
C      1  0.4887130000000  0.4930650000000  0.5158180000000 1.0
C      1  0.5656350000000  0.5863730000000  0.5058380000000 1.0
C      1  0.5946400000000  0.4876110000000  0.4811060000000 1.0
C      1  0.5495280000000  0.5807370000000  0.4828270000000 1.0
C      1  0.5756020000000  0.4457880000000  0.5347720000000 1.0
C      1  0.4580700000000  0.5720590000000  0.4503520000000 1.0
C      1  0.4900250000000  0.5331050000000  0.4986620000000 1.0
C      1  0.5066290000000  0.4493390000000  0.4079770000000 1.0
C      1  0.4271570000000  0.5737410000000  0.5225370000000 1.0
C      1  0.5378940000000  0.5306280000000  0.5594500000000 1.0
C      1  0.5027080000000  0.4746440000000  0.4589370000000 1.0
C      1  0.5006270000000  0.5750060000000  0.4664160000000 1.0
C      1  0.4715130000000  0.5814260000000  0.5455480000000 1.0
C      1  0.5323000000000  0.4417560000000  0.4191000000000 1.0
C      1  0.5445660000000  0.4150000000000  0.5138460000000 1.0
C      1  0.5214400000000  0.5561380000000  0.4240940000000 1.0
C      1  0.5087840000000  0.4767610000000  0.3999690000000 1.0
C      1  0.5261530000000  0.5331310000000  0.4616720000000 1.0
C      1  0.5632180000000  0.5143990000000  0.5653640000000 1.0
C      1  0.4728750000000  0.4901220000000  0.5543200000000 1.0
END
