TITL C-2114529-1331-35 8.76526544900561 125000 -1266.4195686099 0 0 181 (C1) n - 1
REM
REM in /nfs/bkarasulu/CARBON/AIRSS/Generating-Clusters/GAP-ML-2020/Only-C1/SD-CG/HFTN-CG
REM
REM
REM
REM
REM
REM ./C.cell (11c1c37f851c82e70ff6c80c92926a4b)
REM
REM compiler GCC version 9.2.1 20190827 (Red Hat 9.2.1-1)
REM options -cpp -mtune=generic -march=x86-64 -g -O0 -fpre-include=/usr/include/finclude/math-vector-fortran.h
REM seed -1717076289 1151001686 -1369144641 642321308 -2005632670 -1249840710 1792094051 900866349 1092536283 1452391140 500471567 1443657472 2058219004 -845937362 -42729023 770634697 406320279 -2108870326 -1943621671 -1405347802 -1566044648 966266806 1301690044 237881768 673012363 1403425571 350699170 1160573907 -1975663967 -1094053323 -825339772 1685558454 1428544109
REM
CELL 1.54180   50.00000   50.00000   50.00000   90.00000   90.00000   90.00000
LATT -1
SFAC C  
C      1  0.4865450000000  0.5326020000000  0.3878530000000 1.0
C      1  0.4177140000000  0.5644960000000  0.5127150000000 1.0
C      1  0.6055670000000  0.4906650000000  0.5257790000000 1.0
C      1  0.5344850000000  0.5172070000000  0.4867650000000 1.0
C      1  0.4660250000000  0.4350630000000  0.4225250000000 1.0
C      1  0.5972430000000  0.4647040000000  0.5307720000000 1.0
C      1  0.5334260000000  0.4685250000000  0.4671570000000 1.0
C      1  0.5474410000000  0.5132150000000  0.4612210000000 1.0
C      1  0.5939360000000  0.4524560000000  0.5055700000000 1.0
C      1  0.4231860000000  0.4461370000000  0.4371720000000 1.0
C      1  0.5350120000000  0.5401530000000  0.5859560000000 1.0
C      1  0.6052930000000  0.5373720000000  0.5364130000000 1.0
C      1  0.5604360000000  0.5377250000000  0.5706130000000 1.0
C      1  0.4759740000000  0.3902230000000  0.4971530000000 1.0
C      1  0.5056310000000  0.4542390000000  0.4091200000000 1.0
C      1  0.5693830000000  0.5619060000000  0.5550070000000 1.0
C      1  0.4883730000000  0.4952210000000  0.5017690000000 1.0
C      1  0.4594770000000  0.5635160000000  0.5463240000000 1.0
C      1  0.4646420000000  0.5092740000000  0.5465670000000 1.0
C      1  0.4484260000000  0.5117040000000  0.4937710000000 1.0
C      1  0.5895520000000  0.5669150000000  0.5066750000000 1.0
C      1  0.3980510000000  0.4812020000000  0.5194380000000 1.0
C      1  0.4362800000000  0.4794720000000  0.5760610000000 1.0
C      1  0.5371610000000  0.5391470000000  0.4103030000000 1.0
C      1  0.5365680000000  0.5955140000000  0.4504200000000 1.0
C      1  0.4879200000000  0.5090640000000  0.4712440000000 1.0
C      1  0.5585490000000  0.4631340000000  0.4770140000000 1.0
C      1  0.3992560000000  0.4291840000000  0.5405860000000 1.0
C      1  0.5897240000000  0.5596670000000  0.5347990000000 1.0
C      1  0.4550040000000  0.4173850000000  0.4646000000000 1.0
C      1  0.4449820000000  0.4284890000000  0.4400740000000 1.0
C      1  0.5308320000000  0.4861130000000  0.5539620000000 1.0
C      1  0.5760070000000  0.4220160000000  0.5077800000000 1.0
C      1  0.4265590000000  0.4474290000000  0.5102180000000 1.0
C      1  0.5717950000000  0.4333700000000  0.5556610000000 1.0
C      1  0.4270200000000  0.4947010000000  0.4211540000000 1.0
C      1  0.5234490000000  0.4913060000000  0.6099470000000 1.0
C      1  0.3820050000000  0.4666560000000  0.4532520000000 1.0
C      1  0.4311840000000  0.5258140000000  0.5713370000000 1.0
C      1  0.5921990000000  0.5605590000000  0.4608970000000 1.0
C      1  0.5283060000000  0.4005770000000  0.4981370000000 1.0
C      1  0.4599150000000  0.4832460000000  0.5028800000000 1.0
C      1  0.5815150000000  0.4747980000000  0.4625890000000 1.0
C      1  0.4397550000000  0.4860230000000  0.5465750000000 1.0
C      1  0.4186650000000  0.5198410000000  0.4956230000000 1.0
C      1  0.4641340000000  0.6006860000000  0.5196070000000 1.0
C      1  0.5044050000000  0.5708470000000  0.5175970000000 1.0
C      1  0.4926670000000  0.5592770000000  0.3966920000000 1.0
C      1  0.5532530000000  0.5854930000000  0.5501170000000 1.0
C      1  0.5090740000000  0.3970830000000  0.5367740000000 1.0
C      1  0.4520670000000  0.3994110000000  0.5105760000000 1.0
C      1  0.4140650000000  0.5226590000000  0.5462710000000 1.0
C      1  0.4839510000000  0.5390950000000  0.4758610000000 1.0
C      1  0.5084060000000  0.4747230000000  0.5073090000000 1.0
C      1  0.5281560000000  0.5130720000000  0.4028420000000 1.0
C      1  0.4506540000000  0.4663520000000  0.5266640000000 1.0
C      1  0.4536660000000  0.5115940000000  0.4170280000000 1.0
C      1  0.5462540000000  0.4763240000000  0.6113080000000 1.0
C      1  0.5048900000000  0.5584090000000  0.4756030000000 1.0
C      1  0.5112180000000  0.5074590000000  0.5623630000000 1.0
C      1  0.5080610000000  0.4593010000000  0.4788500000000 1.0
C      1  0.5525130000000  0.6037180000000  0.5004370000000 1.0
C      1  0.4868170000000  0.5945440000000  0.4462370000000 1.0
C      1  0.4613810000000  0.5769320000000  0.4483020000000 1.0
C      1  0.5314670000000  0.5320290000000  0.5269040000000 1.0
C      1  0.5133690000000  0.5938640000000  0.5372420000000 1.0
C      1  0.4663230000000  0.4214130000000  0.5530730000000 1.0
C      1  0.5685150000000  0.4065850000000  0.4859490000000 1.0
C      1  0.4619420000000  0.4764870000000  0.4566810000000 1.0
C      1  0.4223860000000  0.4634140000000  0.4847290000000 1.0
C      1  0.4462180000000  0.4059830000000  0.5368840000000 1.0
C      1  0.4148880000000  0.5878580000000  0.5286830000000 1.0
C      1  0.5642260000000  0.4492890000000  0.5015750000000 1.0
C      1  0.5625500000000  0.5855780000000  0.4462690000000 1.0
C      1  0.6022250000000  0.4704190000000  0.4845700000000 1.0
C      1  0.4976220000000  0.5821710000000  0.4917580000000 1.0
C      1  0.4903490000000  0.4663010000000  0.4542630000000 1.0
C      1  0.5783570000000  0.5059070000000  0.4600150000000 1.0
C      1  0.4761260000000  0.5449800000000  0.5854460000000 1.0
C      1  0.5035880000000  0.4705800000000  0.6132950000000 1.0
C      1  0.4056950000000  0.4908240000000  0.4914140000000 1.0
C      1  0.4863070000000  0.4660310000000  0.5632800000000 1.0
C      1  0.5284050000000  0.4379410000000  0.5665350000000 1.0
C      1  0.5456280000000  0.5097310000000  0.5123720000000 1.0
C      1  0.5303950000000  0.4923130000000  0.4480570000000 1.0
C      1  0.5340550000000  0.4833960000000  0.5227710000000 1.0
C      1  0.4440950000000  0.4533400000000  0.5856560000000 1.0
C      1  0.4762730000000  0.5559690000000  0.5215610000000 1.0
C      1  0.4627530000000  0.5620770000000  0.4022450000000 1.0
C      1  0.4469800000000  0.5832650000000  0.4747020000000 1.0
C      1  0.4505480000000  0.5762960000000  0.4207880000000 1.0
C      1  0.5131470000000  0.5851680000000  0.4350540000000 1.0
C      1  0.4605930000000  0.4544200000000  0.4020790000000 1.0
C      1  0.4933670000000  0.4410320000000  0.4324400000000 1.0
C      1  0.4913890000000  0.5676470000000  0.5799330000000 1.0
C      1  0.5291480000000  0.5546730000000  0.5111460000000 1.0
C      1  0.5744120000000  0.5160200000000  0.5115670000000 1.0
C      1  0.5733190000000  0.5120110000000  0.5628710000000 1.0
C      1  0.4237130000000  0.4186650000000  0.5507340000000 1.0
C      1  0.5348020000000  0.6079270000000  0.4771290000000 1.0
C      1  0.5778060000000  0.5122980000000  0.4298420000000 1.0
C      1  0.5202600000000  0.5645490000000  0.5809920000000 1.0
C      1  0.5086980000000  0.6095020000000  0.4847730000000 1.0
C      1  0.5730090000000  0.4637950000000  0.4354890000000 1.0
C      1  0.5690940000000  0.5561300000000  0.4424760000000 1.0
C      1  0.4010870000000  0.4505950000000  0.5244060000000 1.0
C      1  0.4166890000000  0.5414260000000  0.4738420000000 1.0
C      1  0.5425140000000  0.6007880000000  0.5268090000000 1.0
C      1  0.4096920000000  0.5058120000000  0.4407930000000 1.0
C      1  0.5649980000000  0.4154480000000  0.5338480000000 1.0
C      1  0.5279390000000  0.5840120000000  0.5622940000000 1.0
C      1  0.5559840000000  0.4399280000000  0.5774440000000 1.0
C      1  0.4421150000000  0.5855350000000  0.5320570000000 1.0
C      1  0.4695910000000  0.5352240000000  0.5031890000000 1.0
C      1  0.4135880000000  0.5362610000000  0.5205660000000 1.0
C      1  0.5265480000000  0.4385320000000  0.5341150000000 1.0
C      1  0.4263450000000  0.4663730000000  0.4146020000000 1.0
C      1  0.5160510000000  0.5167950000000  0.5931780000000 1.0
C      1  0.5498630000000  0.4445460000000  0.4308060000000 1.0
C      1  0.4671590000000  0.5972680000000  0.4899440000000 1.0
C      1  0.4424530000000  0.4237860000000  0.5002430000000 1.0
C      1  0.4125410000000  0.4955010000000  0.5392410000000 1.0
C      1  0.4738520000000  0.3957830000000  0.4689290000000 1.0
C      1  0.5101830000000  0.4175830000000  0.4420010000000 1.0
C      1  0.4848130000000  0.6012360000000  0.5404470000000 1.0
C      1  0.5006470000000  0.5108460000000  0.3971950000000 1.0
C      1  0.4559110000000  0.5387500000000  0.5641250000000 1.0
C      1  0.5377510000000  0.4213430000000  0.4469210000000 1.0
C      1  0.4523140000000  0.4647620000000  0.4801430000000 1.0
C      1  0.4841250000000  0.4712280000000  0.4016620000000 1.0
C      1  0.5351630000000  0.4101540000000  0.5264290000000 1.0
C      1  0.4066780000000  0.4538550000000  0.4595480000000 1.0
C      1  0.4766100000000  0.5825000000000  0.5606950000000 1.0
C      1  0.5468230000000  0.5426770000000  0.4579350000000 1.0
C      1  0.4507710000000  0.5262190000000  0.4441220000000 1.0
C      1  0.5825410000000  0.5873820000000  0.4662980000000 1.0
C      1  0.4421050000000  0.4298140000000  0.5703000000000 1.0
C      1  0.4835930000000  0.5180960000000  0.5234950000000 1.0
C      1  0.5153650000000  0.5627620000000  0.4145670000000 1.0
C      1  0.4589650000000  0.5051580000000  0.4645350000000 1.0
C      1  0.4677660000000  0.5478650000000  0.4531210000000 1.0
C      1  0.5445520000000  0.4067570000000  0.4729280000000 1.0
C      1  0.5963690000000  0.5475990000000  0.4858860000000 1.0
C      1  0.5920210000000  0.5180180000000  0.4867650000000 1.0
C      1  0.5326460000000  0.4595740000000  0.4127330000000 1.0
C      1  0.5648420000000  0.5368580000000  0.4211670000000 1.0
C      1  0.5001320000000  0.4942830000000  0.4464470000000 1.0
C      1  0.5079700000000  0.5256550000000  0.5400580000000 1.0
C      1  0.4746330000000  0.4507020000000  0.5397630000000 1.0
C      1  0.4212810000000  0.5303200000000  0.4487250000000 1.0
C      1  0.5691350000000  0.4872450000000  0.4198690000000 1.0
C      1  0.5720970000000  0.4613180000000  0.5463180000000 1.0
C      1  0.4661140000000  0.5047820000000  0.6047100000000 1.0
C      1  0.4932350000000  0.4089430000000  0.5597550000000 1.0
C      1  0.5596610000000  0.4661410000000  0.5903950000000 1.0
C      1  0.3940440000000  0.4905110000000  0.4611090000000 1.0
C      1  0.5066850000000  0.4237380000000  0.5805130000000 1.0
C      1  0.4589780000000  0.5334100000000  0.3962960000000 1.0
C      1  0.4842160000000  0.4945770000000  0.5623020000000 1.0
C      1  0.5160960000000  0.4638950000000  0.5648960000000 1.0
C      1  0.4960100000000  0.4422540000000  0.6007160000000 1.0
C      1  0.5490350000000  0.4582300000000  0.5249540000000 1.0
C      1  0.5775970000000  0.5904350000000  0.4938990000000 1.0
C      1  0.4714300000000  0.4565240000000  0.5934740000000 1.0
C      1  0.4863720000000  0.5246260000000  0.6008050000000 1.0
C      1  0.4832610000000  0.4967860000000  0.4169950000000 1.0
C      1  0.4954290000000  0.3982570000000  0.4533220000000 1.0
C      1  0.6083600000000  0.4946170000000  0.4973270000000 1.0
C      1  0.5610490000000  0.4842460000000  0.5655170000000 1.0
C      1  0.5308810000000  0.5479690000000  0.4827850000000 1.0
C      1  0.4930830000000  0.4372440000000  0.4932920000000 1.0
C      1  0.4770110000000  0.4795620000000  0.6104660000000 1.0
C      1  0.5023440000000  0.3897680000000  0.5094690000000 1.0
C      1  0.4408670000000  0.5040520000000  0.5889960000000 1.0
C      1  0.5405680000000  0.4885300000000  0.4154380000000 1.0
C      1  0.4254790000000  0.5659410000000  0.4842130000000 1.0
C      1  0.4629170000000  0.4373660000000  0.4847550000000 1.0
C      1  0.5914010000000  0.5131840000000  0.5384360000000 1.0
C      1  0.4990320000000  0.4481800000000  0.5208000000000 1.0
C      1  0.4854840000000  0.6114640000000  0.4689180000000 1.0
C      1  0.4364090000000  0.4577050000000  0.3898200000000 1.0
END
