TITL C-2114529-1331-18 -305.009971991843 125000 -921.392834109096 0 0 129 (C1) n - 1
REM
REM in /nfs/bkarasulu/CARBON/AIRSS/Generating-Clusters/GAP-ML-2020/Only-C1/SD-CG/HFTN-CG
REM
REM
REM
REM
REM
REM ./C.cell (11c1c37f851c82e70ff6c80c92926a4b)
REM
REM compiler GCC version 9.2.1 20190827 (Red Hat 9.2.1-1)
REM options -cpp -mtune=generic -march=x86-64 -g -O0 -fpre-include=/usr/include/finclude/math-vector-fortran.h
REM seed -1270779393 -141116090 -1841998199 -958115960 2082553841 -141271735 1527384693 -871097128 258738627 -1131486558 524814906 186879530 -1782975073 1542330405 -195102395 1196535563 -92511187 1077378513 -862433403 -715941203 -934690620 1483016645 1360737116 2072779387 -1402770379 -1094042967 405229228 -881396427 -958377735 -1364694779 1639381588 -587750655 1185557853
REM
CELL 1.54180   50.00000   50.00000   50.00000   90.00000   90.00000   90.00000
LATT -1
SFAC C  
C      1  0.5106040000000  0.5060900000000  0.5905650000000 1.0
C      1  0.4153270000000  0.5451270000000  0.4790070000000 1.0
C      1  0.5189310000000  0.5670210000000  0.5483790000000 1.0
C      1  0.5523480000000  0.5443640000000  0.4371370000000 1.0
C      1  0.5049200000000  0.4942330000000  0.5306770000000 1.0
C      1  0.5640850000000  0.4767850000000  0.4358740000000 1.0
C      1  0.4763030000000  0.5065020000000  0.4320370000000 1.0
C      1  0.4842750000000  0.5200670000000  0.5927880000000 1.0
C      1  0.4685020000000  0.5230750000000  0.5423330000000 1.0
C      1  0.5185360000000  0.5571020000000  0.4728250000000 1.0
C      1  0.5929040000000  0.5328540000000  0.4646770000000 1.0
C      1  0.4246510000000  0.4910690000000  0.4738100000000 1.0
C      1  0.5481350000000  0.5856150000000  0.4849120000000 1.0
C      1  0.4489950000000  0.5119470000000  0.4363990000000 1.0
C      1  0.4158850000000  0.4599160000000  0.5397880000000 1.0
C      1  0.4322790000000  0.5566540000000  0.4580250000000 1.0
C      1  0.4846170000000  0.4409280000000  0.4230430000000 1.0
C      1  0.4621420000000  0.5035350000000  0.5932320000000 1.0
C      1  0.4929570000000  0.5937030000000  0.4814830000000 1.0
C      1  0.4949690000000  0.5175860000000  0.5424980000000 1.0
C      1  0.5194490000000  0.5866870000000  0.4690520000000 1.0
C      1  0.4606650000000  0.4298570000000  0.5169860000000 1.0
C      1  0.4399870000000  0.5811680000000  0.4967930000000 1.0
C      1  0.5684620000000  0.5699900000000  0.4714670000000 1.0
C      1  0.4730550000000  0.5880030000000  0.4616350000000 1.0
C      1  0.5230090000000  0.4658890000000  0.4800360000000 1.0
C      1  0.5740720000000  0.4570050000000  0.5425080000000 1.0
C      1  0.5135430000000  0.5771740000000  0.4410270000000 1.0
C      1  0.4437050000000  0.4656380000000  0.4339250000000 1.0
C      1  0.4852090000000  0.4753820000000  0.5223710000000 1.0
C      1  0.4147580000000  0.4553920000000  0.5120650000000 1.0
C      1  0.5605990000000  0.4933780000000  0.5663900000000 1.0
C      1  0.4982930000000  0.4081460000000  0.4599800000000 1.0
C      1  0.5860620000000  0.4548370000000  0.4725450000000 1.0
C      1  0.5902460000000  0.5543900000000  0.4844090000000 1.0
C      1  0.4583290000000  0.4424880000000  0.4343440000000 1.0
C      1  0.5123530000000  0.5363900000000  0.5573760000000 1.0
C      1  0.4568980000000  0.5469900000000  0.5605550000000 1.0
C      1  0.5145330000000  0.4780530000000  0.5838190000000 1.0
C      1  0.4847770000000  0.5768360000000  0.4386390000000 1.0
C      1  0.5483110000000  0.5166040000000  0.4292150000000 1.0
C      1  0.5093600000000  0.5743380000000  0.5213420000000 1.0
C      1  0.4983840000000  0.5357610000000  0.4651000000000 1.0
C      1  0.5286460000000  0.5240290000000  0.5782030000000 1.0
C      1  0.4545460000000  0.5123900000000  0.5213260000000 1.0
C      1  0.4970710000000  0.3979760000000  0.5134000000000 1.0
C      1  0.5980120000000  0.4905380000000  0.5011620000000 1.0
C      1  0.4766000000000  0.4737310000000  0.4691710000000 1.0
C      1  0.5778730000000  0.5396240000000  0.5040100000000 1.0
C      1  0.5467090000000  0.4963250000000  0.4502620000000 1.0
C      1  0.5399920000000  0.5731000000000  0.5110260000000 1.0
C      1  0.5360240000000  0.4378200000000  0.4659160000000 1.0
C      1  0.5215190000000  0.4127350000000  0.4754640000000 1.0
C      1  0.4085660000000  0.4855230000000  0.5507100000000 1.0
C      1  0.4659670000000  0.4755590000000  0.5874330000000 1.0
C      1  0.5052700000000  0.4641070000000  0.4250050000000 1.0
C      1  0.4853470000000  0.4388080000000  0.5630780000000 1.0
C      1  0.4102450000000  0.5174140000000  0.4834650000000 1.0
C      1  0.5825710000000  0.4461820000000  0.5181530000000 1.0
C      1  0.4460570000000  0.5417110000000  0.4376460000000 1.0
C      1  0.5195550000000  0.5532850000000  0.5027180000000 1.0
C      1  0.4077270000000  0.4777320000000  0.4957270000000 1.0
C      1  0.5183390000000  0.4907590000000  0.4604820000000 1.0
C      1  0.5525910000000  0.4720220000000  0.4115880000000 1.0
C      1  0.5491830000000  0.4500850000000  0.5553840000000 1.0
C      1  0.5238320000000  0.4400590000000  0.4383470000000 1.0
C      1  0.5466130000000  0.5483920000000  0.4675880000000 1.0
C      1  0.4225480000000  0.5549630000000  0.5296740000000 1.0
C      1  0.4923610000000  0.4845760000000  0.4447210000000 1.0
C      1  0.5908190000000  0.5013880000000  0.5273850000000 1.0
C      1  0.4967560000000  0.3997970000000  0.5402740000000 1.0
C      1  0.4561580000000  0.4890880000000  0.4842810000000 1.0
C      1  0.5224710000000  0.4050570000000  0.5019930000000 1.0
C      1  0.5536320000000  0.5278300000000  0.4879690000000 1.0
C      1  0.5544010000000  0.5210030000000  0.5682540000000 1.0
C      1  0.4900680000000  0.5318920000000  0.4303760000000 1.0
C      1  0.4134120000000  0.5336050000000  0.5460900000000 1.0
C      1  0.5801210000000  0.4841370000000  0.5475800000000 1.0
C      1  0.5791750000000  0.5508420000000  0.4475770000000 1.0
C      1  0.4711810000000  0.5536260000000  0.4289340000000 1.0
C      1  0.4373660000000  0.4484680000000  0.5558090000000 1.0
C      1  0.4328640000000  0.4884470000000  0.4437370000000 1.0
C      1  0.4867630000000  0.4498480000000  0.5110300000000 1.0
C      1  0.5644500000000  0.4287460000000  0.5046170000000 1.0
C      1  0.4310760000000  0.5341710000000  0.5688810000000 1.0
C      1  0.5895410000000  0.5015530000000  0.4734410000000 1.0
C      1  0.5273090000000  0.5234580000000  0.5006230000000 1.0
C      1  0.5647870000000  0.4354950000000  0.4766820000000 1.0
C      1  0.5280730000000  0.5099950000000  0.4111450000000 1.0
C      1  0.4467240000000  0.5795570000000  0.4692750000000 1.0
C      1  0.5471900000000  0.5630490000000  0.5394840000000 1.0
C      1  0.4018480000000  0.5088690000000  0.5355960000000 1.0
C      1  0.4603270000000  0.5186380000000  0.4936480000000 1.0
C      1  0.4899150000000  0.4620380000000  0.5806790000000 1.0
C      1  0.4475320000000  0.5663760000000  0.5391800000000 1.0
C      1  0.5417360000000  0.4812570000000  0.4980090000000 1.0
C      1  0.5956380000000  0.4626780000000  0.4985860000000 1.0
C      1  0.5289090000000  0.5578350000000  0.4257080000000 1.0
C      1  0.5119590000000  0.5137980000000  0.4771830000000 1.0
C      1  0.5256930000000  0.4810260000000  0.4093600000000 1.0
C      1  0.5143410000000  0.5348170000000  0.4156390000000 1.0
C      1  0.5408200000000  0.4725690000000  0.5719140000000 1.0
C      1  0.4195650000000  0.5618760000000  0.5024100000000 1.0
C      1  0.5819990000000  0.5287170000000  0.5292170000000 1.0
C      1  0.5416560000000  0.4188930000000  0.5181780000000 1.0
C      1  0.4797810000000  0.5469240000000  0.5805670000000 1.0
C      1  0.4600230000000  0.4337430000000  0.5475710000000 1.0
C      1  0.5864650000000  0.4762940000000  0.4542990000000 1.0
C      1  0.4357130000000  0.5113900000000  0.5842540000000 1.0
C      1  0.5286140000000  0.4988800000000  0.5165490000000 1.0
C      1  0.5020290000000  0.4223320000000  0.4358740000000 1.0
C      1  0.4807510000000  0.5339390000000  0.4866090000000 1.0
C      1  0.4361930000000  0.4364650000000  0.4759180000000 1.0
C      1  0.4413920000000  0.4664400000000  0.5769540000000 1.0
C      1  0.4729770000000  0.4069200000000  0.5007780000000 1.0
C      1  0.4007740000000  0.5037360000000  0.5069790000000 1.0
C      1  0.5335570000000  0.4293840000000  0.5437670000000 1.0
C      1  0.4942570000000  0.4593550000000  0.4861080000000 1.0
C      1  0.4597780000000  0.4851250000000  0.5152230000000 1.0
C      1  0.5636060000000  0.5400490000000  0.5478470000000 1.0
C      1  0.4867660000000  0.5883290000000  0.5093590000000 1.0
C      1  0.4349750000000  0.4376190000000  0.5026330000000 1.0
C      1  0.4234000000000  0.4881130000000  0.5744460000000 1.0
C      1  0.5594050000000  0.5011140000000  0.4772140000000 1.0
C      1  0.4725820000000  0.4086580000000  0.4725420000000 1.0
C      1  0.5065050000000  0.4222700000000  0.5526440000000 1.0
C      1  0.4591650000000  0.5830410000000  0.5181020000000 1.0
C      1  0.5023010000000  0.5599560000000  0.5716060000000 1.0
C      1  0.4535310000000  0.4254660000000  0.4586860000000 1.0
END
