TITL C-2109091-6471-10 -53.6875977728447 125000 -1066.71962601727 0 0 152 (C1) n - 1
REM
REM in /nfs/bkarasulu/CARBON/AIRSS/Generating-Clusters/GAP-ML-2020/Only-C1/SD-CG/HFTN-CG
REM
REM
REM
REM
REM
REM ./C.cell (11c1c37f851c82e70ff6c80c92926a4b)
REM
REM compiler GCC version 9.2.1 20190827 (Red Hat 9.2.1-1)
REM options -cpp -mtune=generic -march=x86-64 -g -O0 -fpre-include=/usr/include/finclude/math-vector-fortran.h
REM seed -1434224425 -82005973 -386591677 85869408 -1047028180 654141139 1750617839 -398536015 -1140358762 -1969197771 358564149 1145627267 -885309297 -275254480 -1885390282 1187831106 1979162484 -2106472892 -1956994572 -1093484559 1255640061 1462418715 -1614280291 -464955539 1953124100 -1989263813 -312262111 254678025 645989924 371346495 392644294 349395080 1610916134
REM
CELL 1.54180   50.00000   50.00000   50.00000   90.00000   90.00000   90.00000
LATT -1
SFAC C  
C      1  0.5432310000000  0.5369200000000  0.4071080000000 1.0
C      1  0.5571210000000  0.4305780000000  0.4868760000000 1.0
C      1  0.4154800000000  0.5495250000000  0.4773610000000 1.0
C      1  0.4561670000000  0.5342700000000  0.4233060000000 1.0
C      1  0.4647020000000  0.5786660000000  0.5408900000000 1.0
C      1  0.4678430000000  0.5030540000000  0.4581680000000 1.0
C      1  0.5094420000000  0.4039590000000  0.4936680000000 1.0
C      1  0.4468730000000  0.4878950000000  0.5260810000000 1.0
C      1  0.4975590000000  0.4708010000000  0.5451180000000 1.0
C      1  0.4899910000000  0.3918230000000  0.4565970000000 1.0
C      1  0.5892180000000  0.5339220000000  0.4461100000000 1.0
C      1  0.4703400000000  0.5433470000000  0.4933170000000 1.0
C      1  0.4995680000000  0.5027630000000  0.4967350000000 1.0
C      1  0.4994890000000  0.5142440000000  0.4013440000000 1.0
C      1  0.5058650000000  0.4613040000000  0.4442240000000 1.0
C      1  0.4479480000000  0.4133840000000  0.5395620000000 1.0
C      1  0.4925510000000  0.5132670000000  0.5949440000000 1.0
C      1  0.5769420000000  0.5124930000000  0.4326190000000 1.0
C      1  0.5416490000000  0.4891990000000  0.4141940000000 1.0
C      1  0.5267810000000  0.4920140000000  0.4842530000000 1.0
C      1  0.5103810000000  0.4515110000000  0.5256220000000 1.0
C      1  0.4716360000000  0.4546430000000  0.5830680000000 1.0
C      1  0.5729390000000  0.4988370000000  0.5123120000000 1.0
C      1  0.5368970000000  0.5736810000000  0.5544890000000 1.0
C      1  0.5134510000000  0.5505790000000  0.4757270000000 1.0
C      1  0.4904100000000  0.3855620000000  0.4859560000000 1.0
C      1  0.4325640000000  0.4951520000000  0.4246870000000 1.0
C      1  0.4545240000000  0.4584970000000  0.5352480000000 1.0
C      1  0.4192640000000  0.5618170000000  0.5273010000000 1.0
C      1  0.4946980000000  0.5756570000000  0.5341190000000 1.0
C      1  0.4281530000000  0.5206850000000  0.4354260000000 1.0
C      1  0.5757120000000  0.5782660000000  0.4631040000000 1.0
C      1  0.5082320000000  0.5824050000000  0.4699430000000 1.0
C      1  0.4850320000000  0.5201400000000  0.5377250000000 1.0
C      1  0.4072700000000  0.5047550000000  0.4842940000000 1.0
C      1  0.4465580000000  0.4590910000000  0.4508760000000 1.0
C      1  0.4975140000000  0.5365220000000  0.4973080000000 1.0
C      1  0.4750270000000  0.4933820000000  0.4828160000000 1.0
C      1  0.5787610000000  0.4484160000000  0.5442770000000 1.0
C      1  0.4726870000000  0.5313230000000  0.4500800000000 1.0
C      1  0.5300620000000  0.4416900000000  0.4763990000000 1.0
C      1  0.5138400000000  0.4201690000000  0.5297400000000 1.0
C      1  0.4595340000000  0.5622670000000  0.4160770000000 1.0
C      1  0.5456980000000  0.4401140000000  0.5777120000000 1.0
C      1  0.4565580000000  0.4881110000000  0.4099590000000 1.0
C      1  0.4637090000000  0.5556110000000  0.4676020000000 1.0
C      1  0.4620420000000  0.4522930000000  0.5069000000000 1.0
C      1  0.6039440000000  0.4961280000000  0.4776830000000 1.0
C      1  0.5890670000000  0.4917710000000  0.5366640000000 1.0
C      1  0.5571290000000  0.5130350000000  0.4120800000000 1.0
C      1  0.5499290000000  0.4743940000000  0.4405340000000 1.0
C      1  0.5301720000000  0.5351580000000  0.5317540000000 1.0
C      1  0.4285090000000  0.4793740000000  0.5737110000000 1.0
C      1  0.4918640000000  0.5621250000000  0.5778400000000 1.0
C      1  0.4408960000000  0.5491710000000  0.5719930000000 1.0
C      1  0.4170550000000  0.4490600000000  0.4869360000000 1.0
C      1  0.5162090000000  0.4744570000000  0.5692290000000 1.0
C      1  0.4917660000000  0.4126710000000  0.5706630000000 1.0
C      1  0.4619120000000  0.3984400000000  0.4610330000000 1.0
C      1  0.5443160000000  0.4190280000000  0.5593710000000 1.0
C      1  0.5714690000000  0.4544380000000  0.4498220000000 1.0
C      1  0.5029930000000  0.5378940000000  0.4491880000000 1.0
C      1  0.5401100000000  0.5131860000000  0.4680640000000 1.0
C      1  0.4519910000000  0.5309030000000  0.5084480000000 1.0
C      1  0.4710990000000  0.5124060000000  0.4067470000000 1.0
C      1  0.4588150000000  0.5146520000000  0.5288580000000 1.0
C      1  0.4928600000000  0.4372160000000  0.4516040000000 1.0
C      1  0.5584430000000  0.5713830000000  0.5105790000000 1.0
C      1  0.4645950000000  0.5055530000000  0.5929610000000 1.0
C      1  0.5558330000000  0.5963310000000  0.4593650000000 1.0
C      1  0.4717000000000  0.4632500000000  0.4147110000000 1.0
C      1  0.3982520000000  0.5205980000000  0.5066340000000 1.0
C      1  0.5344750000000  0.4202850000000  0.4534180000000 1.0
C      1  0.5395180000000  0.5393940000000  0.4814170000000 1.0
C      1  0.5306270000000  0.5744750000000  0.4285140000000 1.0
C      1  0.4989810000000  0.4696480000000  0.4186160000000 1.0
C      1  0.5622650000000  0.4275530000000  0.4579120000000 1.0
C      1  0.5650420000000  0.4962250000000  0.4542100000000 1.0
C      1  0.4146750000000  0.4824110000000  0.5269370000000 1.0
C      1  0.4002810000000  0.5071670000000  0.5312510000000 1.0
C      1  0.5138340000000  0.5933120000000  0.5193060000000 1.0
C      1  0.5083200000000  0.4113900000000  0.4448210000000 1.0
C      1  0.4331990000000  0.4405460000000  0.5433020000000 1.0
C      1  0.4152170000000  0.5240250000000  0.4626560000000 1.0
C      1  0.4554210000000  0.4779480000000  0.5858630000000 1.0
C      1  0.5017780000000  0.4331310000000  0.4819300000000 1.0
C      1  0.4943740000000  0.4368450000000  0.5874240000000 1.0
C      1  0.4077490000000  0.5216630000000  0.5543300000000 1.0
C      1  0.4440350000000  0.5867590000000  0.4935810000000 1.0
C      1  0.4451960000000  0.4868200000000  0.4484330000000 1.0
C      1  0.5760360000000  0.5584480000000  0.4412020000000 1.0
C      1  0.4616730000000  0.3932210000000  0.4901990000000 1.0
C      1  0.4425080000000  0.5228880000000  0.5852340000000 1.0
C      1  0.4802580000000  0.5751690000000  0.4277120000000 1.0
C      1  0.4794700000000  0.5802250000000  0.4585970000000 1.0
C      1  0.4910730000000  0.4492740000000  0.5025350000000 1.0
C      1  0.5800280000000  0.5070130000000  0.5587520000000 1.0
C      1  0.5803840000000  0.5696390000000  0.4903720000000 1.0
C      1  0.5638490000000  0.4243560000000  0.5376720000000 1.0
C      1  0.5272690000000  0.4685510000000  0.4623720000000 1.0
C      1  0.4363810000000  0.5674970000000  0.4738480000000 1.0
C      1  0.4480080000000  0.4192730000000  0.4487380000000 1.0
C      1  0.5842390000000  0.4760580000000  0.4671090000000 1.0
C      1  0.4528860000000  0.4794690000000  0.4976340000000 1.0
C      1  0.5005190000000  0.4976930000000  0.5292670000000 1.0
C      1  0.5091500000000  0.5759880000000  0.5606420000000 1.0
C      1  0.5564670000000  0.4155860000000  0.5108020000000 1.0
C      1  0.5014450000000  0.5432480000000  0.5263680000000 1.0
C      1  0.5167290000000  0.4095130000000  0.5553600000000 1.0
C      1  0.4656600000000  0.4420390000000  0.4374360000000 1.0
C      1  0.5657200000000  0.4593150000000  0.5691510000000 1.0
C      1  0.4383000000000  0.4337600000000  0.4986300000000 1.0
C      1  0.5427560000000  0.4887050000000  0.5098800000000 1.0
C      1  0.5913220000000  0.5430690000000  0.4941960000000 1.0
C      1  0.5931990000000  0.4659240000000  0.5262660000000 1.0
C      1  0.4735560000000  0.4605860000000  0.5553380000000 1.0
C      1  0.5061380000000  0.5597410000000  0.4235180000000 1.0
C      1  0.4656120000000  0.6001040000000  0.4798620000000 1.0
C      1  0.5198410000000  0.4500570000000  0.5850210000000 1.0
C      1  0.5532900000000  0.5588920000000  0.4224680000000 1.0
C      1  0.4182080000000  0.4631760000000  0.5512520000000 1.0
C      1  0.4415170000000  0.5797200000000  0.5219870000000 1.0
C      1  0.5289810000000  0.5044050000000  0.5323400000000 1.0
C      1  0.4060930000000  0.5479790000000  0.5045550000000 1.0
C      1  0.5299050000000  0.4057560000000  0.5111870000000 1.0
C      1  0.5748380000000  0.5292020000000  0.5164140000000 1.0
C      1  0.5217040000000  0.5166900000000  0.4464020000000 1.0
C      1  0.4668990000000  0.4071210000000  0.5586230000000 1.0
C      1  0.5989100000000  0.5255340000000  0.4727910000000 1.0
C      1  0.4217930000000  0.5067540000000  0.5741440000000 1.0
C      1  0.5921650000000  0.4791840000000  0.4968920000000 1.0
C      1  0.5140490000000  0.4947280000000  0.5901960000000 1.0
C      1  0.5393860000000  0.4815760000000  0.5522250000000 1.0
C      1  0.4832130000000  0.6187430000000  0.4893810000000 1.0
C      1  0.5377850000000  0.4641100000000  0.5257030000000 1.0
C      1  0.5397620000000  0.5065170000000  0.5880720000000 1.0
C      1  0.5724440000000  0.5319090000000  0.5474310000000 1.0
C      1  0.4328040000000  0.4389170000000  0.4652730000000 1.0
C      1  0.5143910000000  0.4899030000000  0.4064510000000 1.0
C      1  0.5490390000000  0.5433250000000  0.5095270000000 1.0
C      1  0.5461700000000  0.5456240000000  0.5574320000000 1.0
C      1  0.5308010000000  0.5906160000000  0.4513740000000 1.0
C      1  0.5146800000000  0.5383290000000  0.4039440000000 1.0
C      1  0.5053030000000  0.5384800000000  0.5881000000000 1.0
C      1  0.5605920000000  0.4899250000000  0.5728620000000 1.0
C      1  0.4182100000000  0.4774940000000  0.4955940000000 1.0
C      1  0.5333470000000  0.5331020000000  0.5814470000000 1.0
C      1  0.5403280000000  0.5853650000000  0.5280420000000 1.0
C      1  0.4192570000000  0.5479720000000  0.5525130000000 1.0
C      1  0.4639610000000  0.5656870000000  0.5666630000000 1.0
C      1  0.4463690000000  0.4078440000000  0.5100900000000 1.0
C      1  0.5055030000000  0.6021900000000  0.4932780000000 1.0
END
