TITL C-21707-8240-2 0.202368234123617 125000 -534.58556082561 0 0 76 (C1) n - 1
REM
REM in /rds/project/t2_vol4/rds-t2-cs072/BORA/CARBON/from-Arr/AIRSS/Generating-Clusters/GAP-ML-2020/Only-C1/SD-CG/HFTN-CG
REM
REM
REM
REM
REM
REM ./C.cell (11c1c37f851c82e70ff6c80c92926a4b)
REM AIRSS Version 0.9.1 bugfix July 2018 build 013d7b7c2542+ Fri, 06 Jul 2018 19:26:36 +0100
REM compiler GCC version 9.3.0
REM options -cpp -mtune=generic -march=x86-64 -g -O0
REM seed 1329731665 -1764103546 1951013140 -1595712967 430991239 764711559 -2136855252 -1030271285 1125803861 -1859100304 162061052 -1614725306 13750420 411626287 733494099 -1592600405 2045067075 514981185 1761482873 859671306 -976528783 -702364025 -1661115794 -2146862095 588881316 1908849665 -1897870119 1876027279 1408427641 960457181 377640445 -392160466 -1299196093
REM
CELL 1.54180   50.00000   50.00000   50.00000   90.00000   90.00000   90.00000
LATT -1
SFAC C  
C      1  0.5349930000000  0.5086470000000  0.5550810000000 1.0
C      1  0.4770710000000  0.5049360000000  0.4323740000000 1.0
C      1  0.5438590000000  0.4348300000000  0.5103000000000 1.0
C      1  0.5534140000000  0.5595180000000  0.5299600000000 1.0
C      1  0.5312100000000  0.5775960000000  0.5389830000000 1.0
C      1  0.4246840000000  0.4846440000000  0.4993760000000 1.0
C      1  0.4920050000000  0.5764540000000  0.4514410000000 1.0
C      1  0.4829170000000  0.4609560000000  0.5440410000000 1.0
C      1  0.4790190000000  0.5515570000000  0.4482220000000 1.0
C      1  0.4445060000000  0.5409230000000  0.5325490000000 1.0
C      1  0.5634990000000  0.5421530000000  0.5489760000000 1.0
C      1  0.4980320000000  0.4821190000000  0.5618370000000 1.0
C      1  0.5203830000000  0.4884130000000  0.5170100000000 1.0
C      1  0.4807390000000  0.5079720000000  0.4927540000000 1.0
C      1  0.4821920000000  0.5284060000000  0.5716260000000 1.0
C      1  0.5406010000000  0.4626570000000  0.5481580000000 1.0
C      1  0.5364840000000  0.5355290000000  0.5601110000000 1.0
C      1  0.4255550000000  0.5217610000000  0.4875560000000 1.0
C      1  0.4054030000000  0.5042960000000  0.4960830000000 1.0
C      1  0.4905770000000  0.5267700000000  0.5099970000000 1.0
C      1  0.4553750000000  0.5472300000000  0.4636980000000 1.0
C      1  0.4511560000000  0.5135880000000  0.5384610000000 1.0
C      1  0.5684850000000  0.4998560000000  0.5215470000000 1.0
C      1  0.4781940000000  0.5013100000000  0.5714490000000 1.0
C      1  0.4514930000000  0.5006070000000  0.4456830000000 1.0
C      1  0.4773580000000  0.5063860000000  0.5240540000000 1.0
C      1  0.5455780000000  0.5380210000000  0.4838510000000 1.0
C      1  0.4382260000000  0.4665920000000  0.5201090000000 1.0
C      1  0.4544390000000  0.4692110000000  0.5441770000000 1.0
C      1  0.5018660000000  0.5728300000000  0.5033500000000 1.0
C      1  0.5532400000000  0.4612640000000  0.4591730000000 1.0
C      1  0.5431420000000  0.4820450000000  0.4413840000000 1.0
C      1  0.4721840000000  0.5703300000000  0.5097060000000 1.0
C      1  0.5106800000000  0.5455800000000  0.5173090000000 1.0
C      1  0.5212070000000  0.5288620000000  0.4458190000000 1.0
C      1  0.5172480000000  0.5915380000000  0.5203040000000 1.0
C      1  0.5074210000000  0.5684960000000  0.4729630000000 1.0
C      1  0.4947810000000  0.4201330000000  0.4631000000000 1.0
C      1  0.4939810000000  0.4822890000000  0.4254160000000 1.0
C      1  0.4884760000000  0.4243370000000  0.5090480000000 1.0
C      1  0.5362450000000  0.4386720000000  0.4603660000000 1.0
C      1  0.5799500000000  0.5215300000000  0.5377840000000 1.0
C      1  0.4341980000000  0.4666350000000  0.4780400000000 1.0
C      1  0.4897410000000  0.4551240000000  0.4338660000000 1.0
C      1  0.4413450000000  0.5227090000000  0.4619490000000 1.0
C      1  0.4528200000000  0.5594640000000  0.4902800000000 1.0
C      1  0.4463160000000  0.4726050000000  0.4531000000000 1.0
C      1  0.5700690000000  0.4964030000000  0.4898740000000 1.0
C      1  0.4644090000000  0.4509520000000  0.4466820000000 1.0
C      1  0.5333030000000  0.4252770000000  0.4863240000000 1.0
C      1  0.5399130000000  0.5090700000000  0.5251080000000 1.0
C      1  0.5639100000000  0.4704560000000  0.5310350000000 1.0
C      1  0.4665630000000  0.5592950000000  0.5358990000000 1.0
C      1  0.4434750000000  0.4483860000000  0.4985160000000 1.0
C      1  0.4631860000000  0.4292470000000  0.4937970000000 1.0
C      1  0.4531590000000  0.4939980000000  0.5584840000000 1.0
C      1  0.5207410000000  0.4824220000000  0.4267430000000 1.0
C      1  0.5101900000000  0.4367200000000  0.4460990000000 1.0
C      1  0.4930000000000  0.5284180000000  0.4375720000000 1.0
C      1  0.4864270000000  0.5507340000000  0.5569040000000 1.0
C      1  0.5581690000000  0.5153870000000  0.4725340000000 1.0
C      1  0.5263440000000  0.5481780000000  0.4660760000000 1.0
C      1  0.5432450000000  0.5093930000000  0.4488630000000 1.0
C      1  0.4958300000000  0.4871180000000  0.5327440000000 1.0
C      1  0.5638120000000  0.4545710000000  0.5079280000000 1.0
C      1  0.5159750000000  0.4803230000000  0.4912230000000 1.0
C      1  0.5267760000000  0.4827560000000  0.5639020000000 1.0
C      1  0.5067650000000  0.4159800000000  0.4884720000000 1.0
C      1  0.5270760000000  0.4410630000000  0.5340420000000 1.0
C      1  0.5672370000000  0.4690910000000  0.4831850000000 1.0
C      1  0.4982500000000  0.4382540000000  0.5325050000000 1.0
C      1  0.5143280000000  0.5529610000000  0.5478620000000 1.0
C      1  0.4683410000000  0.4290280000000  0.4653520000000 1.0
C      1  0.4924930000000  0.4861070000000  0.4827120000000 1.0
C      1  0.4357290000000  0.5427680000000  0.5049830000000 1.0
C      1  0.5389980000000  0.5382630000000  0.5121590000000 1.0
END
