TITL C-21896-2397-6 -0.0419185974913983 125000 -384.131068841372 0 0 57 (C1) n - 1
REM
REM in /rds/project/t2_vol4/rds-t2-cs072/BORA/CARBON/from-Arr/AIRSS/Generating-Clusters/GAP-ML-2020/Only-C1/SD-CG/HFTN-CG
REM
REM
REM
REM
REM
REM ./C.cell (11c1c37f851c82e70ff6c80c92926a4b)
REM AIRSS Version 0.9.1 bugfix July 2018 build 013d7b7c2542+ Fri, 06 Jul 2018 19:26:36 +0100
REM compiler GCC version 9.3.0
REM options -cpp -mtune=generic -march=x86-64 -g -O0
REM seed 1924160898 -1225309793 -937415882 -482158552 -796485223 -1084969912 1518597682 1714919803 -1866701431 1720989741 1542449681 456335787 1137365555 1456141818 1256819578 1610236235 1011325081 1434831614 -19987239 -508119549 784306267 -1629118513 957590331 600072560 1224482043 360645890 646193771 -1181920801 122726135 2287406 -342193381 -1629616040 -892050923
REM
CELL 1.54180   50.00000   50.00000   50.00000   90.00000   90.00000   90.00000
LATT -1
SFAC C  
C      1  0.5096990000000  0.4684170000000  0.4367780000000 1.0
C      1  0.5216480000000  0.4450810000000  0.5019490000000 1.0
C      1  0.4422910000000  0.5231060000000  0.5025030000000 1.0
C      1  0.5147400000000  0.5295240000000  0.5517890000000 1.0
C      1  0.5109150000000  0.4944950000000  0.4486290000000 1.0
C      1  0.4916870000000  0.5165850000000  0.4485930000000 1.0
C      1  0.4729070000000  0.4420390000000  0.5060230000000 1.0
C      1  0.4831540000000  0.5280680000000  0.4762030000000 1.0
C      1  0.5095350000000  0.5396990000000  0.4454650000000 1.0
C      1  0.4980420000000  0.4338070000000  0.5165640000000 1.0
C      1  0.5143020000000  0.5542430000000  0.5105740000000 1.0
C      1  0.4641010000000  0.5029150000000  0.4399590000000 1.0
C      1  0.5140170000000  0.5655380000000  0.4834100000000 1.0
C      1  0.4338600000000  0.5037330000000  0.5232450000000 1.0
C      1  0.5690620000000  0.4805360000000  0.4758580000000 1.0
C      1  0.5226450000000  0.4887780000000  0.4736040000000 1.0
C      1  0.5550210000000  0.5291410000000  0.5273410000000 1.0
C      1  0.4681270000000  0.4825120000000  0.4211770000000 1.0
C      1  0.5037600000000  0.4850060000000  0.5172520000000 1.0
C      1  0.4769760000000  0.4606120000000  0.4849390000000 1.0
C      1  0.5050940000000  0.5276430000000  0.4972410000000 1.0
C      1  0.5283970000000  0.5117030000000  0.4901490000000 1.0
C      1  0.5717480000000  0.4943910000000  0.4990790000000 1.0
C      1  0.4431530000000  0.4780150000000  0.5116780000000 1.0
C      1  0.5142570000000  0.4814410000000  0.5623360000000 1.0
C      1  0.4403850000000  0.5456420000000  0.4833490000000 1.0
C      1  0.4851860000000  0.4816370000000  0.5622030000000 1.0
C      1  0.4677880000000  0.5098130000000  0.4957940000000 1.0
C      1  0.5286810000000  0.5053280000000  0.5591110000000 1.0
C      1  0.4758870000000  0.4578910000000  0.5490460000000 1.0
C      1  0.4314420000000  0.5210860000000  0.4735960000000 1.0
C      1  0.4446390000000  0.5056430000000  0.5478000000000 1.0
C      1  0.5564830000000  0.4814840000000  0.5217750000000 1.0
C      1  0.5312490000000  0.4952190000000  0.5145400000000 1.0
C      1  0.5516050000000  0.5041980000000  0.5411780000000 1.0
C      1  0.5276840000000  0.4383290000000  0.4747300000000 1.0
C      1  0.4879860000000  0.4660080000000  0.4201900000000 1.0
C      1  0.4697970000000  0.5054470000000  0.5579510000000 1.0
C      1  0.4453970000000  0.4993490000000  0.4620130000000 1.0
C      1  0.5296160000000  0.4516960000000  0.4515700000000 1.0
C      1  0.4858810000000  0.5269970000000  0.5442670000000 1.0
C      1  0.4993430000000  0.4424800000000  0.5429170000000 1.0
C      1  0.4893140000000  0.5100140000000  0.5161240000000 1.0
C      1  0.4571110000000  0.4825810000000  0.4859150000000 1.0
C      1  0.5404660000000  0.4566060000000  0.5251070000000 1.0
C      1  0.4676750000000  0.5530810000000  0.4763060000000 1.0
C      1  0.4578610000000  0.4573380000000  0.5254210000000 1.0
C      1  0.5309480000000  0.5439490000000  0.5324100000000 1.0
C      1  0.4731100000000  0.5510740000000  0.5337040000000 1.0
C      1  0.4848950000000  0.5720790000000  0.4869710000000 1.0
C      1  0.5234370000000  0.4574110000000  0.5480660000000 1.0
C      1  0.5051300000000  0.4704470000000  0.4910540000000 1.0
C      1  0.5460530000000  0.4720720000000  0.4658360000000 1.0
C      1  0.4863700000000  0.5653780000000  0.5161510000000 1.0
C      1  0.5646760000000  0.5234940000000  0.5000650000000 1.0
C      1  0.5271070000000  0.5489200000000  0.4638090000000 1.0
C      1  0.5476610000000  0.5302840000000  0.4786910000000 1.0
END
