TITL C-21801-3078-3 -211.581587745775 125000 -633.566697677104 0 0 91 (C1) n - 1
REM
REM in /rds/project/t2_vol4/rds-t2-cs072/BORA/CARBON/from-Arr/AIRSS/Generating-Clusters/GAP-ML-2020/Only-C1/SD-CG/HFTN-CG
REM
REM
REM
REM
REM
REM ./C.cell (11c1c37f851c82e70ff6c80c92926a4b)
REM AIRSS Version 0.9.1 bugfix July 2018 build 013d7b7c2542+ Fri, 06 Jul 2018 19:26:36 +0100
REM compiler GCC version 9.3.0
REM options -cpp -mtune=generic -march=x86-64 -g -O0
REM seed 196088933 -1076640219 -1143832827 -177491500 746431316 -754396790 -670559846 1553884708 -684448714 868037733 1961298209 -1447700537 -907137347 -2089748814 413700092 67662533 165702063 373437612 -2002608701 803277079 700097155 -883102519 -1902726125 327944904 1488493636 -488613488 846732293 -1414695559 470290367 -112151648 -262554438 -1690880847 -1884599033
REM
CELL 1.54180   50.00000   50.00000   50.00000   90.00000   90.00000   90.00000
LATT -1
SFAC C  
C      1  0.4187100000000  0.5372440000000  0.5016120000000 1.0
C      1  0.4431050000000  0.4940980000000  0.4959640000000 1.0
C      1  0.5561400000000  0.5141660000000  0.5487140000000 1.0
C      1  0.5068550000000  0.4397570000000  0.4358230000000 1.0
C      1  0.5815840000000  0.4869580000000  0.5221280000000 1.0
C      1  0.5219170000000  0.4955250000000  0.4409970000000 1.0
C      1  0.4828950000000  0.5419380000000  0.4376090000000 1.0
C      1  0.4662010000000  0.5644100000000  0.5461500000000 1.0
C      1  0.4869200000000  0.5736950000000  0.5281480000000 1.0
C      1  0.4636810000000  0.4473040000000  0.5514380000000 1.0
C      1  0.4937350000000  0.5036460000000  0.4815500000000 1.0
C      1  0.4499960000000  0.4530860000000  0.5269140000000 1.0
C      1  0.5420570000000  0.4273890000000  0.5015460000000 1.0
C      1  0.5655020000000  0.5094050000000  0.4403680000000 1.0
C      1  0.4504160000000  0.5233670000000  0.5687480000000 1.0
C      1  0.4860650000000  0.4296080000000  0.5500030000000 1.0
C      1  0.5248820000000  0.4209640000000  0.5249570000000 1.0
C      1  0.4648300000000  0.4335590000000  0.4571130000000 1.0
C      1  0.5100490000000  0.5653820000000  0.4684030000000 1.0
C      1  0.5588150000000  0.5494190000000  0.5125540000000 1.0
C      1  0.4834500000000  0.5729220000000  0.4742800000000 1.0
C      1  0.5142550000000  0.5673320000000  0.5343210000000 1.0
C      1  0.5534050000000  0.5457340000000  0.4816430000000 1.0
C      1  0.5019000000000  0.4912030000000  0.5296180000000 1.0
C      1  0.5090360000000  0.5096560000000  0.5090190000000 1.0
C      1  0.5387360000000  0.4734660000000  0.4577880000000 1.0
C      1  0.5017240000000  0.4492860000000  0.5095410000000 1.0
C      1  0.4843730000000  0.4763770000000  0.4735340000000 1.0
C      1  0.5431910000000  0.4632450000000  0.5338490000000 1.0
C      1  0.4466060000000  0.5735910000000  0.5050820000000 1.0
C      1  0.4418940000000  0.5638740000000  0.5314560000000 1.0
C      1  0.5909330000000  0.5136270000000  0.5175990000000 1.0
C      1  0.5078780000000  0.4409580000000  0.5650530000000 1.0
C      1  0.4684290000000  0.5155040000000  0.4923480000000 1.0
C      1  0.4742290000000  0.5787950000000  0.5016040000000 1.0
C      1  0.5349950000000  0.5653470000000  0.5144320000000 1.0
C      1  0.4302740000000  0.5593530000000  0.4867420000000 1.0
C      1  0.5377860000000  0.5406570000000  0.4345270000000 1.0
C      1  0.5711000000000  0.5308380000000  0.5293230000000 1.0
C      1  0.5179260000000  0.5493880000000  0.5563590000000 1.0
C      1  0.4949910000000  0.4216660000000  0.5228590000000 1.0
C      1  0.4252490000000  0.5358120000000  0.4460460000000 1.0
C      1  0.4567880000000  0.4943790000000  0.4283070000000 1.0
C      1  0.4239030000000  0.5417840000000  0.5300180000000 1.0
C      1  0.5370470000000  0.5027990000000  0.5009000000000 1.0
C      1  0.6055690000000  0.5012040000000  0.4777030000000 1.0
C      1  0.4670290000000  0.5601740000000  0.4539860000000 1.0
C      1  0.4988820000000  0.4511260000000  0.4809040000000 1.0
C      1  0.5394870000000  0.4767480000000  0.4883970000000 1.0
C      1  0.4464280000000  0.4820380000000  0.5237400000000 1.0
C      1  0.4206230000000  0.5119910000000  0.4883910000000 1.0
C      1  0.4285400000000  0.5221000000000  0.5499930000000 1.0
C      1  0.4797630000000  0.5214920000000  0.5172800000000 1.0
C      1  0.6105240000000  0.5168600000000  0.4973060000000 1.0
C      1  0.5109390000000  0.5439510000000  0.4478610000000 1.0
C      1  0.5778920000000  0.4694280000000  0.4998910000000 1.0
C      1  0.5319510000000  0.5660420000000  0.4853850000000 1.0
C      1  0.4694750000000  0.4682440000000  0.5703610000000 1.0
C      1  0.4775950000000  0.5155080000000  0.4273480000000 1.0
C      1  0.5091900000000  0.4883620000000  0.5872840000000 1.0
C      1  0.5148130000000  0.5161850000000  0.4630840000000 1.0
C      1  0.4473510000000  0.4461420000000  0.4766850000000 1.0
C      1  0.4694770000000  0.5446390000000  0.5669820000000 1.0
C      1  0.5860770000000  0.4812360000000  0.4742460000000 1.0
C      1  0.5601700000000  0.5374860000000  0.4526510000000 1.0
C      1  0.4969400000000  0.4934020000000  0.4256250000000 1.0
C      1  0.4738050000000  0.4172120000000  0.5023370000000 1.0
C      1  0.4583070000000  0.4947390000000  0.5641890000000 1.0
C      1  0.4521670000000  0.4361520000000  0.5036910000000 1.0
C      1  0.5237110000000  0.4457340000000  0.4581590000000 1.0
C      1  0.4742840000000  0.4976940000000  0.5345790000000 1.0
C      1  0.5314940000000  0.4385540000000  0.5479000000000 1.0
C      1  0.5128110000000  0.5139060000000  0.5784710000000 1.0
C      1  0.4395210000000  0.4908450000000  0.4503000000000 1.0
C      1  0.5533410000000  0.4549500000000  0.5058950000000 1.0
C      1  0.5315600000000  0.4251520000000  0.4772250000000 1.0
C      1  0.4766800000000  0.4729140000000  0.4251290000000 1.0
C      1  0.4799340000000  0.4465580000000  0.4351900000000 1.0
C      1  0.4830200000000  0.4246000000000  0.4758860000000 1.0
C      1  0.5349400000000  0.5262330000000  0.5629410000000 1.0
C      1  0.4964040000000  0.5379490000000  0.5715840000000 1.0
C      1  0.4972200000000  0.4648860000000  0.5795790000000 1.0
C      1  0.4230270000000  0.5123900000000  0.4593400000000 1.0
C      1  0.5606570000000  0.4863920000000  0.5412550000000 1.0
C      1  0.5414720000000  0.5130980000000  0.4265550000000 1.0
C      1  0.4326380000000  0.4939990000000  0.5469390000000 1.0
C      1  0.5391290000000  0.5204010000000  0.4793340000000 1.0
C      1  0.5141430000000  0.4679400000000  0.5256780000000 1.0
C      1  0.5670800000000  0.4836070000000  0.4529100000000 1.0
C      1  0.4503380000000  0.4754540000000  0.4733480000000 1.0
C      1  0.4391490000000  0.5557660000000  0.4594930000000 1.0
END
