TITL C-215720-9309-11 -1487.5650928483 125000 -340.743944907284 0 0 51 (C1) n - 1
REM
REM in /rds/project/t2_vol4/rds-t2-cs072/BORA/CARBON/from-Arr/AIRSS/Generating-Clusters/GAP-ML-2020/Only-C1/SD-CG/HFTN-CG
REM
REM
REM
REM
REM
REM ./C.cell (11c1c37f851c82e70ff6c80c92926a4b)
REM AIRSS Version 0.9.1 bugfix July 2018 build 013d7b7c2542+ Fri, 06 Jul 2018 19:26:36 +0100
REM compiler GCC version 9.3.0
REM options -cpp -mtune=generic -march=x86-64 -g -O0
REM seed -1430672928 -52067888 1718511752 -1638951818 67197099 560776679 -387374666 1934964937 -674485385 -1818960924 947862584 -685718501 -571868276 -444171531 1658939614 1804009325 59559845 393853118 2114318162 1996111773 -1539984093 -781598958 -1367856623 49563982 -76791881 -1643627966 -537054285 1924633396 408547777 1053172971 1636265147 1240920069 1176777276
REM
CELL 1.54180   50.00000   50.00000   50.00000   90.00000   90.00000   90.00000
LATT -1
SFAC C  
C      1  0.4307590000000  0.5204650000000  0.4827510000000 1.0
C      1  0.5282330000000  0.4784730000000  0.5484640000000 1.0
C      1  0.4830250000000  0.4908730000000  0.4418700000000 1.0
C      1  0.4199790000000  0.4990240000000  0.4738180000000 1.0
C      1  0.4894270000000  0.5199430000000  0.4759970000000 1.0
C      1  0.5330280000000  0.5430910000000  0.4870520000000 1.0
C      1  0.5194240000000  0.5154470000000  0.4853720000000 1.0
C      1  0.4558120000000  0.5301120000000  0.5191610000000 1.0
C      1  0.5521770000000  0.5163230000000  0.5215260000000 1.0
C      1  0.5332410000000  0.5448040000000  0.4572390000000 1.0
C      1  0.5581690000000  0.5322950000000  0.4487720000000 1.0
C      1  0.5404370000000  0.4881230000000  0.5234010000000 1.0
C      1  0.5189660000000  0.5525390000000  0.5112340000000 1.0
C      1  0.5103880000000  0.4819790000000  0.4413750000000 1.0
C      1  0.5162260000000  0.5065980000000  0.5125980000000 1.0
C      1  0.4676220000000  0.4529260000000  0.5058190000000 1.0
C      1  0.4766100000000  0.5435660000000  0.4872400000000 1.0
C      1  0.4748550000000  0.4952190000000  0.4846670000000 1.0
C      1  0.5228040000000  0.4653950000000  0.4613320000000 1.0
C      1  0.4584040000000  0.4809880000000  0.5498260000000 1.0
C      1  0.4854690000000  0.5289510000000  0.5537170000000 1.0
C      1  0.4470880000000  0.4814650000000  0.5233660000000 1.0
C      1  0.5451170000000  0.4736960000000  0.4773400000000 1.0
C      1  0.4755460000000  0.5448790000000  0.5329730000000 1.0
C      1  0.4480340000000  0.5384000000000  0.4931910000000 1.0
C      1  0.4796890000000  0.4327100000000  0.5185360000000 1.0
C      1  0.4626080000000  0.4826120000000  0.4608230000000 1.0
C      1  0.4707380000000  0.5055390000000  0.5627250000000 1.0
C      1  0.4929450000000  0.4922050000000  0.5214050000000 1.0
C      1  0.5276750000000  0.5311770000000  0.5304080000000 1.0
C      1  0.4387270000000  0.4771950000000  0.4750180000000 1.0
C      1  0.5084840000000  0.4538060000000  0.4826050000000 1.0
C      1  0.5136330000000  0.5301260000000  0.4400190000000 1.0
C      1  0.4909970000000  0.5541550000000  0.5107200000000 1.0
C      1  0.4640460000000  0.5025200000000  0.5138150000000 1.0
C      1  0.4887780000000  0.5193340000000  0.4468310000000 1.0
C      1  0.5259540000000  0.5055460000000  0.4309580000000 1.0
C      1  0.5514190000000  0.5152750000000  0.4268450000000 1.0
C      1  0.5464840000000  0.5010950000000  0.4740400000000 1.0
C      1  0.4421370000000  0.4640490000000  0.5014580000000 1.0
C      1  0.4917680000000  0.4898400000000  0.5739060000000 1.0
C      1  0.5586660000000  0.5292280000000  0.4969540000000 1.0
C      1  0.5438240000000  0.4658280000000  0.5046710000000 1.0
C      1  0.4831690000000  0.4666750000000  0.5597170000000 1.0
C      1  0.5684770000000  0.5196330000000  0.4723860000000 1.0
C      1  0.5244520000000  0.4447130000000  0.5050600000000 1.0
C      1  0.5165310000000  0.4984510000000  0.5642410000000 1.0
C      1  0.4888290000000  0.4724420000000  0.4981420000000 1.0
C      1  0.5085280000000  0.4568500000000  0.5473110000000 1.0
C      1  0.5065410000000  0.4383030000000  0.5264780000000 1.0
C      1  0.5140580000000  0.5251210000000  0.5548290000000 1.0
END
