TITL C-214951-8939-6 -38.5992801104465 125000 -458.88955059889 0 0 67 (C1) n - 1
REM
REM in /rds/project/t2_vol4/rds-t2-cs072/BORA/CARBON/from-Arr/AIRSS/Generating-Clusters/GAP-ML-2020/Only-C1/SD-CG/HFTN-CG
REM
REM
REM
REM
REM
REM ./C.cell (11c1c37f851c82e70ff6c80c92926a4b)
REM AIRSS Version 0.9.1 bugfix July 2018 build 013d7b7c2542+ Fri, 06 Jul 2018 19:26:36 +0100
REM compiler GCC version 9.3.0
REM options -cpp -mtune=generic -march=x86-64 -g -O0
REM seed -377061534 1078061594 -1292529244 1632707134 1962312431 -1085039488 -1734887816 -1811576626 -1945438082 1944398479 1884014573 -452837153 -1855464867 -992435603 -1486579415 -549293408 -1843561793 557529613 -1775996997 -1210224807 1859906929 1496785882 -1184296461 -1131340328 921153472 634152159 1186174698 1922688285 1661937940 1923188321 903560407 632715236 -627424607
REM
CELL 1.54180   50.00000   50.00000   50.00000   90.00000   90.00000   90.00000
LATT -1
SFAC C  
C      1  0.5046110000000  0.4596200000000  0.5617660000000 1.0
C      1  0.4390310000000  0.5211030000000  0.4328700000000 1.0
C      1  0.4463430000000  0.5447840000000  0.4727360000000 1.0
C      1  0.5221220000000  0.5176350000000  0.5258250000000 1.0
C      1  0.4696910000000  0.5655580000000  0.5112660000000 1.0
C      1  0.5022090000000  0.5136520000000  0.4578180000000 1.0
C      1  0.5320440000000  0.4813210000000  0.4917090000000 1.0
C      1  0.5191700000000  0.4353670000000  0.5062710000000 1.0
C      1  0.5349800000000  0.4946370000000  0.5696660000000 1.0
C      1  0.4557810000000  0.4716980000000  0.4585650000000 1.0
C      1  0.5550700000000  0.5011090000000  0.5501330000000 1.0
C      1  0.5477690000000  0.4754060000000  0.5357920000000 1.0
C      1  0.4744720000000  0.5319390000000  0.5497290000000 1.0
C      1  0.5518750000000  0.5522970000000  0.5368520000000 1.0
C      1  0.4553190000000  0.5115150000000  0.5506080000000 1.0
C      1  0.5284100000000  0.5664740000000  0.5318510000000 1.0
C      1  0.4361350000000  0.5097070000000  0.5294350000000 1.0
C      1  0.4521770000000  0.4549410000000  0.4832320000000 1.0
C      1  0.4337530000000  0.4751120000000  0.4937290000000 1.0
C      1  0.5036360000000  0.4663780000000  0.4518080000000 1.0
C      1  0.5519730000000  0.5245140000000  0.5303170000000 1.0
C      1  0.4681350000000  0.5516300000000  0.4557610000000 1.0
C      1  0.4922260000000  0.4410570000000  0.5443550000000 1.0
C      1  0.4680260000000  0.4450590000000  0.5292040000000 1.0
C      1  0.5464880000000  0.4455670000000  0.4423210000000 1.0
C      1  0.4770890000000  0.4781270000000  0.4416670000000 1.0
C      1  0.5467140000000  0.5194870000000  0.4527180000000 1.0
C      1  0.4874440000000  0.4957610000000  0.4957180000000 1.0
C      1  0.5423330000000  0.4515090000000  0.4951340000000 1.0
C      1  0.4912270000000  0.5716340000000  0.4938810000000 1.0
C      1  0.4896640000000  0.4826460000000  0.5682950000000 1.0
C      1  0.5214420000000  0.5331210000000  0.4470350000000 1.0
C      1  0.5176180000000  0.5574060000000  0.4595020000000 1.0
C      1  0.4956130000000  0.4347740000000  0.4890390000000 1.0
C      1  0.5115210000000  0.5331400000000  0.5042170000000 1.0
C      1  0.4467810000000  0.5507890000000  0.5006110000000 1.0
C      1  0.5084750000000  0.5050840000000  0.5710230000000 1.0
C      1  0.4829450000000  0.5066090000000  0.4382400000000 1.0
C      1  0.5624330000000  0.5168540000000  0.5019770000000 1.0
C      1  0.5349940000000  0.5547290000000  0.4814770000000 1.0
C      1  0.4790650000000  0.5576550000000  0.5372610000000 1.0
C      1  0.5061340000000  0.5577920000000  0.5467130000000 1.0
C      1  0.5184440000000  0.5628870000000  0.5040590000000 1.0
C      1  0.4699420000000  0.4410580000000  0.5001800000000 1.0
C      1  0.5035950000000  0.4385980000000  0.4619920000000 1.0
C      1  0.4635660000000  0.4853520000000  0.5579280000000 1.0
C      1  0.4347160000000  0.4811460000000  0.5213310000000 1.0
C      1  0.5284830000000  0.4262930000000  0.4546720000000 1.0
C      1  0.5465400000000  0.4950520000000  0.4403280000000 1.0
C      1  0.4908690000000  0.5650040000000  0.4663310000000 1.0
C      1  0.4346270000000  0.5187570000000  0.4608490000000 1.0
C      1  0.5041850000000  0.5268630000000  0.5521020000000 1.0
C      1  0.5089290000000  0.4872730000000  0.4736470000000 1.0
C      1  0.5328640000000  0.4665980000000  0.5614290000000 1.0
C      1  0.5627370000000  0.4656790000000  0.5133970000000 1.0
C      1  0.5225810000000  0.4883770000000  0.5196660000000 1.0
C      1  0.5142840000000  0.4313350000000  0.5321150000000 1.0
C      1  0.4948550000000  0.4838420000000  0.5193570000000 1.0
C      1  0.4908490000000  0.5229690000000  0.4881850000000 1.0
C      1  0.4656180000000  0.5286890000000  0.4348130000000 1.0
C      1  0.5528580000000  0.5312020000000  0.4792090000000 1.0
C      1  0.4365170000000  0.4912720000000  0.4694920000000 1.0
C      1  0.5614990000000  0.4898210000000  0.4973510000000 1.0
C      1  0.4328340000000  0.5317300000000  0.5142380000000 1.0
C      1  0.5501070000000  0.4372230000000  0.4704820000000 1.0
C      1  0.4523500000000  0.4666110000000  0.5388170000000 1.0
C      1  0.5332150000000  0.4711750000000  0.4399020000000 1.0
END
