TITL C-2109096-2936-30 -0.203764932848196 125000 -1035.5073746043 0 0 145 (C1) n - 1
REM
REM in /nfs/bkarasulu/CARBON/AIRSS/Generating-Clusters/GAP-ML-2020/Only-C1/SD-CG/HFTN-CG
REM
REM
REM
REM
REM
REM ./C.cell (11c1c37f851c82e70ff6c80c92926a4b)
REM
REM compiler GCC version 9.2.1 20190827 (Red Hat 9.2.1-1)
REM options -cpp -mtune=generic -march=x86-64 -g -O0 -fpre-include=/usr/include/finclude/math-vector-fortran.h
REM seed 1179163029 -1829471764 -694348202 -1120675394 -1651222368 -1842845418 -279698617 1214967457 -1619433140 140787633 297674457 350865962 -713717131 1520056939 1728033726 -986393008 -340348582 2003725242 755018038 856091630 1755726552 -1062573272 -490744820 -1898519019 231206592 -444432070 210999940 73392954 -1692085149 -154907296 -1121413313 -180941595 -1486205587
REM
CELL 1.54180   50.00000   50.00000   50.00000   90.00000   90.00000   90.00000
LATT -1
SFAC C  
C      1  0.4691950000000  0.5956930000000  0.5161860000000 1.0
C      1  0.5169070000000  0.5137880000000  0.4063200000000 1.0
C      1  0.5949740000000  0.5199660000000  0.4721710000000 1.0
C      1  0.4077400000000  0.4899320000000  0.4995260000000 1.0
C      1  0.4642620000000  0.5521160000000  0.5762350000000 1.0
C      1  0.4769240000000  0.5728900000000  0.5618660000000 1.0
C      1  0.5185580000000  0.4604190000000  0.4089590000000 1.0
C      1  0.5980930000000  0.5077190000000  0.5212670000000 1.0
C      1  0.5579910000000  0.4887900000000  0.5584570000000 1.0
C      1  0.5333250000000  0.4110790000000  0.4842510000000 1.0
C      1  0.5312380000000  0.5314410000000  0.5862910000000 1.0
C      1  0.4883100000000  0.4078980000000  0.4652700000000 1.0
C      1  0.5280340000000  0.4551110000000  0.5715980000000 1.0
C      1  0.5866290000000  0.5466560000000  0.4612360000000 1.0
C      1  0.4916110000000  0.4050900000000  0.5144320000000 1.0
C      1  0.5185020000000  0.4171540000000  0.5108710000000 1.0
C      1  0.5590160000000  0.4233170000000  0.4826970000000 1.0
C      1  0.4877150000000  0.5380320000000  0.5212080000000 1.0
C      1  0.5486010000000  0.5338130000000  0.4898880000000 1.0
C      1  0.5062000000000  0.5496250000000  0.4803740000000 1.0
C      1  0.5174720000000  0.4483940000000  0.5036080000000 1.0
C      1  0.4106880000000  0.5195990000000  0.5393940000000 1.0
C      1  0.5580790000000  0.4855770000000  0.4171880000000 1.0
C      1  0.4841970000000  0.5354840000000  0.5882810000000 1.0
C      1  0.4841390000000  0.4705840000000  0.5493260000000 1.0
C      1  0.4661290000000  0.4968930000000  0.4672000000000 1.0
C      1  0.5098740000000  0.5268740000000  0.4645350000000 1.0
C      1  0.5677340000000  0.5479770000000  0.4397500000000 1.0
C      1  0.4251010000000  0.4653150000000  0.4947170000000 1.0
C      1  0.4154200000000  0.4422880000000  0.5113600000000 1.0
C      1  0.5163340000000  0.4761160000000  0.4634370000000 1.0
C      1  0.5306760000000  0.4686440000000  0.5207410000000 1.0
C      1  0.4462920000000  0.4653770000000  0.6056260000000 1.0
C      1  0.4751300000000  0.4675690000000  0.5210370000000 1.0
C      1  0.5750520000000  0.4982830000000  0.4368570000000 1.0
C      1  0.5550720000000  0.5235740000000  0.5158150000000 1.0
C      1  0.4890060000000  0.5066890000000  0.5824950000000 1.0
C      1  0.5638540000000  0.4732450000000  0.5317330000000 1.0
C      1  0.5380700000000  0.5184790000000  0.4669910000000 1.0
C      1  0.5189920000000  0.4274740000000  0.5601130000000 1.0
C      1  0.4504060000000  0.4163410000000  0.4908530000000 1.0
C      1  0.5303890000000  0.5156660000000  0.5285510000000 1.0
C      1  0.5550820000000  0.5369220000000  0.5716500000000 1.0
C      1  0.4358930000000  0.5614060000000  0.5400910000000 1.0
C      1  0.4587880000000  0.5456160000000  0.4778900000000 1.0
C      1  0.4992470000000  0.6010480000000  0.5098550000000 1.0
C      1  0.4787860000000  0.5333590000000  0.4287260000000 1.0
C      1  0.5455230000000  0.4606560000000  0.4180280000000 1.0
C      1  0.4495840000000  0.5162410000000  0.4846620000000 1.0
C      1  0.5879840000000  0.5234960000000  0.5429870000000 1.0
C      1  0.5607410000000  0.4241190000000  0.5337820000000 1.0
C      1  0.4783320000000  0.4402400000000  0.4294550000000 1.0
C      1  0.5059520000000  0.5706150000000  0.5668770000000 1.0
C      1  0.4776460000000  0.4105860000000  0.5385370000000 1.0
C      1  0.5219610000000  0.4943730000000  0.5084490000000 1.0
C      1  0.4699300000000  0.4235130000000  0.4501860000000 1.0
C      1  0.5252290000000  0.4251780000000  0.4387320000000 1.0
C      1  0.4500330000000  0.4191300000000  0.5381220000000 1.0
C      1  0.5166540000000  0.4097510000000  0.4612740000000 1.0
C      1  0.5739040000000  0.4230190000000  0.5075030000000 1.0
C      1  0.4780790000000  0.5792300000000  0.4429810000000 1.0
C      1  0.5310360000000  0.4941810000000  0.4797220000000 1.0
C      1  0.5236580000000  0.5906380000000  0.5231620000000 1.0
C      1  0.4729120000000  0.4984570000000  0.5575710000000 1.0
C      1  0.4358820000000  0.4760170000000  0.5821860000000 1.0
C      1  0.4260320000000  0.4578140000000  0.5622570000000 1.0
C      1  0.5076590000000  0.6061940000000  0.4837750000000 1.0
C      1  0.5952240000000  0.4608020000000  0.4975840000000 1.0
C      1  0.5059200000000  0.5395260000000  0.4152580000000 1.0
C      1  0.5091100000000  0.5494650000000  0.5855130000000 1.0
C      1  0.4735230000000  0.4813420000000  0.4059920000000 1.0
C      1  0.4874460000000  0.5117060000000  0.4501550000000 1.0
C      1  0.4137770000000  0.5134260000000  0.4839570000000 1.0
C      1  0.5030420000000  0.4892230000000  0.4411090000000 1.0
C      1  0.4905440000000  0.4800020000000  0.5985020000000 1.0
C      1  0.5886840000000  0.4926410000000  0.4602180000000 1.0
C      1  0.4765260000000  0.4047320000000  0.4909220000000 1.0
C      1  0.5721970000000  0.5143500000000  0.5640830000000 1.0
C      1  0.4919430000000  0.4913960000000  0.5104920000000 1.0
C      1  0.5059040000000  0.4384150000000  0.4218180000000 1.0
C      1  0.4146960000000  0.5590500000000  0.4755360000000 1.0
C      1  0.5500610000000  0.4404980000000  0.4384890000000 1.0
C      1  0.4390890000000  0.5715100000000  0.4827980000000 1.0
C      1  0.5032110000000  0.4862260000000  0.4099650000000 1.0
C      1  0.4827690000000  0.5470930000000  0.4942040000000 1.0
C      1  0.4632220000000  0.4639980000000  0.4263160000000 1.0
C      1  0.5735790000000  0.5462440000000  0.5306720000000 1.0
C      1  0.4912080000000  0.4236620000000  0.5598380000000 1.0
C      1  0.4383840000000  0.5502550000000  0.4335370000000 1.0
C      1  0.5163910000000  0.5425570000000  0.5263730000000 1.0
C      1  0.4462200000000  0.4382190000000  0.5584300000000 1.0
C      1  0.5453670000000  0.5865750000000  0.4586530000000 1.0
C      1  0.5612310000000  0.5844950000000  0.4823180000000 1.0
C      1  0.4510620000000  0.5912640000000  0.4959810000000 1.0
C      1  0.5293880000000  0.4977160000000  0.5542880000000 1.0
C      1  0.5563470000000  0.4607090000000  0.5694300000000 1.0
C      1  0.4167080000000  0.5442530000000  0.4504250000000 1.0
C      1  0.5670720000000  0.4427510000000  0.4617900000000 1.0
C      1  0.4132590000000  0.5163140000000  0.4544090000000 1.0
C      1  0.4526380000000  0.5064740000000  0.5129050000000 1.0
C      1  0.4707780000000  0.4601640000000  0.5953360000000 1.0
C      1  0.5831900000000  0.5657920000000  0.4829660000000 1.0
C      1  0.4393370000000  0.5467160000000  0.5639560000000 1.0
C      1  0.5185210000000  0.5975990000000  0.4604290000000 1.0
C      1  0.5161790000000  0.4718800000000  0.5477380000000 1.0
C      1  0.5545630000000  0.5576180000000  0.5516500000000 1.0
C      1  0.4506520000000  0.5324020000000  0.4159490000000 1.0
C      1  0.4766450000000  0.5127520000000  0.5279360000000 1.0
C      1  0.4477140000000  0.4312520000000  0.4667110000000 1.0
C      1  0.4265700000000  0.4978650000000  0.4370650000000 1.0
C      1  0.5038150000000  0.5841810000000  0.4381570000000 1.0
C      1  0.4832850000000  0.4783380000000  0.4859460000000 1.0
C      1  0.5424780000000  0.5810300000000  0.5039710000000 1.0
C      1  0.5171870000000  0.4756630000000  0.5919070000000 1.0
C      1  0.5336030000000  0.4178770000000  0.5371250000000 1.0
C      1  0.3940680000000  0.4455600000000  0.5280550000000 1.0
C      1  0.4597190000000  0.5803630000000  0.5394140000000 1.0
C      1  0.5467470000000  0.5673410000000  0.4374160000000 1.0
C      1  0.4158720000000  0.5438120000000  0.5241320000000 1.0
C      1  0.5433600000000  0.5101950000000  0.4131480000000 1.0
C      1  0.5031690000000  0.4585240000000  0.4804160000000 1.0
C      1  0.4527100000000  0.4944190000000  0.3949220000000 1.0
C      1  0.4070770000000  0.4666290000000  0.5413090000000 1.0
C      1  0.6002970000000  0.5258310000000  0.4994510000000 1.0
C      1  0.5887230000000  0.4807590000000  0.5178450000000 1.0
C      1  0.5674380000000  0.4476210000000  0.5474890000000 1.0
C      1  0.5566860000000  0.5217440000000  0.4371860000000 1.0
C      1  0.5197500000000  0.5047690000000  0.5811020000000 1.0
C      1  0.5200990000000  0.5633980000000  0.4251920000000 1.0
C      1  0.5852750000000  0.4649440000000  0.4707730000000 1.0
C      1  0.4484420000000  0.4776270000000  0.5153940000000 1.0
C      1  0.4367130000000  0.5083200000000  0.4120450000000 1.0
C      1  0.4090540000000  0.5407150000000  0.4965010000000 1.0
C      1  0.4447000000000  0.5002700000000  0.5703400000000 1.0
C      1  0.5905570000000  0.5520470000000  0.5066750000000 1.0
C      1  0.4734630000000  0.4459710000000  0.5683860000000 1.0
C      1  0.4455470000000  0.4769130000000  0.4484220000000 1.0
C      1  0.4045700000000  0.4934170000000  0.5278180000000 1.0
C      1  0.5991410000000  0.4344870000000  0.5051530000000 1.0
C      1  0.5290910000000  0.5536120000000  0.4989440000000 1.0
C      1  0.4648430000000  0.5549400000000  0.4474320000000 1.0
C      1  0.4348450000000  0.4564780000000  0.4675760000000 1.0
C      1  0.4356740000000  0.4217680000000  0.5138480000000 1.0
C      1  0.5261940000000  0.5696320000000  0.5451940000000 1.0
C      1  0.4274580000000  0.5211060000000  0.5624500000000 1.0
END
