TITL C-21793-2022-4 206.931883567271 125000 -412.909369274297 0 0 61 (C1) n - 1
REM
REM in /rds/project/t2_vol4/rds-t2-cs072/BORA/CARBON/from-Arr/AIRSS/Generating-Clusters/GAP-ML-2020/Only-C1/SD-CG/HFTN-CG
REM
REM
REM
REM
REM
REM ./C.cell (11c1c37f851c82e70ff6c80c92926a4b)
REM AIRSS Version 0.9.1 bugfix July 2018 build 013d7b7c2542+ Fri, 06 Jul 2018 19:26:36 +0100
REM compiler GCC version 9.3.0
REM options -cpp -mtune=generic -march=x86-64 -g -O0
REM seed -1241608868 2111753212 -1327919408 -1444081256 1532644529 -232294985 -1676317436 -2120680334 -1674135798 1793194820 1754909171 -90560431 1398496719 352072054 -635090618 -1623196454 552410103 1178549577 -1546355397 -1997022217 -121377298 96777400 -1775220238 1782682253 106583141 -1048209082 -402298560 -1484629819 -1261320989 1495377840 1906643298 -329599478 278958865
REM
CELL 1.54180   50.00000   50.00000   50.00000   90.00000   90.00000   90.00000
LATT -1
SFAC C  
C      1  0.4976080000000  0.4622890000000  0.5033110000000 1.0
C      1  0.5724400000000  0.5025450000000  0.4769500000000 1.0
C      1  0.5113510000000  0.4421510000000  0.4878370000000 1.0
C      1  0.5504370000000  0.4862790000000  0.4462130000000 1.0
C      1  0.4594990000000  0.5142200000000  0.5640210000000 1.0
C      1  0.4879490000000  0.4774750000000  0.5756290000000 1.0
C      1  0.5559060000000  0.5075550000000  0.5016400000000 1.0
C      1  0.5562960000000  0.4621310000000  0.4942280000000 1.0
C      1  0.4404820000000  0.5273430000000  0.4690160000000 1.0
C      1  0.5074270000000  0.5268980000000  0.5014370000000 1.0
C      1  0.4867250000000  0.5252910000000  0.5662580000000 1.0
C      1  0.4761680000000  0.4739090000000  0.4381630000000 1.0
C      1  0.5009100000000  0.5570020000000  0.4984610000000 1.0
C      1  0.4915190000000  0.4851390000000  0.4859670000000 1.0
C      1  0.4282030000000  0.5195580000000  0.4944270000000 1.0
C      1  0.5011640000000  0.4617090000000  0.4426040000000 1.0
C      1  0.4978580000000  0.4410790000000  0.4630190000000 1.0
C      1  0.5166030000000  0.5343830000000  0.4429890000000 1.0
C      1  0.5380250000000  0.4391880000000  0.4984990000000 1.0
C      1  0.5009580000000  0.5553970000000  0.4493270000000 1.0
C      1  0.5388810000000  0.4328240000000  0.5253740000000 1.0
C      1  0.5054890000000  0.5090330000000  0.4366390000000 1.0
C      1  0.4587710000000  0.5190170000000  0.4499320000000 1.0
C      1  0.4366170000000  0.5339160000000  0.5193680000000 1.0
C      1  0.4688730000000  0.4388770000000  0.4671210000000 1.0
C      1  0.4559550000000  0.4664570000000  0.5499990000000 1.0
C      1  0.5639540000000  0.4757420000000  0.4701860000000 1.0
C      1  0.5043130000000  0.5001720000000  0.5669110000000 1.0
C      1  0.5146800000000  0.4931620000000  0.4710080000000 1.0
C      1  0.5021510000000  0.4650140000000  0.5322920000000 1.0
C      1  0.4815940000000  0.5108450000000  0.4969460000000 1.0
C      1  0.4377480000000  0.4695360000000  0.5001470000000 1.0
C      1  0.4500360000000  0.5165440000000  0.5371790000000 1.0
C      1  0.4467470000000  0.4520730000000  0.4782700000000 1.0
C      1  0.5468350000000  0.5552520000000  0.4783810000000 1.0
C      1  0.5384100000000  0.5223370000000  0.5418080000000 1.0
C      1  0.4609910000000  0.4865010000000  0.5699760000000 1.0
C      1  0.4555270000000  0.4585230000000  0.4520970000000 1.0
C      1  0.5346980000000  0.4997280000000  0.5575630000000 1.0
C      1  0.5119350000000  0.5226350000000  0.5299330000000 1.0
C      1  0.4965660000000  0.4959230000000  0.5369130000000 1.0
C      1  0.5287320000000  0.5665760000000  0.4969540000000 1.0
C      1  0.5288080000000  0.5141550000000  0.4841970000000 1.0
C      1  0.5290500000000  0.4541890000000  0.5395240000000 1.0
C      1  0.4241840000000  0.4932090000000  0.4958710000000 1.0
C      1  0.5399420000000  0.5318190000000  0.4614040000000 1.0
C      1  0.5550290000000  0.4818880000000  0.5149430000000 1.0
C      1  0.4564370000000  0.5526060000000  0.5207280000000 1.0
C      1  0.5566320000000  0.5296600000000  0.5206980000000 1.0
C      1  0.4871680000000  0.5549560000000  0.4724230000000 1.0
C      1  0.4689130000000  0.5319420000000  0.4748040000000 1.0
C      1  0.4519560000000  0.4771480000000  0.5241660000000 1.0
C      1  0.5211090000000  0.4843130000000  0.4437190000000 1.0
C      1  0.5515100000000  0.5526550000000  0.5057930000000 1.0
C      1  0.5603530000000  0.5130240000000  0.4526870000000 1.0
C      1  0.4945100000000  0.5410400000000  0.5442960000000 1.0
C      1  0.5444610000000  0.4779760000000  0.5415840000000 1.0
C      1  0.4830730000000  0.4573500000000  0.5542030000000 1.0
C      1  0.4826260000000  0.5571370000000  0.5238910000000 1.0
C      1  0.4772690000000  0.5020960000000  0.4370030000000 1.0
C      1  0.4699370000000  0.5006100000000  0.5230690000000 1.0
END
