TITL C-21084-1542-9 9.42282319225206 125000 -277.372120385538 0 0 41 (C1) n - 1
REM
REM in /rds/project/t2_vol4/rds-t2-cs072/BORA/CARBON/from-Arr/AIRSS/Generating-Clusters/GAP-ML-2020/Only-C1/SD-CG/HFTN-CG
REM
REM
REM
REM
REM
REM ./C.cell (11c1c37f851c82e70ff6c80c92926a4b)
REM AIRSS Version 0.9.1 bugfix July 2018 build 013d7b7c2542+ Fri, 06 Jul 2018 19:26:36 +0100
REM compiler GCC version 9.3.0
REM options -cpp -mtune=generic -march=x86-64 -g -O0
REM seed 924787994 1110396353 723487360 2077539822 -1980265465 -101201781 -1740750720 -873024023 1965707295 974381253 1653580685 173721490 850249137 1336838055 -859627834 1201599424 912067808 -2120319688 -596496923 -913905143 1395558524 72519615 509960774 -573625901 2113581347 844869816 -455825471 753835457 -1731344002 -977553597 1370998319 -1022181534 911718549
REM
CELL 1.54180   50.00000   50.00000   50.00000   90.00000   90.00000   90.00000
LATT -1
SFAC C  
C      1  0.5048640000000  0.4423250000000  0.5192560000000 1.0
C      1  0.4950720000000  0.5046160000000  0.4414350000000 1.0
C      1  0.5314010000000  0.4504870000000  0.5142000000000 1.0
C      1  0.4715090000000  0.4560220000000  0.4524910000000 1.0
C      1  0.5515250000000  0.4910820000000  0.5033710000000 1.0
C      1  0.4887270000000  0.5378240000000  0.5318220000000 1.0
C      1  0.5396060000000  0.5348650000000  0.4781010000000 1.0
C      1  0.4885740000000  0.5135700000000  0.5474370000000 1.0
C      1  0.5380070000000  0.5099630000000  0.5452310000000 1.0
C      1  0.4700850000000  0.5440700000000  0.5091810000000 1.0
C      1  0.5389010000000  0.4645440000000  0.5385420000000 1.0
C      1  0.4771590000000  0.4935460000000  0.5302460000000 1.0
C      1  0.5190310000000  0.4686620000000  0.4699420000000 1.0
C      1  0.5125580000000  0.5584490000000  0.4971510000000 1.0
C      1  0.4573170000000  0.4750550000000  0.4426710000000 1.0
C      1  0.5345170000000  0.5617910000000  0.4818130000000 1.0
C      1  0.5188510000000  0.5171240000000  0.4693810000000 1.0
C      1  0.5515340000000  0.4878930000000  0.5319870000000 1.0
C      1  0.5380150000000  0.4671270000000  0.4912240000000 1.0
C      1  0.5134020000000  0.5009080000000  0.5572360000000 1.0
C      1  0.5372050000000  0.5300040000000  0.5256380000000 1.0
C      1  0.4362020000000  0.5057010000000  0.5031260000000 1.0
C      1  0.4799270000000  0.5434570000000  0.4638000000000 1.0
C      1  0.4717940000000  0.4668960000000  0.5404990000000 1.0
C      1  0.4585040000000  0.4882980000000  0.5047320000000 1.0
C      1  0.5178010000000  0.4919010000000  0.4538210000000 1.0
C      1  0.4585770000000  0.5259380000000  0.4665630000000 1.0
C      1  0.5001670000000  0.5304790000000  0.4504880000000 1.0
C      1  0.4495520000000  0.5276560000000  0.4940570000000 1.0
C      1  0.4785730000000  0.4913920000000  0.4816960000000 1.0
C      1  0.5143100000000  0.5472950000000  0.5236040000000 1.0
C      1  0.5164450000000  0.4714280000000  0.5546270000000 1.0
C      1  0.4859830000000  0.5560150000000  0.4884740000000 1.0
C      1  0.4845260000000  0.4477210000000  0.5009140000000 1.0
C      1  0.5052560000000  0.4909190000000  0.5131520000000 1.0
C      1  0.4993040000000  0.5095260000000  0.4922010000000 1.0
C      1  0.4963510000000  0.4549680000000  0.5449950000000 1.0
C      1  0.4688040000000  0.5002530000000  0.4539980000000 1.0
C      1  0.4906610000000  0.4612060000000  0.4756390000000 1.0
C      1  0.4618940000000  0.4600290000000  0.5146550000000 1.0
C      1  0.5475110000000  0.5189950000000  0.5006050000000 1.0
END
