TITL C-21804-3096-3 0.105283853879228 125000 -467.1597818855 0 0 69 (C1) n - 1
REM
REM in /rds/project/t2_vol4/rds-t2-cs072/BORA/CARBON/from-Arr/AIRSS/Generating-Clusters/GAP-ML-2020/Only-C1/SD-CG/HFTN-CG
REM
REM
REM
REM
REM
REM ./C.cell (11c1c37f851c82e70ff6c80c92926a4b)
REM AIRSS Version 0.9.1 bugfix July 2018 build 013d7b7c2542+ Fri, 06 Jul 2018 19:26:36 +0100
REM compiler GCC version 9.3.0
REM options -cpp -mtune=generic -march=x86-64 -g -O0
REM seed 976262196 1804483738 -1884964540 789790453 138482995 801475483 1727585486 1961810224 531052517 -280049159 1430483023 -1034704673 742884352 1281822432 686191737 2084136746 335837746 1197909391 -1318023678 1472812750 -1961069318 -540341588 1834650625 -844499025 2006389342 66033128 1759714228 -1040570736 -1660649153 1664187016 -512613955 -658907227 -1522334839
REM
CELL 1.54180   50.00000   50.00000   50.00000   90.00000   90.00000   90.00000
LATT -1
SFAC C  
C      1  0.4679980000000  0.4496380000000  0.4680630000000 1.0
C      1  0.5181600000000  0.4878170000000  0.4839520000000 1.0
C      1  0.4311300000000  0.4887600000000  0.4769650000000 1.0
C      1  0.5510900000000  0.4676320000000  0.5388810000000 1.0
C      1  0.4435430000000  0.4856230000000  0.5425760000000 1.0
C      1  0.4963770000000  0.5729050000000  0.4929180000000 1.0
C      1  0.4769990000000  0.5471590000000  0.4633190000000 1.0
C      1  0.5434860000000  0.4209610000000  0.5214530000000 1.0
C      1  0.4286130000000  0.4722700000000  0.5216200000000 1.0
C      1  0.4395470000000  0.4523230000000  0.5052170000000 1.0
C      1  0.4521270000000  0.5501870000000  0.5050530000000 1.0
C      1  0.4617510000000  0.4374170000000  0.5137560000000 1.0
C      1  0.4823960000000  0.5497830000000  0.5432650000000 1.0
C      1  0.5114280000000  0.5839690000000  0.5445220000000 1.0
C      1  0.5139480000000  0.4830170000000  0.5702540000000 1.0
C      1  0.5502640000000  0.5536240000000  0.4928370000000 1.0
C      1  0.4996220000000  0.5602740000000  0.4496890000000 1.0
C      1  0.4573300000000  0.5398630000000  0.5328980000000 1.0
C      1  0.5352810000000  0.5164670000000  0.5529520000000 1.0
C      1  0.4964370000000  0.4899940000000  0.5284960000000 1.0
C      1  0.5460450000000  0.4388250000000  0.4645990000000 1.0
C      1  0.5476110000000  0.5592170000000  0.5221520000000 1.0
C      1  0.5390270000000  0.5727840000000  0.4757700000000 1.0
C      1  0.5124200000000  0.4670980000000  0.4443410000000 1.0
C      1  0.5480280000000  0.5249270000000  0.4822070000000 1.0
C      1  0.5569760000000  0.4849350000000  0.5152530000000 1.0
C      1  0.4237770000000  0.5162840000000  0.5135750000000 1.0
C      1  0.5042670000000  0.4216520000000  0.4915960000000 1.0
C      1  0.4893410000000  0.5747370000000  0.5554830000000 1.0
C      1  0.5222250000000  0.4249250000000  0.4695950000000 1.0
C      1  0.4384400000000  0.5172700000000  0.4683920000000 1.0
C      1  0.5284050000000  0.4911540000000  0.4561040000000 1.0
C      1  0.4877680000000  0.4866080000000  0.5572720000000 1.0
C      1  0.5001990000000  0.5280880000000  0.4777760000000 1.0
C      1  0.5040950000000  0.5464720000000  0.5004020000000 1.0
C      1  0.5178290000000  0.5099630000000  0.5265410000000 1.0
C      1  0.5143100000000  0.5392190000000  0.4350380000000 1.0
C      1  0.5569130000000  0.4440290000000  0.5219350000000 1.0
C      1  0.5342980000000  0.5420670000000  0.5406960000000 1.0
C      1  0.5622850000000  0.4600480000000  0.4729410000000 1.0
C      1  0.4433560000000  0.4616840000000  0.4779830000000 1.0
C      1  0.5274050000000  0.4648520000000  0.5531360000000 1.0
C      1  0.5154490000000  0.4207510000000  0.5185340000000 1.0
C      1  0.4774710000000  0.4946990000000  0.5066680000000 1.0
C      1  0.5689030000000  0.5076860000000  0.4716810000000 1.0
C      1  0.5128550000000  0.5745580000000  0.4694620000000 1.0
C      1  0.5246430000000  0.5223830000000  0.4594820000000 1.0
C      1  0.4194210000000  0.4912610000000  0.5029000000000 1.0
C      1  0.4705080000000  0.5621930000000  0.4877430000000 1.0
C      1  0.4735300000000  0.4445500000000  0.5382540000000 1.0
C      1  0.5014300000000  0.4396220000000  0.5360160000000 1.0
C      1  0.4769810000000  0.5124120000000  0.4346680000000 1.0
C      1  0.4334740000000  0.5327330000000  0.4925550000000 1.0
C      1  0.4582430000000  0.5280550000000  0.4511370000000 1.0
C      1  0.5311880000000  0.5039300000000  0.5765270000000 1.0
C      1  0.5662770000000  0.4620680000000  0.5006990000000 1.0
C      1  0.5122410000000  0.4648250000000  0.5288850000000 1.0
C      1  0.5333500000000  0.5829020000000  0.5304830000000 1.0
C      1  0.5579760000000  0.4858380000000  0.4604240000000 1.0
C      1  0.4972880000000  0.5240920000000  0.4202810000000 1.0
C      1  0.4652600000000  0.4700590000000  0.5529990000000 1.0
C      1  0.4781560000000  0.4328330000000  0.4896770000000 1.0
C      1  0.5355300000000  0.5030500000000  0.5031340000000 1.0
C      1  0.4906870000000  0.5002240000000  0.4828400000000 1.0
C      1  0.4415680000000  0.5151290000000  0.5362720000000 1.0
C      1  0.5241590000000  0.4421210000000  0.4472440000000 1.0
C      1  0.4801960000000  0.4918200000000  0.4524850000000 1.0
C      1  0.4844590000000  0.4648180000000  0.4494050000000 1.0
C      1  0.5062110000000  0.5388680000000  0.5280720000000 1.0
END
