TITL C-21803-2742-4 -0.0547337686809922 125000 -328.889543166411 0 0 50 (C1) n - 1
REM
REM in /rds/project/t2_vol4/rds-t2-cs072/BORA/CARBON/from-Arr/AIRSS/Generating-Clusters/GAP-ML-2020/Only-C1/SD-CG/HFTN-CG
REM
REM
REM
REM
REM
REM ./C.cell (11c1c37f851c82e70ff6c80c92926a4b)
REM AIRSS Version 0.9.1 bugfix July 2018 build 013d7b7c2542+ Fri, 06 Jul 2018 19:26:36 +0100
REM compiler GCC version 9.3.0
REM options -cpp -mtune=generic -march=x86-64 -g -O0
REM seed -149536053 1109767727 -226253829 427109730 -1591683630 1317938469 739561747 -712304287 -1782467587 -1567057394 779798633 -557854083 -2126972242 -858976071 -268757759 1873679290 394686287 1739713133 -1476938081 802360994 2129383854 1234849206 853346093 -1241340096 1977367816 -1278185057 89932813 676069858 -1393004122 -834225650 385639650 -1388818071 -150653826
REM
CELL 1.54180   50.00000   50.00000   50.00000   90.00000   90.00000   90.00000
LATT -1
SFAC C  
C      1  0.5372410000000  0.4937850000000  0.5580770000000 1.0
C      1  0.5189770000000  0.5165580000000  0.5634370000000 1.0
C      1  0.4731420000000  0.4632940000000  0.5131240000000 1.0
C      1  0.5648870000000  0.4957160000000  0.5573710000000 1.0
C      1  0.5078940000000  0.4468430000000  0.4514410000000 1.0
C      1  0.5249950000000  0.5295610000000  0.5146400000000 1.0
C      1  0.5107140000000  0.4721300000000  0.4384390000000 1.0
C      1  0.5199740000000  0.4746970000000  0.5452380000000 1.0
C      1  0.5271190000000  0.5558460000000  0.5015290000000 1.0
C      1  0.5059810000000  0.5109540000000  0.4979360000000 1.0
C      1  0.5215020000000  0.4638080000000  0.5183610000000 1.0
C      1  0.4566500000000  0.5103200000000  0.4975150000000 1.0
C      1  0.4422570000000  0.4662890000000  0.4778450000000 1.0
C      1  0.5256230000000  0.4936760000000  0.4490630000000 1.0
C      1  0.4630530000000  0.5506370000000  0.4516430000000 1.0
C      1  0.4930000000000  0.5053800000000  0.5694750000000 1.0
C      1  0.4719950000000  0.5231930000000  0.5607330000000 1.0
C      1  0.4860070000000  0.5444000000000  0.5452000000000 1.0
C      1  0.4798950000000  0.5611640000000  0.4990240000000 1.0
C      1  0.5055550000000  0.5694450000000  0.4900380000000 1.0
C      1  0.4857490000000  0.4714260000000  0.4872340000000 1.0
C      1  0.5538100000000  0.5090760000000  0.4839390000000 1.0
C      1  0.4537630000000  0.5105420000000  0.5436250000000 1.0
C      1  0.5121130000000  0.4325620000000  0.4751930000000 1.0
C      1  0.4603230000000  0.5277090000000  0.4415730000000 1.0
C      1  0.4610010000000  0.4889520000000  0.4777460000000 1.0
C      1  0.4802790000000  0.5474490000000  0.4742580000000 1.0
C      1  0.4955190000000  0.5220500000000  0.4704040000000 1.0
C      1  0.4930710000000  0.4819480000000  0.5539440000000 1.0
C      1  0.4729770000000  0.4851170000000  0.5319850000000 1.0
C      1  0.5296160000000  0.5619330000000  0.4752730000000 1.0
C      1  0.4876520000000  0.4478130000000  0.4709190000000 1.0
C      1  0.5600500000000  0.5269240000000  0.4637160000000 1.0
C      1  0.5148290000000  0.4821830000000  0.4946780000000 1.0
C      1  0.5523380000000  0.5167390000000  0.5125040000000 1.0
C      1  0.4882810000000  0.4865130000000  0.4384410000000 1.0
C      1  0.5653430000000  0.5085680000000  0.5348760000000 1.0
C      1  0.5213150000000  0.4182790000000  0.4964770000000 1.0
C      1  0.5172000000000  0.5224280000000  0.4504330000000 1.0
C      1  0.4682100000000  0.5515400000000  0.5223570000000 1.0
C      1  0.5135450000000  0.5345700000000  0.5419970000000 1.0
C      1  0.4819960000000  0.5070780000000  0.5125380000000 1.0
C      1  0.4468730000000  0.4503330000000  0.4986820000000 1.0
C      1  0.4581340000000  0.4264990000000  0.5077440000000 1.0
C      1  0.5370990000000  0.5416930000000  0.4562730000000 1.0
C      1  0.4495760000000  0.5271020000000  0.5196120000000 1.0
C      1  0.5103250000000  0.4367920000000  0.5137930000000 1.0
C      1  0.4739850000000  0.5041600000000  0.4550110000000 1.0
C      1  0.4819270000000  0.4361960000000  0.5199620000000 1.0
C      1  0.5366390000000  0.4881290000000  0.4746830000000 1.0
END
