TITL C-2109094-7590-32 -0.115816339469912 125000 -373.38234157507 0 0 54 (C1) n - 1
REM
REM in /nfs/bkarasulu/CARBON/AIRSS/Generating-Clusters/GAP-ML-2020/Only-C1/SD-CG/HFTN-CG
REM
REM
REM
REM
REM
REM ./C.cell (11c1c37f851c82e70ff6c80c92926a4b)
REM
REM compiler GCC version 9.2.1 20190827 (Red Hat 9.2.1-1)
REM options -cpp -mtune=generic -march=x86-64 -g -O0 -fpre-include=/usr/include/finclude/math-vector-fortran.h
REM seed 2107009502 1886113661 -1556675078 -2062298847 -1144308626 573902268 1251703229 -1356035181 1631363276 1019116768 -575847699 1502290800 2055024614 148703355 1963938667 -130199060 1994948355 317114090 -738615717 -1138500425 1977543482 2048531850 78774474 558998487 1483467198 1988382786 358125888 -1717982862 23981908 -833555226 930543813 665899824 1281994205
REM
CELL 1.54180   50.00000   50.00000   50.00000   90.00000   90.00000   90.00000
LATT -1
SFAC C  
C      1  0.4943420000000  0.5348820000000  0.5232960000000 1.0
C      1  0.4560030000000  0.4465860000000  0.5051560000000 1.0
C      1  0.4890820000000  0.4141950000000  0.4873610000000 1.0
C      1  0.5286580000000  0.5541760000000  0.5487790000000 1.0
C      1  0.4937890000000  0.5205350000000  0.5511850000000 1.0
C      1  0.4684620000000  0.5484070000000  0.5208460000000 1.0
C      1  0.4920190000000  0.5659470000000  0.4808980000000 1.0
C      1  0.5310620000000  0.4443650000000  0.4886810000000 1.0
C      1  0.4478280000000  0.4672950000000  0.4631160000000 1.0
C      1  0.4499010000000  0.5316000000000  0.5361390000000 1.0
C      1  0.5606300000000  0.4786750000000  0.5007090000000 1.0
C      1  0.5201270000000  0.5464610000000  0.4451990000000 1.0
C      1  0.5423230000000  0.5304720000000  0.5566620000000 1.0
C      1  0.4937110000000  0.5526880000000  0.4540360000000 1.0
C      1  0.4842910000000  0.4602090000000  0.4459510000000 1.0
C      1  0.5075670000000  0.4994760000000  0.4405920000000 1.0
C      1  0.4432100000000  0.4691030000000  0.4921260000000 1.0
C      1  0.5157530000000  0.5349480000000  0.5654560000000 1.0
C      1  0.4647860000000  0.4830060000000  0.4449990000000 1.0
C      1  0.4652700000000  0.4435390000000  0.4594230000000 1.0
C      1  0.4997720000000  0.4397540000000  0.5259370000000 1.0
C      1  0.5080180000000  0.4301420000000  0.4997620000000 1.0
C      1  0.5429050000000  0.4617710000000  0.5345910000000 1.0
C      1  0.5214580000000  0.5508410000000  0.5183450000000 1.0
C      1  0.4537230000000  0.4919480000000  0.5522300000000 1.0
C      1  0.4681150000000  0.5572640000000  0.4931690000000 1.0
C      1  0.4673030000000  0.4298920000000  0.4840550000000 1.0
C      1  0.5534360000000  0.5161060000000  0.5333550000000 1.0
C      1  0.4714720000000  0.4688330000000  0.5496950000000 1.0
C      1  0.5274990000000  0.5183930000000  0.4457280000000 1.0
C      1  0.5393730000000  0.5654390000000  0.4497980000000 1.0
C      1  0.5512250000000  0.5339410000000  0.4840050000000 1.0
C      1  0.4411050000000  0.4949290000000  0.5040000000000 1.0
C      1  0.4650950000000  0.5186900000000  0.5576320000000 1.0
C      1  0.4580240000000  0.5361480000000  0.4763470000000 1.0
C      1  0.5394680000000  0.5593150000000  0.4755120000000 1.0
C      1  0.4911750000000  0.5106430000000  0.5016570000000 1.0
C      1  0.5496150000000  0.4525620000000  0.5079900000000 1.0
C      1  0.5562850000000  0.4882750000000  0.5280980000000 1.0
C      1  0.5311690000000  0.4644350000000  0.4670560000000 1.0
C      1  0.5462130000000  0.5334050000000  0.5114800000000 1.0
C      1  0.4585590000000  0.5124410000000  0.4910600000000 1.0
C      1  0.5500800000000  0.4852060000000  0.4746350000000 1.0
C      1  0.5470070000000  0.5118710000000  0.4656560000000 1.0
C      1  0.4988380000000  0.4705890000000  0.5586280000000 1.0
C      1  0.4724020000000  0.4491290000000  0.5285320000000 1.0
C      1  0.5171120000000  0.4531210000000  0.5439930000000 1.0
C      1  0.5179090000000  0.5667090000000  0.4940730000000 1.0
C      1  0.5102600000000  0.4719580000000  0.4488280000000 1.0
C      1  0.4379050000000  0.5042020000000  0.5306710000000 1.0
C      1  0.4735130000000  0.5332280000000  0.4519480000000 1.0
C      1  0.5027510000000  0.4911690000000  0.5151300000000 1.0
C      1  0.5029160000000  0.4939710000000  0.5444500000000 1.0
C      1  0.4794850000000  0.5071160000000  0.4413420000000 1.0
END
