TITL C-2109092-4430-19 -158.447967102569 125000 -508.912483414597 0 0 73 (C1) n - 1
REM
REM in /nfs/bkarasulu/CARBON/AIRSS/Generating-Clusters/GAP-ML-2020/Only-C1/SD-CG/HFTN-CG
REM
REM
REM
REM
REM
REM ./C.cell (11c1c37f851c82e70ff6c80c92926a4b)
REM
REM compiler GCC version 9.2.1 20190827 (Red Hat 9.2.1-1)
REM options -cpp -mtune=generic -march=x86-64 -g -O0 -fpre-include=/usr/include/finclude/math-vector-fortran.h
REM seed 1485669230 787575273 1583737195 -100699770 -1217621274 -2007798076 1634877413 2104673480 1206485281 1140607079 1045687446 1508614691 332019231 -1071035256 -382147224 -1185893168 -2109547528 -2000076267 -1292065618 280071164 -1760112689 284288641 -1117084005 -220919059 70005072 -2043169501 203749984 -926924259 -1847791164 1237080516 1927569545 512291263 160435271
REM
CELL 1.54180   50.00000   50.00000   50.00000   90.00000   90.00000   90.00000
LATT -1
SFAC C  
C      1  0.4535000000000  0.5422730000000  0.5251810000000 1.0
C      1  0.5048660000000  0.4665720000000  0.5660640000000 1.0
C      1  0.4507130000000  0.4803380000000  0.4580820000000 1.0
C      1  0.5002760000000  0.4961980000000  0.5642900000000 1.0
C      1  0.5453750000000  0.4629860000000  0.4328890000000 1.0
C      1  0.4413910000000  0.4863230000000  0.5105270000000 1.0
C      1  0.5476970000000  0.5318190000000  0.5409750000000 1.0
C      1  0.4515280000000  0.4569430000000  0.4734310000000 1.0
C      1  0.5168610000000  0.5671360000000  0.4721580000000 1.0
C      1  0.5574640000000  0.4685310000000  0.5017160000000 1.0
C      1  0.5593600000000  0.5075270000000  0.4468320000000 1.0
C      1  0.5241390000000  0.5264630000000  0.4945940000000 1.0
C      1  0.4971320000000  0.4709310000000  0.4384260000000 1.0
C      1  0.5332110000000  0.5078620000000  0.4338860000000 1.0
C      1  0.4885230000000  0.4980470000000  0.4764920000000 1.0
C      1  0.4779180000000  0.4287980000000  0.4993520000000 1.0
C      1  0.4749400000000  0.4904820000000  0.5022590000000 1.0
C      1  0.4765770000000  0.4900150000000  0.4466210000000 1.0
C      1  0.4411430000000  0.5352690000000  0.5003640000000 1.0
C      1  0.4324290000000  0.5083980000000  0.4944200000000 1.0
C      1  0.5327970000000  0.4640040000000  0.5586620000000 1.0
C      1  0.4901430000000  0.4444120000000  0.5539090000000 1.0
C      1  0.5189150000000  0.4964650000000  0.4874450000000 1.0
C      1  0.4922560000000  0.5370260000000  0.4462930000000 1.0
C      1  0.5226860000000  0.4805960000000  0.4287350000000 1.0
C      1  0.4980370000000  0.4488680000000  0.4574920000000 1.0
C      1  0.5097240000000  0.5776020000000  0.4974960000000 1.0
C      1  0.5609290000000  0.5262050000000  0.4689760000000 1.0
C      1  0.4776330000000  0.5177600000000  0.5677510000000 1.0
C      1  0.5037340000000  0.5467030000000  0.5632410000000 1.0
C      1  0.4473120000000  0.5269380000000  0.4263220000000 1.0
C      1  0.4756170000000  0.4414640000000  0.4732580000000 1.0
C      1  0.4923540000000  0.5643390000000  0.4578620000000 1.0
C      1  0.5085170000000  0.4303270000000  0.5377100000000 1.0
C      1  0.4633630000000  0.4473710000000  0.5434180000000 1.0
C      1  0.4832260000000  0.5145180000000  0.5195540000000 1.0
C      1  0.5458920000000  0.4893600000000  0.5588990000000 1.0
C      1  0.5585100000000  0.5048020000000  0.5383140000000 1.0
C      1  0.5331720000000  0.5411930000000  0.4688620000000 1.0
C      1  0.5662500000000  0.4949170000000  0.5118870000000 1.0
C      1  0.5426550000000  0.4382890000000  0.4441620000000 1.0
C      1  0.4421190000000  0.4582800000000  0.5006330000000 1.0
C      1  0.4458110000000  0.4930510000000  0.5388410000000 1.0
C      1  0.4422860000000  0.5279710000000  0.4535880000000 1.0
C      1  0.5412690000000  0.4739420000000  0.4771230000000 1.0
C      1  0.5298780000000  0.5332690000000  0.5637980000000 1.0
C      1  0.4837900000000  0.5393080000000  0.5829770000000 1.0
C      1  0.5588410000000  0.4802640000000  0.4530900000000 1.0
C      1  0.5456150000000  0.4455860000000  0.5139270000000 1.0
C      1  0.4918910000000  0.4704010000000  0.5130990000000 1.0
C      1  0.5697390000000  0.5135080000000  0.4917140000000 1.0
C      1  0.4523880000000  0.4709160000000  0.5519390000000 1.0
C      1  0.5263040000000  0.4449280000000  0.4692770000000 1.0
C      1  0.4730180000000  0.5643000000000  0.5250770000000 1.0
C      1  0.5036950000000  0.4235220000000  0.5101960000000 1.0
C      1  0.5059020000000  0.5042400000000  0.5340540000000 1.0
C      1  0.4698700000000  0.5692530000000  0.4751690000000 1.0
C      1  0.5273410000000  0.5064820000000  0.5724770000000 1.0
C      1  0.4575440000000  0.4399840000000  0.5162110000000 1.0
C      1  0.4822380000000  0.5267030000000  0.4749420000000 1.0
C      1  0.4984750000000  0.5618830000000  0.5396730000000 1.0
C      1  0.4954910000000  0.5325750000000  0.4994350000000 1.0
C      1  0.4720850000000  0.5180520000000  0.4341330000000 1.0
C      1  0.5151850000000  0.4848960000000  0.5149780000000 1.0
C      1  0.5205680000000  0.5667940000000  0.5213420000000 1.0
C      1  0.5385750000000  0.5446440000000  0.5181620000000 1.0
C      1  0.4357420000000  0.5034190000000  0.4670120000000 1.0
C      1  0.4532330000000  0.5449000000000  0.4756000000000 1.0
C      1  0.4608290000000  0.5186040000000  0.5417730000000 1.0
C      1  0.5198210000000  0.5299050000000  0.4445790000000 1.0
C      1  0.5270050000000  0.4324750000000  0.4960710000000 1.0
C      1  0.4800580000000  0.5772860000000  0.5001190000000 1.0
C      1  0.5346270000000  0.4425920000000  0.5401840000000 1.0
END
