TITL C-215735-9236-2 -21.1429273675677 125000 -376.702293515529 0 0 56 (C1) n - 1
REM
REM in /rds/project/t2_vol4/rds-t2-cs072/BORA/CARBON/from-Arr/AIRSS/Generating-Clusters/GAP-ML-2020/Only-C1/SD-CG/HFTN-CG
REM
REM
REM
REM
REM
REM ./C.cell (11c1c37f851c82e70ff6c80c92926a4b)
REM AIRSS Version 0.9.1 bugfix July 2018 build 013d7b7c2542+ Fri, 06 Jul 2018 19:26:36 +0100
REM compiler GCC version 9.3.0
REM options -cpp -mtune=generic -march=x86-64 -g -O0
REM seed -1300352757 195614912 -2077291967 -1049772028 1104634220 1644490857 146676876 -809885626 634785830 1143881321 1199267161 195883468 2049075400 1105302849 844152630 -1126918413 -357969095 -78866702 1818978139 -713506702 -911139323 434469502 1125554043 1539995468 -2138452369 -1285202277 1779603898 797913359 -1124731905 1653390300 187357595 -1725383626 -461921514
REM
CELL 1.54180   50.00000   50.00000   50.00000   90.00000   90.00000   90.00000
LATT -1
SFAC C  
C      1  0.5018520000000  0.5511140000000  0.5516060000000 1.0
C      1  0.5259830000000  0.4560660000000  0.4601120000000 1.0
C      1  0.4667920000000  0.5408180000000  0.4639860000000 1.0
C      1  0.5550550000000  0.4429300000000  0.5084410000000 1.0
C      1  0.4441310000000  0.5053630000000  0.5251930000000 1.0
C      1  0.4729540000000  0.5589970000000  0.5147000000000 1.0
C      1  0.5583190000000  0.4605850000000  0.5297620000000 1.0
C      1  0.5295420000000  0.4354080000000  0.5036720000000 1.0
C      1  0.5275320000000  0.4962800000000  0.5265760000000 1.0
C      1  0.4642770000000  0.5163170000000  0.5439580000000 1.0
C      1  0.5064900000000  0.4681640000000  0.4435270000000 1.0
C      1  0.4873290000000  0.4498570000000  0.4816910000000 1.0
C      1  0.4466390000000  0.5181710000000  0.4993570000000 1.0
C      1  0.4407930000000  0.4808490000000  0.4722000000000 1.0
C      1  0.4405570000000  0.4759210000000  0.5215300000000 1.0
C      1  0.5366170000000  0.5007850000000  0.5565530000000 1.0
C      1  0.5296550000000  0.5464560000000  0.5479720000000 1.0
C      1  0.5560330000000  0.4888290000000  0.4899330000000 1.0
C      1  0.4687400000000  0.5390900000000  0.4942840000000 1.0
C      1  0.5423980000000  0.5259680000000  0.5629810000000 1.0
C      1  0.4640660000000  0.4463680000000  0.5001550000000 1.0
C      1  0.4768070000000  0.4942920000000  0.5569330000000 1.0
C      1  0.4907370000000  0.5359740000000  0.4495890000000 1.0
C      1  0.5031850000000  0.4758650000000  0.4921770000000 1.0
C      1  0.4621150000000  0.4933330000000  0.4923760000000 1.0
C      1  0.4486030000000  0.5221420000000  0.4536820000000 1.0
C      1  0.5300060000000  0.5085530000000  0.4607120000000 1.0
C      1  0.5254220000000  0.4758150000000  0.5651570000000 1.0
C      1  0.4331640000000  0.5098400000000  0.4742060000000 1.0
C      1  0.4961380000000  0.4771720000000  0.5663080000000 1.0
C      1  0.5232530000000  0.5599670000000  0.4794090000000 1.0
C      1  0.5312100000000  0.4800740000000  0.4771080000000 1.0
C      1  0.4619450000000  0.4569720000000  0.5280900000000 1.0
C      1  0.5132140000000  0.5348040000000  0.4677010000000 1.0
C      1  0.5661980000000  0.5378680000000  0.4826980000000 1.0
C      1  0.5343340000000  0.5420550000000  0.5192140000000 1.0
C      1  0.5367740000000  0.4546700000000  0.5489650000000 1.0
C      1  0.5187090000000  0.4471360000000  0.5280530000000 1.0
C      1  0.4811170000000  0.4600400000000  0.4533050000000 1.0
C      1  0.5573390000000  0.5134490000000  0.4747370000000 1.0
C      1  0.5034350000000  0.5762550000000  0.4890770000000 1.0
C      1  0.5466870000000  0.5525820000000  0.4956610000000 1.0
C      1  0.4776110000000  0.5441560000000  0.5404990000000 1.0
C      1  0.4898250000000  0.5122460000000  0.4346250000000 1.0
C      1  0.5552190000000  0.4860380000000  0.5178560000000 1.0
C      1  0.4979080000000  0.5228310000000  0.4927170000000 1.0
C      1  0.5144000000000  0.4373500000000  0.4795480000000 1.0
C      1  0.5124490000000  0.4962510000000  0.4393580000000 1.0
C      1  0.4879680000000  0.4978050000000  0.4823850000000 1.0
C      1  0.5188400000000  0.5199670000000  0.5130620000000 1.0
C      1  0.4590690000000  0.4767250000000  0.4493250000000 1.0
C      1  0.4846560000000  0.4699700000000  0.5393190000000 1.0
C      1  0.4843010000000  0.5837790000000  0.5052730000000 1.0
C      1  0.5077550000000  0.4737460000000  0.5206190000000 1.0
C      1  0.4407450000000  0.4636570000000  0.4945380000000 1.0
C      1  0.4631060000000  0.5022870000000  0.4375320000000 1.0
END
