TITL C-211906-457-2 -260.808653620096 125000 -80.6802272598901 0 0 13 (C1) n - 1
REM
REM in /rds/project/t2_vol4/rds-t2-cs072/BORA/CARBON/from-Arr/AIRSS/Generating-Clusters/GAP-ML-2020/Only-C1/SD-CG/HFTN-CG
REM
REM
REM
REM
REM
REM ./C.cell (11c1c37f851c82e70ff6c80c92926a4b)
REM AIRSS Version 0.9.1 bugfix July 2018 build 013d7b7c2542+ Fri, 06 Jul 2018 19:26:36 +0100
REM compiler GCC version 9.3.0
REM options -cpp -mtune=generic -march=x86-64 -g -O0
REM seed 1141663416 -1670885935 893464569 1559042726 -1837750969 832571917 1043124907 836767534 -702685765 736709862 1999465224 -200957186 -1057182003 399516029 1894822636 336653913 -1848783683 -901313400 -562809684 1262029798 1173378312 931775347 1329687879 1591916709 -531675363 409262694 555655186 1466888026 -1087306926 946213249 -1364186308 525727935 -77680377
REM
CELL 1.54180   50.00000   50.00000   50.00000   90.00000   90.00000   90.00000
LATT -1
SFAC C  
C      1  0.4653000000000  0.5226980000000  0.4901770000000 1.0
C      1  0.4665260000000  0.5313130000000  0.5143860000000 1.0
C      1  0.4881020000000  0.5144420000000  0.4778940000000 1.0
C      1  0.5117370000000  0.5181860000000  0.4925950000000 1.0
C      1  0.4722480000000  0.5401600000000  0.5375120000000 1.0
C      1  0.5077810000000  0.4690130000000  0.5513800000000 1.0
C      1  0.5202570000000  0.4360510000000  0.4838240000000 1.0
C      1  0.5120860000000  0.4891530000000  0.5364260000000 1.0
C      1  0.5156040000000  0.5099290000000  0.5202830000000 1.0
C      1  0.5124740000000  0.4584890000000  0.4738820000000 1.0
C      1  0.5304280000000  0.5300940000000  0.5068970000000 1.0
C      1  0.4934550000000  0.5010510000000  0.4533120000000 1.0
C      1  0.5040020000000  0.4794200000000  0.4614330000000 1.0
END
