TITL C-211899-534-2 0.0575762478913083 125000 -215.523765860589 0 0 33 (C1) n - 1
REM
REM in /rds/project/t2_vol4/rds-t2-cs072/BORA/CARBON/from-Arr/AIRSS/Generating-Clusters/GAP-ML-2020/Only-C1/SD-CG/HFTN-CG
REM
REM
REM
REM
REM
REM ./C.cell (11c1c37f851c82e70ff6c80c92926a4b)
REM AIRSS Version 0.9.1 bugfix July 2018 build 013d7b7c2542+ Fri, 06 Jul 2018 19:26:36 +0100
REM compiler GCC version 9.3.0
REM options -cpp -mtune=generic -march=x86-64 -g -O0
REM seed -554644871 1056524016 1130935616 1757890691 -642195933 -2004765947 -1420020018 -1783878705 1411311929 615645039 1062914219 -1764485224 460614612 -1143604945 132502557 -1719113387 -958120543 -498278892 -931859256 -151746761 -1998870565 1329178721 -396219607 1460140017 -2109317528 -194937204 -357248581 1763664802 -868232415 -56137061 -1559240729 -1300147171 -58693621
REM
CELL 1.54180   50.00000   50.00000   50.00000   90.00000   90.00000   90.00000
LATT -1
SFAC C  
C      1  0.4608520000000  0.5180060000000  0.4591690000000 1.0
C      1  0.5159700000000  0.5455270000000  0.4945020000000 1.0
C      1  0.4899280000000  0.4344630000000  0.5053460000000 1.0
C      1  0.4543980000000  0.4931630000000  0.5367640000000 1.0
C      1  0.5005730000000  0.5498410000000  0.4423400000000 1.0
C      1  0.4622110000000  0.4936660000000  0.4732830000000 1.0
C      1  0.4712390000000  0.5339590000000  0.5241380000000 1.0
C      1  0.4455550000000  0.5252300000000  0.5106630000000 1.0
C      1  0.5272140000000  0.5106920000000  0.4650390000000 1.0
C      1  0.5461260000000  0.4693950000000  0.4813250000000 1.0
C      1  0.5559300000000  0.5333620000000  0.5335520000000 1.0
C      1  0.4738090000000  0.4563830000000  0.5058460000000 1.0
C      1  0.5563730000000  0.4722560000000  0.5048250000000 1.0
C      1  0.4874690000000  0.4678230000000  0.5519780000000 1.0
C      1  0.5480410000000  0.5063650000000  0.5447090000000 1.0
C      1  0.5585840000000  0.4951370000000  0.5187750000000 1.0
C      1  0.4777500000000  0.4713210000000  0.4796520000000 1.0
C      1  0.5367940000000  0.5278780000000  0.4861620000000 1.0
C      1  0.4822040000000  0.5304870000000  0.4460100000000 1.0
C      1  0.5243000000000  0.5012170000000  0.5551080000000 1.0
C      1  0.4912000000000  0.5482170000000  0.5083240000000 1.0
C      1  0.4678600000000  0.4681810000000  0.5319750000000 1.0
C      1  0.5557230000000  0.5217300000000  0.5071790000000 1.0
C      1  0.5094540000000  0.4383090000000  0.4708200000000 1.0
C      1  0.4490720000000  0.5164990000000  0.4835210000000 1.0
C      1  0.4979880000000  0.4953540000000  0.5532920000000 1.0
C      1  0.4999140000000  0.5667960000000  0.4894320000000 1.0
C      1  0.5061590000000  0.4206560000000  0.4896830000000 1.0
C      1  0.5028140000000  0.4645530000000  0.4646800000000 1.0
C      1  0.5099570000000  0.5243320000000  0.4471120000000 1.0
C      1  0.5261560000000  0.4815890000000  0.4664890000000 1.0
C      1  0.4757320000000  0.5121330000000  0.5427320000000 1.0
C      1  0.4326530000000  0.5054820000000  0.5255730000000 1.0
END
