TITL C-214955-4956-4 -0.0170427377671196 125000 -682.112025940344 0 0 97 (C1) n - 1
REM
REM in /rds/project/t2_vol4/rds-t2-cs072/BORA/CARBON/from-Arr/AIRSS/Generating-Clusters/GAP-ML-2020/Only-C1/SD-CG/HFTN-CG
REM
REM
REM
REM
REM
REM ./C.cell (11c1c37f851c82e70ff6c80c92926a4b)
REM AIRSS Version 0.9.1 bugfix July 2018 build 013d7b7c2542+ Fri, 06 Jul 2018 19:26:36 +0100
REM compiler GCC version 9.3.0
REM options -cpp -mtune=generic -march=x86-64 -g -O0
REM seed -1782627929 852723347 -350316797 1658269143 1897183550 -496407453 4943796 1653925153 1464086965 1886010238 -748680749 2078064742 -891394897 1975971319 -1844520482 -1612882189 1277214042 1489423695 -98646098 -577460514 920534095 -1841890552 1467663857 383928643 -71451046 1403412141 1969608728 -577137391 -658592009 1998728944 900807803 1889390314 -26008225
REM
CELL 1.54180   50.00000   50.00000   50.00000   90.00000   90.00000   90.00000
LATT -1
SFAC C  
C      1  0.4819590000000  0.4809120000000  0.5199190000000 1.0
C      1  0.5373550000000  0.4726720000000  0.5758870000000 1.0
C      1  0.4764970000000  0.5843690000000  0.5041760000000 1.0
C      1  0.4922970000000  0.5242630000000  0.5723540000000 1.0
C      1  0.5394480000000  0.4290270000000  0.4641060000000 1.0
C      1  0.4520500000000  0.5273940000000  0.4382750000000 1.0
C      1  0.5541370000000  0.4563050000000  0.5579430000000 1.0
C      1  0.5658270000000  0.4850640000000  0.4759020000000 1.0
C      1  0.5514900000000  0.5278480000000  0.4601860000000 1.0
C      1  0.4372380000000  0.5513920000000  0.5005280000000 1.0
C      1  0.4495220000000  0.4290450000000  0.5227010000000 1.0
C      1  0.5577700000000  0.4929630000000  0.5787790000000 1.0
C      1  0.5517160000000  0.4462340000000  0.5083240000000 1.0
C      1  0.4635860000000  0.5482160000000  0.5448270000000 1.0
C      1  0.4992830000000  0.4269430000000  0.4449200000000 1.0
C      1  0.4977930000000  0.4531610000000  0.5582480000000 1.0
C      1  0.5118500000000  0.5034090000000  0.4097040000000 1.0
C      1  0.5193170000000  0.5863770000000  0.4869150000000 1.0
C      1  0.4797550000000  0.4409710000000  0.4298870000000 1.0
C      1  0.4326460000000  0.5260450000000  0.4857200000000 1.0
C      1  0.4485250000000  0.5061720000000  0.5667270000000 1.0
C      1  0.4297270000000  0.4736470000000  0.4830230000000 1.0
C      1  0.5307580000000  0.4413270000000  0.4879340000000 1.0
C      1  0.4938020000000  0.5451600000000  0.4248040000000 1.0
C      1  0.5240920000000  0.5383710000000  0.5252630000000 1.0
C      1  0.5114420000000  0.5428510000000  0.5572710000000 1.0
C      1  0.4711080000000  0.4648330000000  0.5493210000000 1.0
C      1  0.5408770000000  0.5716710000000  0.4746900000000 1.0
C      1  0.5414220000000  0.5440860000000  0.5662620000000 1.0
C      1  0.4758710000000  0.5264550000000  0.5266380000000 1.0
C      1  0.4278560000000  0.5002610000000  0.5488230000000 1.0
C      1  0.5223710000000  0.5463640000000  0.4305370000000 1.0
C      1  0.5426870000000  0.4806570000000  0.4577010000000 1.0
C      1  0.4668920000000  0.4855700000000  0.5699230000000 1.0
C      1  0.5518050000000  0.4955500000000  0.5228950000000 1.0
C      1  0.5316640000000  0.5082050000000  0.4521980000000 1.0
C      1  0.4714750000000  0.4132590000000  0.5291150000000 1.0
C      1  0.5015680000000  0.5253930000000  0.5116550000000 1.0
C      1  0.4891430000000  0.5201870000000  0.4107820000000 1.0
C      1  0.5724330000000  0.5381600000000  0.5359180000000 1.0
C      1  0.4574900000000  0.5672200000000  0.4912000000000 1.0
C      1  0.4821400000000  0.4639400000000  0.4951610000000 1.0
C      1  0.4632770000000  0.5031030000000  0.5163170000000 1.0
C      1  0.5603560000000  0.5207700000000  0.5720060000000 1.0
C      1  0.5292660000000  0.5189130000000  0.4250230000000 1.0
C      1  0.4622910000000  0.4819470000000  0.4198720000000 1.0
C      1  0.5068460000000  0.4966870000000  0.5201640000000 1.0
C      1  0.4943960000000  0.5829860000000  0.5269130000000 1.0
C      1  0.4315830000000  0.4869960000000  0.4579420000000 1.0
C      1  0.5139300000000  0.4366150000000  0.5414340000000 1.0
C      1  0.4888960000000  0.5259580000000  0.4829940000000 1.0
C      1  0.4454150000000  0.4302490000000  0.4948880000000 1.0
C      1  0.4448850000000  0.4700640000000  0.4389960000000 1.0
C      1  0.4590500000000  0.4284610000000  0.4691660000000 1.0
C      1  0.4778900000000  0.5568960000000  0.4705360000000 1.0
C      1  0.4927520000000  0.5819440000000  0.4798360000000 1.0
C      1  0.4852990000000  0.4650220000000  0.4161340000000 1.0
C      1  0.4618060000000  0.5121800000000  0.4896300000000 1.0
C      1  0.5513630000000  0.5238120000000  0.5201440000000 1.0
C      1  0.5002060000000  0.4343250000000  0.4949950000000 1.0
C      1  0.5007100000000  0.5055170000000  0.4659740000000 1.0
C      1  0.4713470000000  0.5490920000000  0.4427000000000 1.0
C      1  0.5403130000000  0.5533790000000  0.4526030000000 1.0
C      1  0.5709340000000  0.4671250000000  0.4989610000000 1.0
C      1  0.4182460000000  0.4837510000000  0.5066390000000 1.0
C      1  0.5425640000000  0.4434420000000  0.5359810000000 1.0
C      1  0.5312690000000  0.4632940000000  0.4338830000000 1.0
C      1  0.5563900000000  0.5595340000000  0.5464110000000 1.0
C      1  0.5209570000000  0.5868800000000  0.5157950000000 1.0
C      1  0.5897890000000  0.4911980000000  0.5450040000000 1.0
C      1  0.5261200000000  0.4360610000000  0.4417760000000 1.0
C      1  0.5830630000000  0.5195550000000  0.5534020000000 1.0
C      1  0.5556330000000  0.5619070000000  0.4964610000000 1.0
C      1  0.4454020000000  0.4538110000000  0.5387650000000 1.0
C      1  0.5255440000000  0.4716470000000  0.4814810000000 1.0
C      1  0.4368240000000  0.5460430000000  0.5289330000000 1.0
C      1  0.5119970000000  0.4754050000000  0.4161040000000 1.0
C      1  0.4160950000000  0.5116730000000  0.5056280000000 1.0
C      1  0.4646210000000  0.5299110000000  0.5667830000000 1.0
C      1  0.5645330000000  0.5345070000000  0.4965500000000 1.0
C      1  0.4920760000000  0.4957480000000  0.5782520000000 1.0
C      1  0.4896740000000  0.5638670000000  0.5471070000000 1.0
C      1  0.5762410000000  0.4750050000000  0.5634550000000 1.0
C      1  0.4549610000000  0.4430870000000  0.4444070000000 1.0
C      1  0.4962630000000  0.4236580000000  0.5222160000000 1.0
C      1  0.4219210000000  0.5222290000000  0.5314260000000 1.0
C      1  0.4980110000000  0.4789940000000  0.4750750000000 1.0
C      1  0.5410760000000  0.5677180000000  0.5222930000000 1.0
C      1  0.5786990000000  0.4840560000000  0.5198650000000 1.0
C      1  0.4341580000000  0.5160740000000  0.4576110000000 1.0
C      1  0.5096870000000  0.4729790000000  0.5749220000000 1.0
C      1  0.4874570000000  0.4225720000000  0.4708210000000 1.0
C      1  0.5694800000000  0.5148120000000  0.4768630000000 1.0
C      1  0.4266790000000  0.4750780000000  0.5334550000000 1.0
C      1  0.4636170000000  0.5099940000000  0.4182090000000 1.0
C      1  0.4523580000000  0.4570170000000  0.4894380000000 1.0
C      1  0.5291050000000  0.4845040000000  0.5106190000000 1.0
END
