TITL C-21775-2070-1 0.0114240473057414 125000 -37.1688395172837 0 0 6 (D(inf)h) n - 1
REM
REM in /rds/project/t2_vol4/rds-t2-cs072/BORA/CARBON/from-Arr/AIRSS/Generating-Clusters/GAP-ML-2020/Only-C1/SD-CG/HFTN-CG
REM
REM
REM
REM
REM
REM ./C.cell (11c1c37f851c82e70ff6c80c92926a4b)
REM AIRSS Version 0.9.1 bugfix July 2018 build 013d7b7c2542+ Fri, 06 Jul 2018 19:26:36 +0100
REM compiler GCC version 9.3.0
REM options -cpp -mtune=generic -march=x86-64 -g -O0
REM seed -1087208145 -156583734 28108354 1630430080 -1957021618 -1785747369 -762453428 -776486977 -1318407442 -143115032 2102827929 1008875204 257957752 -1153722117 -379756711 -1535262691 1373954624 -1609010458 -817011348 -1579872318 -1547849360 583434758 -1537109926 228258159 -1725358392 295120510 1116002806 760003848 2588333 -614915888 -1237161564 -1553359352 -1471586134
REM
CELL 1.54180   50.00000   50.00000   50.00000   90.00000   90.00000   90.00000
LATT -1
SFAC C  
C      1  0.5096010000000  0.4981540000000  0.5076870000000 1.0
C      1  0.4702920000000  0.5057130000000  0.4762150000000 1.0
C      1  0.4903990000000  0.5018460000000  0.4923130000000 1.0
C      1  0.4507110000000  0.5094780000000  0.4605390000000 1.0
C      1  0.5492890000000  0.4905220000000  0.5394610000000 1.0
C      1  0.5297080000000  0.4942870000000  0.5237850000000 1.0
END
