TITL C-21696-8284-7 0.171741529743563 125000 -496.764689193899 0 0 71 (C1) n - 1
REM
REM in /rds/project/t2_vol4/rds-t2-cs072/BORA/CARBON/from-Arr/AIRSS/Generating-Clusters/GAP-ML-2020/Only-C1/SD-CG/HFTN-CG
REM
REM
REM
REM
REM
REM ./C.cell (11c1c37f851c82e70ff6c80c92926a4b)
REM AIRSS Version 0.9.1 bugfix July 2018 build 013d7b7c2542+ Fri, 06 Jul 2018 19:26:36 +0100
REM compiler GCC version 9.3.0
REM options -cpp -mtune=generic -march=x86-64 -g -O0
REM seed 897089914 -1843976341 846671975 -918176939 881061602 204365633 -1153808430 1805764834 966665138 650860981 2066819173 -69724031 1811774740 -1028139508 143731536 1904941275 -490990107 1102027376 -86995925 403216515 -234895412 -500808172 1969839421 1972349235 -984162018 950362845 966213549 718106366 1984858432 1137326796 2015674395 160729371 2130737647
REM
CELL 1.54180   50.00000   50.00000   50.00000   90.00000   90.00000   90.00000
LATT -1
SFAC C  
C      1  0.5293690000000  0.5386080000000  0.4593100000000 1.0
C      1  0.4596600000000  0.4638250000000  0.4566430000000 1.0
C      1  0.4711200000000  0.5191620000000  0.4978750000000 1.0
C      1  0.5379840000000  0.5368160000000  0.5305960000000 1.0
C      1  0.5681590000000  0.4944730000000  0.5380450000000 1.0
C      1  0.5056280000000  0.5004150000000  0.4761210000000 1.0
C      1  0.5759590000000  0.4871690000000  0.4935230000000 1.0
C      1  0.4295920000000  0.4886140000000  0.4891620000000 1.0
C      1  0.4685970000000  0.5454310000000  0.4477370000000 1.0
C      1  0.4421420000000  0.5048310000000  0.4441510000000 1.0
C      1  0.5051160000000  0.4485670000000  0.4636120000000 1.0
C      1  0.4304690000000  0.5201160000000  0.5248370000000 1.0
C      1  0.5354260000000  0.5748550000000  0.4949450000000 1.0
C      1  0.4859380000000  0.4184190000000  0.5067500000000 1.0
C      1  0.4882110000000  0.5304820000000  0.4302200000000 1.0
C      1  0.4807020000000  0.4641240000000  0.5030290000000 1.0
C      1  0.5637160000000  0.4491390000000  0.5141100000000 1.0
C      1  0.4916790000000  0.5142720000000  0.5175860000000 1.0
C      1  0.5434570000000  0.4581440000000  0.5578690000000 1.0
C      1  0.5611420000000  0.5190990000000  0.5238870000000 1.0
C      1  0.4436400000000  0.5317190000000  0.4538530000000 1.0
C      1  0.4613670000000  0.4601460000000  0.5252840000000 1.0
C      1  0.5490680000000  0.4401420000000  0.5361890000000 1.0
C      1  0.5219540000000  0.5233700000000  0.4834240000000 1.0
C      1  0.4768010000000  0.5155530000000  0.4098690000000 1.0
C      1  0.4399600000000  0.5446540000000  0.5339610000000 1.0
C      1  0.4364810000000  0.5370890000000  0.4804320000000 1.0
C      1  0.4249040000000  0.5163360000000  0.4963960000000 1.0
C      1  0.4615790000000  0.5577980000000  0.5232870000000 1.0
C      1  0.5253830000000  0.4787420000000  0.5167710000000 1.0
C      1  0.5148710000000  0.4219270000000  0.5030540000000 1.0
C      1  0.4786660000000  0.5073230000000  0.4737730000000 1.0
C      1  0.5762560000000  0.4745390000000  0.5184560000000 1.0
C      1  0.4654370000000  0.4981980000000  0.4273960000000 1.0
C      1  0.5196570000000  0.4937350000000  0.4484300000000 1.0
C      1  0.5605460000000  0.4729170000000  0.4739850000000 1.0
C      1  0.5147430000000  0.5229880000000  0.4397040000000 1.0
C      1  0.5136890000000  0.5331540000000  0.5092020000000 1.0
C      1  0.4759340000000  0.5609200000000  0.4706480000000 1.0
C      1  0.5515970000000  0.4855200000000  0.5586730000000 1.0
C      1  0.5516810000000  0.4484420000000  0.4866280000000 1.0
C      1  0.5274320000000  0.5663920000000  0.4685290000000 1.0
C      1  0.4849080000000  0.5175210000000  0.5473990000000 1.0
C      1  0.5467630000000  0.4929050000000  0.4592210000000 1.0
C      1  0.4611360000000  0.5498600000000  0.4937780000000 1.0
C      1  0.5673690000000  0.5137630000000  0.4960430000000 1.0
C      1  0.5496450000000  0.5181190000000  0.4734640000000 1.0
C      1  0.5028830000000  0.4866790000000  0.5052140000000 1.0
C      1  0.4763010000000  0.4477260000000  0.4763930000000 1.0
C      1  0.4766940000000  0.4736650000000  0.4367670000000 1.0
C      1  0.4879350000000  0.5617840000000  0.5381910000000 1.0
C      1  0.4806900000000  0.4932300000000  0.5615210000000 1.0
C      1  0.5086950000000  0.5773850000000  0.5269080000000 1.0
C      1  0.5363210000000  0.5659860000000  0.5226290000000 1.0
C      1  0.5152540000000  0.4572130000000  0.5627560000000 1.0
C      1  0.5242100000000  0.4278920000000  0.5290700000000 1.0
C      1  0.5043500000000  0.4685130000000  0.4428470000000 1.0
C      1  0.4701170000000  0.4186280000000  0.4849720000000 1.0
C      1  0.4787260000000  0.4354680000000  0.5299650000000 1.0
C      1  0.4366730000000  0.4751450000000  0.5134840000000 1.0
C      1  0.4996140000000  0.5761200000000  0.4744000000000 1.0
C      1  0.4371550000000  0.4939360000000  0.5352350000000 1.0
C      1  0.4386990000000  0.4829640000000  0.4624280000000 1.0
C      1  0.5027770000000  0.4379220000000  0.5452680000000 1.0
C      1  0.5232230000000  0.5286370000000  0.5555430000000 1.0
C      1  0.5059490000000  0.4834300000000  0.5688720000000 1.0
C      1  0.5253310000000  0.4375060000000  0.4809620000000 1.0
C      1  0.4973910000000  0.5411360000000  0.5558740000000 1.0
C      1  0.5079130000000  0.5862110000000  0.4996980000000 1.0
C      1  0.5282690000000  0.5020830000000  0.5652960000000 1.0
C      1  0.4592980000000  0.4804120000000  0.5478540000000 1.0
END
