TITL C-21821-6373-4 -0.218164292434637 125000 -617.837211840556 0 0 89 (C1) n - 1
REM
REM in /rds/project/t2_vol4/rds-t2-cs072/BORA/CARBON/from-Arr/AIRSS/Generating-Clusters/GAP-ML-2020/Only-C1/SD-CG/HFTN-CG
REM
REM
REM
REM
REM
REM ./C.cell (11c1c37f851c82e70ff6c80c92926a4b)
REM AIRSS Version 0.9.1 bugfix July 2018 build 013d7b7c2542+ Fri, 06 Jul 2018 19:26:36 +0100
REM compiler GCC version 9.3.0
REM options -cpp -mtune=generic -march=x86-64 -g -O0
REM seed 510340681 2011179957 1682078083 -1515053174 -1968857416 44338903 1104014709 1052375772 934299810 -845467869 297548667 -1014978494 2130810324 -1280253607 1535536594 644710916 1523587639 -614626351 1948680984 1270804992 -819876680 -1683882284 1656392066 -1287594287 -1636917944 -1845604274 -309566926 305979891 -149090683 112674307 -347199563 2130756979 -1078764334
REM
CELL 1.54180   50.00000   50.00000   50.00000   90.00000   90.00000   90.00000
LATT -1
SFAC C  
C      1  0.5575220000000  0.4597950000000  0.5361120000000 1.0
C      1  0.4660750000000  0.4984600000000  0.5691880000000 1.0
C      1  0.5263750000000  0.5068790000000  0.5805180000000 1.0
C      1  0.5236050000000  0.4344610000000  0.4671100000000 1.0
C      1  0.5437030000000  0.5073350000000  0.4990440000000 1.0
C      1  0.4608580000000  0.4545030000000  0.5590240000000 1.0
C      1  0.4942450000000  0.4215570000000  0.5015250000000 1.0
C      1  0.5610160000000  0.4661690000000  0.4840360000000 1.0
C      1  0.5239860000000  0.5448860000000  0.5680420000000 1.0
C      1  0.4242400000000  0.5077450000000  0.4593550000000 1.0
C      1  0.5804900000000  0.5381760000000  0.5100070000000 1.0
C      1  0.4535120000000  0.5642020000000  0.5024440000000 1.0
C      1  0.4673840000000  0.5149440000000  0.5108810000000 1.0
C      1  0.5265520000000  0.5801700000000  0.5027030000000 1.0
C      1  0.4635620000000  0.4373590000000  0.5364200000000 1.0
C      1  0.4440460000000  0.4414690000000  0.4456500000000 1.0
C      1  0.4290590000000  0.5167440000000  0.5406720000000 1.0
C      1  0.5571540000000  0.5545800000000  0.5186900000000 1.0
C      1  0.4380640000000  0.4677140000000  0.5468030000000 1.0
C      1  0.4902370000000  0.5253390000000  0.4258470000000 1.0
C      1  0.4853490000000  0.5623910000000  0.5394680000000 1.0
C      1  0.4792140000000  0.5698790000000  0.5129830000000 1.0
C      1  0.4345910000000  0.4534160000000  0.4955930000000 1.0
C      1  0.5146860000000  0.5302010000000  0.5245370000000 1.0
C      1  0.4348920000000  0.5496200000000  0.5173050000000 1.0
C      1  0.5145340000000  0.4704780000000  0.4917760000000 1.0
C      1  0.5843850000000  0.4910530000000  0.5101470000000 1.0
C      1  0.4988740000000  0.5601080000000  0.4595740000000 1.0
C      1  0.4640680000000  0.4404200000000  0.4266850000000 1.0
C      1  0.4897750000000  0.4308610000000  0.5287170000000 1.0
C      1  0.5450160000000  0.5262140000000  0.5228210000000 1.0
C      1  0.4399000000000  0.4500140000000  0.5230620000000 1.0
C      1  0.4869310000000  0.4804150000000  0.4877500000000 1.0
C      1  0.5049330000000  0.5264610000000  0.5804970000000 1.0
C      1  0.4789540000000  0.4273660000000  0.4779640000000 1.0
C      1  0.5055120000000  0.5023260000000  0.5256240000000 1.0
C      1  0.5293000000000  0.5243840000000  0.4808370000000 1.0
C      1  0.4535970000000  0.4427240000000  0.4743030000000 1.0
C      1  0.4598270000000  0.5503110000000  0.4786730000000 1.0
C      1  0.4710410000000  0.5576150000000  0.4539130000000 1.0
C      1  0.4192400000000  0.4765430000000  0.4865670000000 1.0
C      1  0.5780930000000  0.5138530000000  0.4650230000000 1.0
C      1  0.4217910000000  0.4573580000000  0.4417980000000 1.0
C      1  0.4657790000000  0.5357660000000  0.4361490000000 1.0
C      1  0.5376830000000  0.4389130000000  0.5348310000000 1.0
C      1  0.5141870000000  0.5565350000000  0.5435770000000 1.0
C      1  0.4197420000000  0.4781510000000  0.4575360000000 1.0
C      1  0.4807700000000  0.4920800000000  0.5158000000000 1.0
C      1  0.5501700000000  0.4949800000000  0.4320510000000 1.0
C      1  0.5038290000000  0.4738550000000  0.4282790000000 1.0
C      1  0.4792330000000  0.5273500000000  0.4879460000000 1.0
C      1  0.5397770000000  0.4236970000000  0.5122970000000 1.0
C      1  0.4781440000000  0.5245150000000  0.5714500000000 1.0
C      1  0.5341420000000  0.5717420000000  0.5290800000000 1.0
C      1  0.5215920000000  0.4214560000000  0.4929760000000 1.0
C      1  0.5252610000000  0.4880640000000  0.5102770000000 1.0
C      1  0.5109810000000  0.4421100000000  0.5456920000000 1.0
C      1  0.4675440000000  0.5458550000000  0.5546980000000 1.0
C      1  0.5835130000000  0.5140160000000  0.5269420000000 1.0
C      1  0.4676740000000  0.4937410000000  0.4477790000000 1.0
C      1  0.5151200000000  0.5113290000000  0.4586160000000 1.0
C      1  0.5451830000000  0.5251880000000  0.5680160000000 1.0
C      1  0.5132450000000  0.5380090000000  0.4421170000000 1.0
C      1  0.4897390000000  0.4477870000000  0.4329720000000 1.0
C      1  0.5070140000000  0.4631230000000  0.5651300000000 1.0
C      1  0.5496360000000  0.5678580000000  0.4926180000000 1.0
C      1  0.5519890000000  0.4822050000000  0.5526440000000 1.0
C      1  0.5691330000000  0.4949370000000  0.4845900000000 1.0
C      1  0.5072350000000  0.5374180000000  0.4966000000000 1.0
C      1  0.4222990000000  0.5230270000000  0.5121760000000 1.0
C      1  0.4418540000000  0.5424080000000  0.5441410000000 1.0
C      1  0.4868350000000  0.4961240000000  0.4246220000000 1.0
C      1  0.4797410000000  0.4721530000000  0.5699380000000 1.0
C      1  0.5340860000000  0.4621730000000  0.4702410000000 1.0
C      1  0.5442080000000  0.5414820000000  0.4437910000000 1.0
C      1  0.4658740000000  0.4707960000000  0.4694970000000 1.0
C      1  0.4182780000000  0.5064470000000  0.4888480000000 1.0
C      1  0.4475350000000  0.5143720000000  0.4445240000000 1.0
C      1  0.5294290000000  0.4807470000000  0.5701860000000 1.0
C      1  0.5025070000000  0.5676310000000  0.4921540000000 1.0
C      1  0.4408470000000  0.4952310000000  0.5546260000000 1.0
C      1  0.4978260000000  0.4328710000000  0.4565930000000 1.0
C      1  0.5591770000000  0.5110660000000  0.5462080000000 1.0
C      1  0.5772160000000  0.5365670000000  0.4813850000000 1.0
C      1  0.4878840000000  0.5057430000000  0.4693280000000 1.0
C      1  0.5507520000000  0.5477770000000  0.4723740000000 1.0
C      1  0.5713720000000  0.4652080000000  0.5117430000000 1.0
C      1  0.5271250000000  0.4835100000000  0.4453980000000 1.0
C      1  0.5606530000000  0.5174940000000  0.4418750000000 1.0
END
