TITL C-21840-6301-5 -28.7309660606278 125000 -371.259052201892 0 0 55 (C1) n - 1
REM
REM in /rds/project/t2_vol4/rds-t2-cs072/BORA/CARBON/from-Arr/AIRSS/Generating-Clusters/GAP-ML-2020/Only-C1/SD-CG/HFTN-CG
REM
REM
REM
REM
REM
REM ./C.cell (11c1c37f851c82e70ff6c80c92926a4b)
REM AIRSS Version 0.9.1 bugfix July 2018 build 013d7b7c2542+ Fri, 06 Jul 2018 19:26:36 +0100
REM compiler GCC version 9.3.0
REM options -cpp -mtune=generic -march=x86-64 -g -O0
REM seed 865575949 765948093 -233187465 -1584100413 667723514 -379411437 -1656135016 -727133293 -742107347 -672544305 1315937058 428286518 1869166750 494429389 383056942 -1177709080 -685693267 1549756752 -1418939737 1534506253 -1246971880 216320572 -1896236900 962154220 -933943770 -2073842147 104361256 253572925 -313325348 -616150612 -671944672 -1773661124 -1658026410
REM
CELL 1.54180   50.00000   50.00000   50.00000   90.00000   90.00000   90.00000
LATT -1
SFAC C  
C      1  0.4714160000000  0.4873900000000  0.4720030000000 1.0
C      1  0.4808590000000  0.4647920000000  0.4893880000000 1.0
C      1  0.4961030000000  0.5800950000000  0.4826770000000 1.0
C      1  0.4867400000000  0.5457560000000  0.5411850000000 1.0
C      1  0.5649910000000  0.5094950000000  0.5199020000000 1.0
C      1  0.4272200000000  0.5034110000000  0.4959030000000 1.0
C      1  0.4378020000000  0.4876810000000  0.5185390000000 1.0
C      1  0.4795360000000  0.5074470000000  0.4324330000000 1.0
C      1  0.5072400000000  0.4814940000000  0.4953320000000 1.0
C      1  0.4668370000000  0.4821170000000  0.4429910000000 1.0
C      1  0.5080560000000  0.4294850000000  0.4948200000000 1.0
C      1  0.4931850000000  0.5227860000000  0.5539930000000 1.0
C      1  0.5226640000000  0.5212930000000  0.5546100000000 1.0
C      1  0.5199600000000  0.4903970000000  0.4500330000000 1.0
C      1  0.5352800000000  0.4388800000000  0.4979720000000 1.0
C      1  0.4494170000000  0.5558670000000  0.4793640000000 1.0
C      1  0.4376450000000  0.5449100000000  0.5037090000000 1.0
C      1  0.5223470000000  0.5693180000000  0.4800350000000 1.0
C      1  0.4875960000000  0.5400850000000  0.4994900000000 1.0
C      1  0.5318630000000  0.4723460000000  0.5634970000000 1.0
C      1  0.5509240000000  0.5341730000000  0.5164240000000 1.0
C      1  0.5132950000000  0.4370650000000  0.5398060000000 1.0
C      1  0.5154830000000  0.5767360000000  0.5056670000000 1.0
C      1  0.4570860000000  0.5068020000000  0.5295080000000 1.0
C      1  0.5391280000000  0.5000160000000  0.5611560000000 1.0
C      1  0.4543160000000  0.5089750000000  0.4823660000000 1.0
C      1  0.5298580000000  0.5392860000000  0.5336590000000 1.0
C      1  0.5288730000000  0.4628140000000  0.4551300000000 1.0
C      1  0.4924090000000  0.4417220000000  0.4744630000000 1.0
C      1  0.4744780000000  0.5653130000000  0.4884660000000 1.0
C      1  0.5013880000000  0.5286850000000  0.4724000000000 1.0
C      1  0.5277790000000  0.5424120000000  0.4726290000000 1.0
C      1  0.4897710000000  0.4760520000000  0.5400520000000 1.0
C      1  0.4770040000000  0.5004450000000  0.5481630000000 1.0
C      1  0.4450630000000  0.4618960000000  0.5198070000000 1.0
C      1  0.5025850000000  0.4995890000000  0.4731680000000 1.0
C      1  0.5139390000000  0.4874110000000  0.5204410000000 1.0
C      1  0.5038250000000  0.4494630000000  0.4500670000000 1.0
C      1  0.4167150000000  0.5279550000000  0.5026350000000 1.0
C      1  0.5480820000000  0.5306060000000  0.4873660000000 1.0
C      1  0.5075070000000  0.4596320000000  0.5574650000000 1.0
C      1  0.5625810000000  0.5044650000000  0.4903170000000 1.0
C      1  0.5460420000000  0.4571170000000  0.4769640000000 1.0
C      1  0.4735960000000  0.4562430000000  0.5181660000000 1.0
C      1  0.5070000000000  0.5525660000000  0.5213270000000 1.0
C      1  0.5023170000000  0.4906260000000  0.4271720000000 1.0
C      1  0.4629190000000  0.5253020000000  0.5081340000000 1.0
C      1  0.4558150000000  0.5327440000000  0.4635060000000 1.0
C      1  0.5511820000000  0.4644530000000  0.5426100000000 1.0
C      1  0.4885500000000  0.4656580000000  0.4324940000000 1.0
C      1  0.4805330000000  0.5297140000000  0.4493350000000 1.0
C      1  0.5600960000000  0.4926640000000  0.5410420000000 1.0
C      1  0.5615480000000  0.4787890000000  0.4839200000000 1.0
C      1  0.4934170000000  0.4331720000000  0.5197230000000 1.0
C      1  0.5381430000000  0.4443940000000  0.5265770000000 1.0
END
