TITL C-21914-1685-5 166.997564809408 125000 -594.40755078572 0 0 87 (C1) n - 1
REM
REM in /rds/project/t2_vol4/rds-t2-cs072/BORA/CARBON/from-Arr/AIRSS/Generating-Clusters/GAP-ML-2020/Only-C1/SD-CG/HFTN-CG
REM
REM
REM
REM
REM
REM ./C.cell (11c1c37f851c82e70ff6c80c92926a4b)
REM AIRSS Version 0.9.1 bugfix July 2018 build 013d7b7c2542+ Fri, 06 Jul 2018 19:26:36 +0100
REM compiler GCC version 9.3.0
REM options -cpp -mtune=generic -march=x86-64 -g -O0
REM seed -1252498191 -344879687 127005399 -21066197 1018172858 -911487544 140576026 875059946 -1269266980 -1411752887 -172644947 1834696079 -886990376 -1545348620 1036054551 1146059202 -1267043899 1498221019 774780131 -1315342777 -693390876 774540133 -937407886 57663452 1767780437 -89682675 -1861369632 1253751926 -1544713783 1731277778 1914794040 1751785317 852549572
REM
CELL 1.54180   50.00000   50.00000   50.00000   90.00000   90.00000   90.00000
LATT -1
SFAC C  
C      1  0.5464400000000  0.5496340000000  0.4486130000000 1.0
C      1  0.5016500000000  0.5193300000000  0.4255580000000 1.0
C      1  0.4282090000000  0.4641650000000  0.4586500000000 1.0
C      1  0.4957720000000  0.4297780000000  0.4642420000000 1.0
C      1  0.5364530000000  0.4315840000000  0.4845720000000 1.0
C      1  0.4304930000000  0.5266410000000  0.5360750000000 1.0
C      1  0.5455620000000  0.5269000000000  0.4685030000000 1.0
C      1  0.4880120000000  0.4252060000000  0.5338350000000 1.0
C      1  0.5027220000000  0.4814950000000  0.4874790000000 1.0
C      1  0.4996420000000  0.4740840000000  0.4404930000000 1.0
C      1  0.4993350000000  0.5643650000000  0.4330880000000 1.0
C      1  0.4311450000000  0.4839770000000  0.4807900000000 1.0
C      1  0.4875490000000  0.4426800000000  0.5568770000000 1.0
C      1  0.5004390000000  0.4707750000000  0.5139060000000 1.0
C      1  0.5614660000000  0.5589160000000  0.5020590000000 1.0
C      1  0.5630800000000  0.4546990000000  0.5196750000000 1.0
C      1  0.5275930000000  0.5675650000000  0.5335580000000 1.0
C      1  0.5363850000000  0.5732690000000  0.4625410000000 1.0
C      1  0.5118840000000  0.4498090000000  0.4500930000000 1.0
C      1  0.4295140000000  0.5276340000000  0.4933530000000 1.0
C      1  0.5107210000000  0.4207110000000  0.5163890000000 1.0
C      1  0.5164610000000  0.5440620000000  0.4218300000000 1.0
C      1  0.4970460000000  0.5879310000000  0.5001120000000 1.0
C      1  0.4379800000000  0.4683300000000  0.5543000000000 1.0
C      1  0.4455420000000  0.4502010000000  0.5111220000000 1.0
C      1  0.5530500000000  0.4741460000000  0.4635460000000 1.0
C      1  0.4715420000000  0.5252300000000  0.5105100000000 1.0
C      1  0.4439510000000  0.4927340000000  0.5686600000000 1.0
C      1  0.4745780000000  0.5525540000000  0.4398910000000 1.0
C      1  0.4683760000000  0.4818930000000  0.5795160000000 1.0
C      1  0.4723460000000  0.5544060000000  0.4681340000000 1.0
C      1  0.5169810000000  0.4822050000000  0.5697840000000 1.0
C      1  0.5056100000000  0.5521890000000  0.5449910000000 1.0
C      1  0.4434780000000  0.5193630000000  0.5597250000000 1.0
C      1  0.4166860000000  0.4850130000000  0.5090390000000 1.0
C      1  0.5232460000000  0.4585180000000  0.5298940000000 1.0
C      1  0.5331960000000  0.4836140000000  0.4852630000000 1.0
C      1  0.4983450000000  0.5266490000000  0.5289380000000 1.0
C      1  0.5643060000000  0.5297100000000  0.5387950000000 1.0
C      1  0.4890770000000  0.5770850000000  0.4763880000000 1.0
C      1  0.5125170000000  0.4997040000000  0.4449620000000 1.0
C      1  0.4900940000000  0.5497630000000  0.5680890000000 1.0
C      1  0.5118680000000  0.4566920000000  0.5579140000000 1.0
C      1  0.5204330000000  0.5196810000000  0.5104080000000 1.0
C      1  0.4690240000000  0.4381170000000  0.4708070000000 1.0
C      1  0.5945600000000  0.5230560000000  0.4758820000000 1.0
C      1  0.5794260000000  0.4754040000000  0.4768810000000 1.0
C      1  0.4635100000000  0.4278470000000  0.5207620000000 1.0
C      1  0.4265560000000  0.4646290000000  0.5282850000000 1.0
C      1  0.4865230000000  0.5264810000000  0.5839180000000 1.0
C      1  0.5223140000000  0.5827280000000  0.5093520000000 1.0
C      1  0.5435600000000  0.4903090000000  0.5597750000000 1.0
C      1  0.5459880000000  0.4775340000000  0.5322000000000 1.0
C      1  0.4641080000000  0.5362320000000  0.5707340000000 1.0
C      1  0.5197130000000  0.5290960000000  0.4842500000000 1.0
C      1  0.4731860000000  0.5256680000000  0.4806900000000 1.0
C      1  0.5638690000000  0.5164650000000  0.5131580000000 1.0
C      1  0.4760580000000  0.4690470000000  0.4751220000000 1.0
C      1  0.4737310000000  0.5258430000000  0.4310550000000 1.0
C      1  0.5583510000000  0.5134380000000  0.5597530000000 1.0
C      1  0.4821210000000  0.4835420000000  0.5304260000000 1.0
C      1  0.4711970000000  0.4802230000000  0.4470720000000 1.0
C      1  0.4458450000000  0.4421790000000  0.4532210000000 1.0
C      1  0.4562780000000  0.4284550000000  0.4952120000000 1.0
C      1  0.4170200000000  0.5124820000000  0.5143060000000 1.0
C      1  0.4921900000000  0.4982040000000  0.5767920000000 1.0
C      1  0.4633510000000  0.4959120000000  0.5144330000000 1.0
C      1  0.5545190000000  0.5559900000000  0.5297340000000 1.0
C      1  0.5413110000000  0.4987280000000  0.5105920000000 1.0
C      1  0.5095510000000  0.5784390000000  0.4555070000000 1.0
C      1  0.5437220000000  0.5470800000000  0.4215330000000 1.0
C      1  0.5378850000000  0.4367130000000  0.5147010000000 1.0
C      1  0.5801330000000  0.4594160000000  0.4997820000000 1.0
C      1  0.4936520000000  0.5029080000000  0.5463900000000 1.0
C      1  0.5376840000000  0.4494290000000  0.4617330000000 1.0
C      1  0.4591820000000  0.5074100000000  0.4467620000000 1.0
C      1  0.5970220000000  0.4977050000000  0.4724390000000 1.0
C      1  0.5679610000000  0.5330660000000  0.4889500000000 1.0
C      1  0.4452450000000  0.5390640000000  0.5145920000000 1.0
C      1  0.5107370000000  0.4197570000000  0.4869390000000 1.0
C      1  0.4550710000000  0.4754790000000  0.4944990000000 1.0
C      1  0.4993750000000  0.5107910000000  0.4755570000000 1.0
C      1  0.4639940000000  0.4566390000000  0.5661240000000 1.0
C      1  0.4439670000000  0.5126080000000  0.4722740000000 1.0
C      1  0.4469410000000  0.4653020000000  0.4383640000000 1.0
C      1  0.5396610000000  0.4995710000000  0.4576820000000 1.0
C      1  0.5431310000000  0.5761270000000  0.4896000000000 1.0
END
