TITL C-21920-2460-6 -2416.15503255363 125000 -626.982113441704 0 0 90 (C1) n - 1
REM
REM in /rds/project/t2_vol4/rds-t2-cs072/BORA/CARBON/from-Arr/AIRSS/Generating-Clusters/GAP-ML-2020/Only-C1/SD-CG/HFTN-CG
REM
REM
REM
REM
REM
REM ./C.cell (11c1c37f851c82e70ff6c80c92926a4b)
REM AIRSS Version 0.9.1 bugfix July 2018 build 013d7b7c2542+ Fri, 06 Jul 2018 19:26:36 +0100
REM compiler GCC version 9.3.0
REM options -cpp -mtune=generic -march=x86-64 -g -O0
REM seed 1379197230 -2002290536 -373367463 -978445007 -262829919 1455808949 -1262104016 65380302 1729331180 831940968 -1172492205 -1517231715 1796412295 1238379700 -1718584353 114785358 1794386857 387126120 1302305559 1529178906 -2067644109 -544929658 -802576811 386515731 -1763802650 -1966091290 420037066 1997155818 1805487276 -1560911259 1051423145 1176451976 -1460984053
REM
CELL 1.54180   50.00000   50.00000   50.00000   90.00000   90.00000   90.00000
LATT -1
SFAC C  
C      1  0.5142840000000  0.5421820000000  0.4483090000000 1.0
C      1  0.4931330000000  0.5756490000000  0.4798910000000 1.0
C      1  0.4615550000000  0.4238120000000  0.5113670000000 1.0
C      1  0.4629500000000  0.4928670000000  0.5435110000000 1.0
C      1  0.5458860000000  0.4534330000000  0.5406780000000 1.0
C      1  0.5100480000000  0.4783160000000  0.5284570000000 1.0
C      1  0.4985980000000  0.5370660000000  0.5084490000000 1.0
C      1  0.4436200000000  0.4688630000000  0.4943700000000 1.0
C      1  0.5397680000000  0.5624350000000  0.4853460000000 1.0
C      1  0.5629250000000  0.4719000000000  0.4631780000000 1.0
C      1  0.5006230000000  0.5257770000000  0.5373980000000 1.0
C      1  0.5192140000000  0.4674250000000  0.5017640000000 1.0
C      1  0.5246470000000  0.4932530000000  0.4870840000000 1.0
C      1  0.5425060000000  0.4528210000000  0.4687550000000 1.0
C      1  0.4510410000000  0.4234160000000  0.4832310000000 1.0
C      1  0.4940240000000  0.5272330000000  0.6028030000000 1.0
C      1  0.5749240000000  0.4899420000000  0.4825320000000 1.0
C      1  0.5617480000000  0.5567160000000  0.5045360000000 1.0
C      1  0.4794310000000  0.5020900000000  0.4747090000000 1.0
C      1  0.4989850000000  0.4531040000000  0.4348310000000 1.0
C      1  0.4853210000000  0.5030490000000  0.6034790000000 1.0
C      1  0.4891150000000  0.4819000000000  0.5847670000000 1.0
C      1  0.5753010000000  0.5187320000000  0.4750300000000 1.0
C      1  0.5081430000000  0.4949350000000  0.4629350000000 1.0
C      1  0.5533490000000  0.5531680000000  0.5320870000000 1.0
C      1  0.4550270000000  0.4988920000000  0.4573270000000 1.0
C      1  0.4891140000000  0.5516990000000  0.4613200000000 1.0
C      1  0.5783560000000  0.5346190000000  0.4978710000000 1.0
C      1  0.4574270000000  0.4887030000000  0.4312720000000 1.0
C      1  0.4894710000000  0.4176440000000  0.5092870000000 1.0
C      1  0.4594660000000  0.5435360000000  0.5432050000000 1.0
C      1  0.5366380000000  0.4987800000000  0.5767840000000 1.0
C      1  0.4996100000000  0.4382120000000  0.5501760000000 1.0
C      1  0.5169560000000  0.5139090000000  0.4385580000000 1.0
C      1  0.4750790000000  0.4774170000000  0.4934080000000 1.0
C      1  0.5235330000000  0.5368630000000  0.4971220000000 1.0
C      1  0.4793710000000  0.5318360000000  0.4857140000000 1.0
C      1  0.5586830000000  0.5290260000000  0.4542120000000 1.0
C      1  0.4720040000000  0.4471550000000  0.5526060000000 1.0
C      1  0.4718260000000  0.4240720000000  0.4635970000000 1.0
C      1  0.5369810000000  0.4335100000000  0.5210140000000 1.0
C      1  0.4294310000000  0.4615040000000  0.4571980000000 1.0
C      1  0.4855010000000  0.5813850000000  0.5254860000000 1.0
C      1  0.5642580000000  0.5267510000000  0.5403770000000 1.0
C      1  0.4746360000000  0.5053880000000  0.4149390000000 1.0
C      1  0.4579290000000  0.5513280000000  0.4983040000000 1.0
C      1  0.5328580000000  0.5233890000000  0.5874880000000 1.0
C      1  0.4530190000000  0.4426840000000  0.5313450000000 1.0
C      1  0.5806590000000  0.5169220000000  0.5198580000000 1.0
C      1  0.4821340000000  0.4815780000000  0.5216910000000 1.0
C      1  0.4732190000000  0.5759470000000  0.5002370000000 1.0
C      1  0.4342780000000  0.4446500000000  0.4792120000000 1.0
C      1  0.5113660000000  0.5403020000000  0.5828640000000 1.0
C      1  0.4735390000000  0.5194730000000  0.5482540000000 1.0
C      1  0.5167070000000  0.4777210000000  0.5768560000000 1.0
C      1  0.5606880000000  0.4775480000000  0.5350180000000 1.0
C      1  0.5554570000000  0.4832890000000  0.4370030000000 1.0
C      1  0.4695050000000  0.5320270000000  0.4199630000000 1.0
C      1  0.5195800000000  0.4596790000000  0.5545380000000 1.0
C      1  0.4440550000000  0.5395450000000  0.5201730000000 1.0
C      1  0.4699360000000  0.4727590000000  0.5648940000000 1.0
C      1  0.4195440000000  0.5335570000000  0.4655510000000 1.0
C      1  0.4291630000000  0.5151720000000  0.5139700000000 1.0
C      1  0.4366370000000  0.4917130000000  0.5297890000000 1.0
C      1  0.4201720000000  0.5122470000000  0.4853880000000 1.0
C      1  0.5144210000000  0.5825320000000  0.5209330000000 1.0
C      1  0.5096360000000  0.4241230000000  0.5280250000000 1.0
C      1  0.5182340000000  0.5810370000000  0.4919270000000 1.0
C      1  0.5284860000000  0.5660940000000  0.5397900000000 1.0
C      1  0.5227700000000  0.5050020000000  0.5322900000000 1.0
C      1  0.4649540000000  0.5476450000000  0.4417770000000 1.0
C      1  0.4505020000000  0.4611790000000  0.4375400000000 1.0
C      1  0.5398420000000  0.5501240000000  0.4587350000000 1.0
C      1  0.4377450000000  0.5417530000000  0.4493800000000 1.0
C      1  0.5466090000000  0.5101080000000  0.4378280000000 1.0
C      1  0.5122910000000  0.4622810000000  0.4588350000000 1.0
C      1  0.4798740000000  0.5636610000000  0.5464120000000 1.0
C      1  0.4973430000000  0.4567670000000  0.4843650000000 1.0
C      1  0.4933670000000  0.4268710000000  0.4822600000000 1.0
C      1  0.5755380000000  0.4894790000000  0.5122300000000 1.0
C      1  0.4315530000000  0.4877210000000  0.4735490000000 1.0
C      1  0.5332650000000  0.5126200000000  0.5045740000000 1.0
C      1  0.5402920000000  0.4467070000000  0.4963730000000 1.0
C      1  0.5121930000000  0.4714310000000  0.4164910000000 1.0
C      1  0.5064240000000  0.5514370000000  0.5550810000000 1.0
C      1  0.5026180000000  0.4993520000000  0.4164290000000 1.0
C      1  0.4358460000000  0.4646310000000  0.5216210000000 1.0
C      1  0.5490840000000  0.5020250000000  0.5498440000000 1.0
C      1  0.4728340000000  0.4425230000000  0.4408630000000 1.0
C      1  0.5393250000000  0.4703810000000  0.4194810000000 1.0
END
