TITL C-21073-1280-5 -24.6310710547218 125000 -569.504595028344 0 0 82 (C1) n - 1
REM
REM in /rds/project/t2_vol4/rds-t2-cs072/BORA/CARBON/from-Arr/AIRSS/Generating-Clusters/GAP-ML-2020/Only-C1/SD-CG/HFTN-CG
REM
REM
REM
REM
REM
REM ./C.cell (11c1c37f851c82e70ff6c80c92926a4b)
REM AIRSS Version 0.9.1 bugfix July 2018 build 013d7b7c2542+ Fri, 06 Jul 2018 19:26:36 +0100
REM compiler GCC version 9.3.0
REM options -cpp -mtune=generic -march=x86-64 -g -O0
REM seed -1981683847 1283045849 -558860730 -1176557581 1840331818 1122773188 2090047234 1570324020 -1940129240 -1280750836 1717799726 767047478 -373209573 -800057603 -1787951158 -1117723036 -35102066 963066984 -955748106 -116176855 1724278545 -1023084855 -1017662658 -1531731815 -2090383492 936593900 -2097555122 -1606567483 -520591634 1543745879 -1102058092 -1415621795 -1403987956
REM
CELL 1.54180   50.00000   50.00000   50.00000   90.00000   90.00000   90.00000
LATT -1
SFAC C  
C      1  0.4499420000000  0.5385610000000  0.4407020000000 1.0
C      1  0.4978220000000  0.4570460000000  0.4816550000000 1.0
C      1  0.4740930000000  0.5536190000000  0.4456140000000 1.0
C      1  0.5357380000000  0.4959120000000  0.5870370000000 1.0
C      1  0.5860150000000  0.4756000000000  0.4775400000000 1.0
C      1  0.5056430000000  0.4600620000000  0.5668950000000 1.0
C      1  0.4640150000000  0.4957140000000  0.5681450000000 1.0
C      1  0.5085220000000  0.4289750000000  0.5320590000000 1.0
C      1  0.4445220000000  0.4791070000000  0.4575620000000 1.0
C      1  0.4748120000000  0.4380970000000  0.4740460000000 1.0
C      1  0.4576720000000  0.4682170000000  0.5612850000000 1.0
C      1  0.4386730000000  0.4628740000000  0.5407840000000 1.0
C      1  0.5108140000000  0.4856250000000  0.5787310000000 1.0
C      1  0.5666360000000  0.4740020000000  0.5126320000000 1.0
C      1  0.5224720000000  0.5594780000000  0.4537460000000 1.0
C      1  0.4863460000000  0.5703410000000  0.4905910000000 1.0
C      1  0.4640980000000  0.5584990000000  0.5332570000000 1.0
C      1  0.4430080000000  0.5433130000000  0.4691560000000 1.0
C      1  0.4794980000000  0.4497690000000  0.5623960000000 1.0
C      1  0.5029550000000  0.5246360000000  0.4703810000000 1.0
C      1  0.4791250000000  0.4200110000000  0.4963950000000 1.0
C      1  0.5639710000000  0.5307260000000  0.5328000000000 1.0
C      1  0.5001110000000  0.5419560000000  0.4442210000000 1.0
C      1  0.4637250000000  0.4243630000000  0.5205700000000 1.0
C      1  0.5128930000000  0.5661140000000  0.5299870000000 1.0
C      1  0.5598890000000  0.5039170000000  0.5162010000000 1.0
C      1  0.5396930000000  0.4661450000000  0.5011790000000 1.0
C      1  0.4338160000000  0.4520700000000  0.4941490000000 1.0
C      1  0.4681620000000  0.5398530000000  0.5543970000000 1.0
C      1  0.4811500000000  0.4647160000000  0.5071320000000 1.0
C      1  0.4312120000000  0.5223790000000  0.4844180000000 1.0
C      1  0.5069420000000  0.4827970000000  0.4706740000000 1.0
C      1  0.5036640000000  0.5185600000000  0.4257340000000 1.0
C      1  0.5175130000000  0.5466940000000  0.5519630000000 1.0
C      1  0.4499210000000  0.4528160000000  0.4709380000000 1.0
C      1  0.5587730000000  0.5090840000000  0.4869660000000 1.0
C      1  0.4429370000000  0.5530860000000  0.5171420000000 1.0
C      1  0.5443490000000  0.5342850000000  0.5558350000000 1.0
C      1  0.4006350000000  0.4809630000000  0.5147380000000 1.0
C      1  0.4942790000000  0.5328310000000  0.5635850000000 1.0
C      1  0.4852240000000  0.4957950000000  0.4285470000000 1.0
C      1  0.4312930000000  0.5291460000000  0.5123620000000 1.0
C      1  0.5145450000000  0.5667080000000  0.4825860000000 1.0
C      1  0.5376920000000  0.4847740000000  0.4775310000000 1.0
C      1  0.4926970000000  0.4829370000000  0.5224410000000 1.0
C      1  0.5295430000000  0.4788430000000  0.4308070000000 1.0
C      1  0.5230050000000  0.4744740000000  0.5239960000000 1.0
C      1  0.5328320000000  0.5012340000000  0.5255990000000 1.0
C      1  0.4430780000000  0.5176490000000  0.4250600000000 1.0
C      1  0.4906100000000  0.5053760000000  0.5734790000000 1.0
C      1  0.4889770000000  0.5076100000000  0.5101320000000 1.0
C      1  0.5144330000000  0.5206200000000  0.5149400000000 1.0
C      1  0.4184630000000  0.4763170000000  0.4949940000000 1.0
C      1  0.5744630000000  0.4740920000000  0.4505840000000 1.0
C      1  0.5390420000000  0.4410890000000  0.4637080000000 1.0
C      1  0.5527220000000  0.5208380000000  0.4379260000000 1.0
C      1  0.5304660000000  0.5071900000000  0.4260980000000 1.0
C      1  0.4504280000000  0.5172280000000  0.5556480000000 1.0
C      1  0.5033480000000  0.4775720000000  0.4400950000000 1.0
C      1  0.5204670000000  0.5356640000000  0.4900890000000 1.0
C      1  0.5566110000000  0.5568170000000  0.5043610000000 1.0
C      1  0.5743830000000  0.5033260000000  0.4452170000000 1.0
C      1  0.5080460000000  0.4222780000000  0.5045360000000 1.0
C      1  0.5468930000000  0.4661800000000  0.4520710000000 1.0
C      1  0.5837530000000  0.5036560000000  0.4719200000000 1.0
C      1  0.4894350000000  0.5035920000000  0.4815480000000 1.0
C      1  0.5768710000000  0.5537960000000  0.5232090000000 1.0
C      1  0.5459970000000  0.5167530000000  0.5770310000000 1.0
C      1  0.5306520000000  0.5698990000000  0.5070500000000 1.0
C      1  0.4569070000000  0.4939220000000  0.4345870000000 1.0
C      1  0.4227970000000  0.4851150000000  0.5319850000000 1.0
C      1  0.4866540000000  0.5689810000000  0.5193650000000 1.0
C      1  0.4660630000000  0.5611140000000  0.4731790000000 1.0
C      1  0.4815990000000  0.4287630000000  0.5425760000000 1.0
C      1  0.5497920000000  0.5368580000000  0.4827700000000 1.0
C      1  0.5458010000000  0.5434960000000  0.4543930000000 1.0
C      1  0.4290050000000  0.4949250000000  0.4758210000000 1.0
C      1  0.5236970000000  0.4409690000000  0.4873270000000 1.0
C      1  0.4321020000000  0.5118820000000  0.5351360000000 1.0
C      1  0.5215470000000  0.4516600000000  0.5441510000000 1.0
C      1  0.4415970000000  0.4425220000000  0.5199630000000 1.0
C      1  0.5904160000000  0.4655280000000  0.5019430000000 1.0
END
