TITL C-21693-8250-7 5.84586471457512 125000 -237.506059652294 0 0 36 (C1) n - 1
REM
REM in /rds/project/t2_vol4/rds-t2-cs072/BORA/CARBON/from-Arr/AIRSS/Generating-Clusters/GAP-ML-2020/Only-C1/SD-CG/HFTN-CG
REM
REM
REM
REM
REM
REM ./C.cell (11c1c37f851c82e70ff6c80c92926a4b)
REM AIRSS Version 0.9.1 bugfix July 2018 build 013d7b7c2542+ Fri, 06 Jul 2018 19:26:36 +0100
REM compiler GCC version 9.3.0
REM options -cpp -mtune=generic -march=x86-64 -g -O0
REM seed 732538004 890991738 521346491 -189264685 -113261823 -567244458 61768992 -1905940099 -2075475033 1923220334 1831437338 -235268704 -1722368959 974918535 787367073 -1894050589 476239227 -1768564118 -38621347 1236775097 956674506 1447810909 1721716385 -440093465 403059603 -936500039 481024421 858195975 51245360 679763255 456440467 536323560 -1207480302
REM
CELL 1.54180   50.00000   50.00000   50.00000   90.00000   90.00000   90.00000
LATT -1
SFAC C  
C      1  0.4764360000000  0.4899750000000  0.4949250000000 1.0
C      1  0.4527920000000  0.4557750000000  0.5126210000000 1.0
C      1  0.5031490000000  0.4688930000000  0.4431900000000 1.0
C      1  0.5401750000000  0.5286550000000  0.4889240000000 1.0
C      1  0.5584230000000  0.5304770000000  0.5107580000000 1.0
C      1  0.5516470000000  0.5083490000000  0.5299250000000 1.0
C      1  0.4973010000000  0.4632610000000  0.5306280000000 1.0
C      1  0.5246340000000  0.4623170000000  0.5232180000000 1.0
C      1  0.4764270000000  0.5472340000000  0.5106390000000 1.0
C      1  0.5147040000000  0.4904010000000  0.4338660000000 1.0
C      1  0.5467960000000  0.5514080000000  0.5288370000000 1.0
C      1  0.4943460000000  0.5351940000000  0.4901480000000 1.0
C      1  0.5255300000000  0.5037650000000  0.4832530000000 1.0
C      1  0.5377360000000  0.5300950000000  0.5460620000000 1.0
C      1  0.4816200000000  0.4838520000000  0.5419870000000 1.0
C      1  0.5114880000000  0.5060410000000  0.4578760000000 1.0
C      1  0.4993920000000  0.5078940000000  0.5021360000000 1.0
C      1  0.4618960000000  0.4888020000000  0.4690730000000 1.0
C      1  0.5203230000000  0.5490600000000  0.4917510000000 1.0
C      1  0.4656040000000  0.5119840000000  0.4558280000000 1.0
C      1  0.4891430000000  0.5241830000000  0.4624130000000 1.0
C      1  0.5232130000000  0.5638000000000  0.5164830000000 1.0
C      1  0.5394030000000  0.4792310000000  0.4910740000000 1.0
C      1  0.5089790000000  0.5299730000000  0.5431660000000 1.0
C      1  0.4864560000000  0.4547810000000  0.4604370000000 1.0
C      1  0.4982460000000  0.4478560000000  0.4856160000000 1.0
C      1  0.4991420000000  0.5543250000000  0.5300480000000 1.0
C      1  0.4573750000000  0.5287210000000  0.5150180000000 1.0
C      1  0.4444890000000  0.4530660000000  0.4873980000000 1.0
C      1  0.5441040000000  0.4838730000000  0.5205120000000 1.0
C      1  0.4545670000000  0.5021540000000  0.5127800000000 1.0
C      1  0.4814780000000  0.4607200000000  0.5063970000000 1.0
C      1  0.4976970000000  0.5065870000000  0.5324240000000 1.0
C      1  0.4534630000000  0.4809410000000  0.5319960000000 1.0
C      1  0.5244600000000  0.4550850000000  0.4944680000000 1.0
C      1  0.4573630000000  0.4612720000000  0.4641250000000 1.0
END
