TITL C-21823-6243-6 0.26345148960979 125000 -997.945825733916 0 0 141 (C1) n - 1
REM
REM in /rds/project/t2_vol4/rds-t2-cs072/BORA/CARBON/from-Arr/AIRSS/Generating-Clusters/GAP-ML-2020/Only-C1/SD-CG/HFTN-CG
REM
REM
REM
REM
REM
REM ./C.cell (11c1c37f851c82e70ff6c80c92926a4b)
REM AIRSS Version 0.9.1 bugfix July 2018 build 013d7b7c2542+ Fri, 06 Jul 2018 19:26:36 +0100
REM compiler GCC version 9.3.0
REM options -cpp -mtune=generic -march=x86-64 -g -O0
REM seed 880415666 -1773066903 723883775 -217214566 -737743980 -876075584 388016424 -1101462234 613475807 1321846000 -1376453550 1784797743 -1349267009 -788806078 1168072628 2066930408 -636154051 -304395045 339318611 1910700331 489400139 1222432802 -1287783415 961575396 -1672108081 112708564 1079238063 -1786509804 -251486354 -1716525674 -1085590472 1447953907 -618090296
REM
CELL 1.54180   50.00000   50.00000   50.00000   90.00000   90.00000   90.00000
LATT -1
SFAC C  
C      1  0.4720360000000  0.5583210000000  0.4295170000000 1.0
C      1  0.5963130000000  0.4928460000000  0.4949280000000 1.0
C      1  0.4126130000000  0.5609030000000  0.5136410000000 1.0
C      1  0.5571770000000  0.5537530000000  0.4542250000000 1.0
C      1  0.4967110000000  0.5120080000000  0.4544960000000 1.0
C      1  0.5109040000000  0.4064670000000  0.5472700000000 1.0
C      1  0.4802590000000  0.4791760000000  0.5952370000000 1.0
C      1  0.4801730000000  0.4907440000000  0.5493870000000 1.0
C      1  0.4726750000000  0.4344340000000  0.5410080000000 1.0
C      1  0.5643140000000  0.4334640000000  0.5255260000000 1.0
C      1  0.4813230000000  0.5563280000000  0.5526010000000 1.0
C      1  0.4603880000000  0.5010440000000  0.5904390000000 1.0
C      1  0.4124450000000  0.5198860000000  0.4575080000000 1.0
C      1  0.4837210000000  0.4305830000000  0.4220110000000 1.0
C      1  0.5098110000000  0.4941410000000  0.5541700000000 1.0
C      1  0.4495420000000  0.4606950000000  0.4377050000000 1.0
C      1  0.5113510000000  0.4379560000000  0.4179710000000 1.0
C      1  0.4371200000000  0.4730650000000  0.5306070000000 1.0
C      1  0.5933030000000  0.5399560000000  0.4849520000000 1.0
C      1  0.5197040000000  0.4330340000000  0.5918280000000 1.0
C      1  0.4647250000000  0.5816900000000  0.4437770000000 1.0
C      1  0.4720730000000  0.5274470000000  0.4566630000000 1.0
C      1  0.5102670000000  0.4632720000000  0.4037540000000 1.0
C      1  0.5379890000000  0.5765590000000  0.5170650000000 1.0
C      1  0.5241870000000  0.5972280000000  0.5000700000000 1.0
C      1  0.4674040000000  0.4545410000000  0.5846630000000 1.0
C      1  0.4296740000000  0.4479010000000  0.4877120000000 1.0
C      1  0.4083650000000  0.5528090000000  0.4870870000000 1.0
C      1  0.4545660000000  0.5927700000000  0.5158410000000 1.0
C      1  0.5304490000000  0.5504880000000  0.5600710000000 1.0
C      1  0.4418490000000  0.4607730000000  0.5738060000000 1.0
C      1  0.5567960000000  0.5205430000000  0.5024520000000 1.0
C      1  0.5121980000000  0.5790450000000  0.4425770000000 1.0
C      1  0.5171230000000  0.5383060000000  0.4858490000000 1.0
C      1  0.4341340000000  0.5758560000000  0.5277200000000 1.0
C      1  0.4966190000000  0.4822210000000  0.4478490000000 1.0
C      1  0.5198150000000  0.5356470000000  0.5318780000000 1.0
C      1  0.5357840000000  0.4156580000000  0.4954690000000 1.0
C      1  0.4407890000000  0.4274500000000  0.5050070000000 1.0
C      1  0.5390820000000  0.5788140000000  0.4525040000000 1.0
C      1  0.5062290000000  0.4186550000000  0.4600810000000 1.0
C      1  0.4429470000000  0.5843420000000  0.4630660000000 1.0
C      1  0.5636020000000  0.4631690000000  0.4383100000000 1.0
C      1  0.5831710000000  0.4834380000000  0.4459030000000 1.0
C      1  0.4903320000000  0.4722470000000  0.5147910000000 1.0
C      1  0.5077090000000  0.5093620000000  0.4834290000000 1.0
C      1  0.5363090000000  0.5441360000000  0.5083180000000 1.0
C      1  0.4875710000000  0.5453240000000  0.5795910000000 1.0
C      1  0.5567420000000  0.5380190000000  0.5675340000000 1.0
C      1  0.5610130000000  0.5788340000000  0.4961840000000 1.0
C      1  0.5341360000000  0.3947220000000  0.5391220000000 1.0
C      1  0.4605740000000  0.4115970000000  0.4901160000000 1.0
C      1  0.5757140000000  0.5310010000000  0.4408330000000 1.0
C      1  0.5814800000000  0.5382550000000  0.5555150000000 1.0
C      1  0.4922010000000  0.5503830000000  0.4948700000000 1.0
C      1  0.4670040000000  0.4809960000000  0.4805630000000 1.0
C      1  0.4520990000000  0.5230320000000  0.4959560000000 1.0
C      1  0.4264090000000  0.5417700000000  0.4449930000000 1.0
C      1  0.4712080000000  0.5179520000000  0.5172010000000 1.0
C      1  0.5421970000000  0.5923680000000  0.4779600000000 1.0
C      1  0.5354710000000  0.5339610000000  0.4595430000000 1.0
C      1  0.4382160000000  0.4884930000000  0.5752610000000 1.0
C      1  0.4907040000000  0.5412140000000  0.5244330000000 1.0
C      1  0.4246390000000  0.4768940000000  0.5023460000000 1.0
C      1  0.4887490000000  0.5941680000000  0.4532700000000 1.0
C      1  0.5493470000000  0.4091570000000  0.5211900000000 1.0
C      1  0.4032640000000  0.5244970000000  0.4842130000000 1.0
C      1  0.5970390000000  0.4968210000000  0.4669000000000 1.0
C      1  0.5261370000000  0.4867180000000  0.4077260000000 1.0
C      1  0.5011450000000  0.5560610000000  0.4303860000000 1.0
C      1  0.5305130000000  0.4886160000000  0.4808590000000 1.0
C      1  0.4826150000000  0.4715550000000  0.4024330000000 1.0
C      1  0.5744800000000  0.5605790000000  0.4793080000000 1.0
C      1  0.5401250000000  0.4748570000000  0.5058670000000 1.0
C      1  0.4707050000000  0.4675340000000  0.5350370000000 1.0
C      1  0.5858590000000  0.4949380000000  0.5505570000000 1.0
C      1  0.4230750000000  0.5633800000000  0.4633240000000 1.0
C      1  0.4564080000000  0.5081710000000  0.4190750000000 1.0
C      1  0.4112860000000  0.5131510000000  0.5316570000000 1.0
C      1  0.5149180000000  0.4356380000000  0.5080800000000 1.0
C      1  0.5949390000000  0.5250140000000  0.4610720000000 1.0
C      1  0.5881870000000  0.4703560000000  0.5367080000000 1.0
C      1  0.5107820000000  0.4020660000000  0.4832070000000 1.0
C      1  0.4328270000000  0.4978750000000  0.5464830000000 1.0
C      1  0.5546000000000  0.4331230000000  0.4795090000000 1.0
C      1  0.5040280000000  0.4194710000000  0.5732880000000 1.0
C      1  0.5183660000000  0.4616270000000  0.5213040000000 1.0
C      1  0.5033320000000  0.4458710000000  0.4804080000000 1.0
C      1  0.4861510000000  0.4035590000000  0.5003500000000 1.0
C      1  0.4787180000000  0.4566460000000  0.4917540000000 1.0
C      1  0.4396680000000  0.4418100000000  0.4603810000000 1.0
C      1  0.4793400000000  0.4333340000000  0.5694240000000 1.0
C      1  0.5698200000000  0.4510880000000  0.5473830000000 1.0
C      1  0.4814700000000  0.6053480000000  0.4791190000000 1.0
C      1  0.4113100000000  0.5410570000000  0.5346550000000 1.0
C      1  0.4809390000000  0.4997370000000  0.4067740000000 1.0
C      1  0.5464360000000  0.4993840000000  0.5202150000000 1.0
C      1  0.5236880000000  0.5080500000000  0.5331380000000 1.0
C      1  0.4977540000000  0.6061400000000  0.5028260000000 1.0
C      1  0.5513450000000  0.4841590000000  0.4206070000000 1.0
C      1  0.5134890000000  0.5369540000000  0.5805440000000 1.0
C      1  0.4686270000000  0.5406020000000  0.4811710000000 1.0
C      1  0.4643730000000  0.5291610000000  0.5850580000000 1.0
C      1  0.4803690000000  0.4172140000000  0.4464030000000 1.0
C      1  0.5268760000000  0.4285170000000  0.4401950000000 1.0
C      1  0.4065160000000  0.5037230000000  0.5052380000000 1.0
C      1  0.5091790000000  0.5093920000000  0.4113800000000 1.0
C      1  0.4572190000000  0.4192560000000  0.4628530000000 1.0
C      1  0.5152490000000  0.4692400000000  0.4651830000000 1.0
C      1  0.4324620000000  0.5550520000000  0.5488830000000 1.0
C      1  0.4712680000000  0.4731980000000  0.4541970000000 1.0
C      1  0.5893280000000  0.4693010000000  0.5082640000000 1.0
C      1  0.5205110000000  0.5077560000000  0.5816160000000 1.0
C      1  0.5882550000000  0.5199970000000  0.5070930000000 1.0
C      1  0.5493120000000  0.5105540000000  0.4744110000000 1.0
C      1  0.5275270000000  0.4594110000000  0.5882930000000 1.0
C      1  0.5098080000000  0.4824950000000  0.5953420000000 1.0
C      1  0.4598160000000  0.5121980000000  0.5430770000000 1.0
C      1  0.5145240000000  0.5291500000000  0.4354780000000 1.0
C      1  0.4664640000000  0.4516900000000  0.4149170000000 1.0
C      1  0.5495880000000  0.4661450000000  0.5648850000000 1.0
C      1  0.4551930000000  0.5391320000000  0.5584690000000 1.0
C      1  0.5232960000000  0.4686270000000  0.5497950000000 1.0
C      1  0.4416720000000  0.4884780000000  0.4345290000000 1.0
C      1  0.4440350000000  0.4299620000000  0.5329240000000 1.0
C      1  0.5497700000000  0.5122840000000  0.5786680000000 1.0
C      1  0.4957230000000  0.5818660000000  0.5456800000000 1.0
C      1  0.5518420000000  0.4390540000000  0.4511630000000 1.0
C      1  0.5644580000000  0.4513860000000  0.5012430000000 1.0
C      1  0.5644430000000  0.4908410000000  0.5692070000000 1.0
C      1  0.4856620000000  0.4979650000000  0.4996100000000 1.0
C      1  0.5699320000000  0.5046770000000  0.4303660000000 1.0
C      1  0.4406200000000  0.4934940000000  0.4839920000000 1.0
C      1  0.4541980000000  0.5346960000000  0.4328740000000 1.0
C      1  0.4940490000000  0.4184010000000  0.5250350000000 1.0
C      1  0.4822310000000  0.5973840000000  0.5254040000000 1.0
C      1  0.5241080000000  0.5760810000000  0.5456150000000 1.0
C      1  0.5910630000000  0.5204220000000  0.5375640000000 1.0
C      1  0.4318680000000  0.4501940000000  0.5486180000000 1.0
C      1  0.4272870000000  0.4967620000000  0.4571580000000 1.0
C      1  0.4549730000000  0.5977560000000  0.4863590000000 1.0
END
