TITL C-21066-1321-1 -208.967742221287 125000 -1085.17285564151 0 0 156 (C1) n - 1
REM
REM in /rds/project/t2_vol4/rds-t2-cs072/BORA/CARBON/from-Arr/AIRSS/Generating-Clusters/GAP-ML-2020/Only-C1/SD-CG/HFTN-CG
REM
REM
REM
REM
REM
REM ./C.cell (11c1c37f851c82e70ff6c80c92926a4b)
REM AIRSS Version 0.9.1 bugfix July 2018 build 013d7b7c2542+ Fri, 06 Jul 2018 19:26:36 +0100
REM compiler GCC version 9.3.0
REM options -cpp -mtune=generic -march=x86-64 -g -O0
REM seed 266782079 440681889 -143943564 1489272304 -567485939 -2112947123 -692419034 1966346446 -595019910 1361238042 1393572808 1301236858 -1290551631 1088399713 48086874 381457992 317772350 1077900795 163648659 -1924037415 888585662 -1677851630 218361365 1570582173 -724772717 1255512384 224391648 -1974570692 -311995735 1513051004 -1346243803 -68925286 1807754589
REM
CELL 1.54180   50.00000   50.00000   50.00000   90.00000   90.00000   90.00000
LATT -1
SFAC C  
C      1  0.6037130000000  0.5089450000000  0.5214140000000 1.0
C      1  0.5236530000000  0.4118630000000  0.5694710000000 1.0
C      1  0.4122880000000  0.5081310000000  0.4834940000000 1.0
C      1  0.5350810000000  0.5953860000000  0.5098320000000 1.0
C      1  0.4966140000000  0.4481450000000  0.5905040000000 1.0
C      1  0.4942980000000  0.4855980000000  0.3864050000000 1.0
C      1  0.4405970000000  0.4711340000000  0.5410210000000 1.0
C      1  0.5423290000000  0.5057350000000  0.5819040000000 1.0
C      1  0.4414910000000  0.4813380000000  0.4241800000000 1.0
C      1  0.5557110000000  0.5175180000000  0.4682070000000 1.0
C      1  0.4728600000000  0.5930490000000  0.4850630000000 1.0
C      1  0.5920090000000  0.4703360000000  0.4972490000000 1.0
C      1  0.4538000000000  0.5252620000000  0.4664710000000 1.0
C      1  0.5824580000000  0.5355940000000  0.5560650000000 1.0
C      1  0.4625310000000  0.4656640000000  0.4734010000000 1.0
C      1  0.4592560000000  0.5057790000000  0.4204710000000 1.0
C      1  0.4626460000000  0.4053100000000  0.4734420000000 1.0
C      1  0.5929610000000  0.4912620000000  0.5404560000000 1.0
C      1  0.5640970000000  0.5352420000000  0.4289010000000 1.0
C      1  0.4977460000000  0.4415050000000  0.4375040000000 1.0
C      1  0.4457980000000  0.5326650000000  0.4221810000000 1.0
C      1  0.5061190000000  0.5688910000000  0.5736790000000 1.0
C      1  0.5328640000000  0.4599170000000  0.5715920000000 1.0
C      1  0.5169920000000  0.6004590000000  0.5347190000000 1.0
C      1  0.5984370000000  0.5361440000000  0.5309040000000 1.0
C      1  0.4508820000000  0.5708870000000  0.5238730000000 1.0
C      1  0.4384650000000  0.4200770000000  0.4667230000000 1.0
C      1  0.4978540000000  0.4750140000000  0.5346730000000 1.0
C      1  0.5465770000000  0.5444660000000  0.4706420000000 1.0
C      1  0.4633980000000  0.5536330000000  0.4287470000000 1.0
C      1  0.4826130000000  0.4481090000000  0.5314220000000 1.0
C      1  0.5421290000000  0.5349530000000  0.5854700000000 1.0
C      1  0.5186390000000  0.4845980000000  0.4392820000000 1.0
C      1  0.4829680000000  0.4237540000000  0.5489230000000 1.0
C      1  0.5779510000000  0.4687350000000  0.5272960000000 1.0
C      1  0.4563870000000  0.4549650000000  0.5211580000000 1.0
C      1  0.5568940000000  0.5109350000000  0.4129330000000 1.0
C      1  0.5711620000000  0.4206610000000  0.5110320000000 1.0
C      1  0.4000810000000  0.4609650000000  0.4706130000000 1.0
C      1  0.4478550000000  0.4343970000000  0.5766570000000 1.0
C      1  0.5058650000000  0.5229850000000  0.4007780000000 1.0
C      1  0.5270080000000  0.5239450000000  0.5394310000000 1.0
C      1  0.4933090000000  0.5282070000000  0.5945460000000 1.0
C      1  0.4174080000000  0.4820460000000  0.4392120000000 1.0
C      1  0.4222560000000  0.5597830000000  0.4548570000000 1.0
C      1  0.5953930000000  0.5190160000000  0.4735280000000 1.0
C      1  0.4123430000000  0.4539230000000  0.4464720000000 1.0
C      1  0.4521540000000  0.4994930000000  0.5380560000000 1.0
C      1  0.5742880000000  0.4946650000000  0.4301500000000 1.0
C      1  0.4517240000000  0.5038490000000  0.5904570000000 1.0
C      1  0.5198880000000  0.3974750000000  0.5165260000000 1.0
C      1  0.4982020000000  0.4793520000000  0.5028660000000 1.0
C      1  0.5092960000000  0.5005200000000  0.4820630000000 1.0
C      1  0.5605370000000  0.4704860000000  0.4340130000000 1.0
C      1  0.5003090000000  0.4370390000000  0.5087380000000 1.0
C      1  0.5522300000000  0.5772780000000  0.5622120000000 1.0
C      1  0.5342740000000  0.4215930000000  0.4609140000000 1.0
C      1  0.4318090000000  0.4851240000000  0.5846730000000 1.0
C      1  0.5443780000000  0.4658510000000  0.4107520000000 1.0
C      1  0.4258400000000  0.5682340000000  0.4825290000000 1.0
C      1  0.4156200000000  0.5356680000000  0.5215990000000 1.0
C      1  0.4530890000000  0.4122620000000  0.5406630000000 1.0
C      1  0.5787920000000  0.5762800000000  0.5037890000000 1.0
C      1  0.5611090000000  0.5504170000000  0.5702600000000 1.0
C      1  0.4043370000000  0.4893350000000  0.4646960000000 1.0
C      1  0.4966670000000  0.4075680000000  0.5002970000000 1.0
C      1  0.5778520000000  0.5078670000000  0.5581510000000 1.0
C      1  0.5706500000000  0.5643800000000  0.4764050000000 1.0
C      1  0.4101670000000  0.4751000000000  0.5709520000000 1.0
C      1  0.4408320000000  0.5118700000000  0.4872860000000 1.0
C      1  0.5460430000000  0.5003050000000  0.5077160000000 1.0
C      1  0.4546040000000  0.5647060000000  0.5531470000000 1.0
C      1  0.4958670000000  0.4910560000000  0.4563240000000 1.0
C      1  0.5199670000000  0.5954170000000  0.4595790000000 1.0
C      1  0.5339640000000  0.4474320000000  0.4771470000000 1.0
C      1  0.4472110000000  0.5719480000000  0.4438980000000 1.0
C      1  0.5168060000000  0.4598420000000  0.4205220000000 1.0
C      1  0.4524260000000  0.5782580000000  0.4718080000000 1.0
C      1  0.5154520000000  0.4128910000000  0.5427490000000 1.0
C      1  0.4882160000000  0.4613170000000  0.4622510000000 1.0
C      1  0.4720590000000  0.5525480000000  0.5094480000000 1.0
C      1  0.5399580000000  0.5269960000000  0.5149040000000 1.0
C      1  0.4956340000000  0.5682470000000  0.5189770000000 1.0
C      1  0.4827410000000  0.4994540000000  0.5848430000000 1.0
C      1  0.4380230000000  0.4111610000000  0.5627350000000 1.0
C      1  0.5060480000000  0.4553500000000  0.4867430000000 1.0
C      1  0.5416740000000  0.4718620000000  0.4600390000000 1.0
C      1  0.5259790000000  0.4645060000000  0.5420090000000 1.0
C      1  0.4765480000000  0.4331060000000  0.5765290000000 1.0
C      1  0.5157430000000  0.5451980000000  0.5887070000000 1.0
C      1  0.5759400000000  0.4410050000000  0.5290430000000 1.0
C      1  0.4504780000000  0.4530200000000  0.4239200000000 1.0
C      1  0.5400040000000  0.4957210000000  0.4798060000000 1.0
C      1  0.4384640000000  0.4607360000000  0.5695520000000 1.0
C      1  0.5214930000000  0.4358360000000  0.5826820000000 1.0
C      1  0.4653270000000  0.5516380000000  0.4797540000000 1.0
C      1  0.4801860000000  0.5076140000000  0.3997150000000 1.0
C      1  0.5004140000000  0.4771180000000  0.5951090000000 1.0
C      1  0.5488040000000  0.4819140000000  0.5317880000000 1.0
C      1  0.5434150000000  0.4905770000000  0.3951710000000 1.0
C      1  0.4260980000000  0.4270270000000  0.4921160000000 1.0
C      1  0.5593550000000  0.5884340000000  0.4633050000000 1.0
C      1  0.6005500000000  0.4985240000000  0.4942950000000 1.0
C      1  0.5174150000000  0.5714770000000  0.5006860000000 1.0
C      1  0.4093120000000  0.4746480000000  0.5413760000000 1.0
C      1  0.4771230000000  0.5660310000000  0.5720480000000 1.0
C      1  0.4591660000000  0.5033360000000  0.5088060000000 1.0
C      1  0.5782010000000  0.5161210000000  0.4494420000000 1.0
C      1  0.4304920000000  0.5246380000000  0.5432280000000 1.0
C      1  0.5243310000000  0.5848700000000  0.5585200000000 1.0
C      1  0.5388420000000  0.5806890000000  0.4432550000000 1.0
C      1  0.5493250000000  0.5032910000000  0.5541440000000 1.0
C      1  0.5397390000000  0.5515800000000  0.4379270000000 1.0
C      1  0.4912720000000  0.4043460000000  0.4703140000000 1.0
C      1  0.3975890000000  0.4632320000000  0.5170520000000 1.0
C      1  0.4998250000000  0.5807700000000  0.4763950000000 1.0
C      1  0.4480140000000  0.5317640000000  0.5869480000000 1.0
C      1  0.5406360000000  0.6038550000000  0.4790920000000 1.0
C      1  0.5281910000000  0.5442920000000  0.4945140000000 1.0
C      1  0.5789160000000  0.4236160000000  0.4827230000000 1.0
C      1  0.5032220000000  0.5292030000000  0.4881490000000 1.0
C      1  0.4668940000000  0.4067990000000  0.5013550000000 1.0
C      1  0.4889560000000  0.5407080000000  0.4403970000000 1.0
C      1  0.4058410000000  0.4472860000000  0.4949780000000 1.0
C      1  0.5290060000000  0.5095050000000  0.4269380000000 1.0
C      1  0.5282680000000  0.4825500000000  0.5887870000000 1.0
C      1  0.4953940000000  0.4613820000000  0.4002970000000 1.0
C      1  0.5244420000000  0.4384690000000  0.5269420000000 1.0
C      1  0.5539490000000  0.4072550000000  0.4744020000000 1.0
C      1  0.3947000000000  0.4903520000000  0.5211810000000 1.0
C      1  0.4982170000000  0.5190140000000  0.5377390000000 1.0
C      1  0.5151550000000  0.5368610000000  0.4260890000000 1.0
C      1  0.4386020000000  0.5431200000000  0.5625990000000 1.0
C      1  0.4662530000000  0.4755680000000  0.4996200000000 1.0
C      1  0.5189030000000  0.5004870000000  0.3859730000000 1.0
C      1  0.4829820000000  0.5253930000000  0.5122310000000 1.0
C      1  0.4669130000000  0.5956360000000  0.5130910000000 1.0
C      1  0.4901630000000  0.5953690000000  0.5280560000000 1.0
C      1  0.4716850000000  0.5456040000000  0.5916130000000 1.0
C      1  0.4749910000000  0.5125030000000  0.4471390000000 1.0
C      1  0.5628090000000  0.5922990000000  0.5199990000000 1.0
C      1  0.4830760000000  0.4978200000000  0.5504650000000 1.0
C      1  0.4772040000000  0.4461040000000  0.4157920000000 1.0
C      1  0.4322130000000  0.5344390000000  0.4470140000000 1.0
C      1  0.5912800000000  0.4475230000000  0.4808450000000 1.0
C      1  0.5967800000000  0.5546760000000  0.5093700000000 1.0
C      1  0.4919820000000  0.5508080000000  0.4682160000000 1.0
C      1  0.4008900000000  0.5144900000000  0.5083130000000 1.0
C      1  0.5685590000000  0.5937380000000  0.5470790000000 1.0
C      1  0.4472720000000  0.4247400000000  0.5135850000000 1.0
C      1  0.4256350000000  0.5603320000000  0.5098880000000 1.0
C      1  0.4340000000000  0.4372510000000  0.4428430000000 1.0
C      1  0.5447080000000  0.4055160000000  0.5025100000000 1.0
C      1  0.5444840000000  0.4370500000000  0.5056230000000 1.0
C      1  0.5080690000000  0.4165060000000  0.4510040000000 1.0
C      1  0.5947920000000  0.5456900000000  0.4822360000000 1.0
END
