TITL C-216127-3349-4 0.00348579752943556 125000 -181.324626179234 0 0 29 (C1) n - 1
REM
REM in /rds/project/t2_vol4/rds-t2-cs072/BORA/CARBON/from-Arr/AIRSS/Generating-Clusters/GAP-ML-2020/Only-C1/SD-CG/HFTN-CG
REM
REM
REM
REM
REM
REM ./C.cell (11c1c37f851c82e70ff6c80c92926a4b)
REM AIRSS Version 0.9.1 bugfix July 2018 build 013d7b7c2542+ Fri, 06 Jul 2018 19:26:36 +0100
REM compiler GCC version 9.3.0
REM options -cpp -mtune=generic -march=x86-64 -g -O0
REM seed -1098882909 1865374246 -922443519 -1927480103 -1899737372 570045733 -1794500727 737270432 841752098 885918915 -1532222188 -244126724 1675727199 772346037 -1833909088 -1483894115 1615387590 -825361540 -50761721 -534487701 390302121 1876819541 1728169669 962028091 1227676992 -724201347 302628837 1912479989 1128177180 1501527488 2017948914 821153495 -57861431
REM
CELL 1.54180   50.00000   50.00000   50.00000   90.00000   90.00000   90.00000
LATT -1
SFAC C  
C      1  0.4976090000000  0.4459310000000  0.5138990000000 1.0
C      1  0.4799690000000  0.5449280000000  0.5671860000000 1.0
C      1  0.5435050000000  0.4831410000000  0.4677180000000 1.0
C      1  0.5009640000000  0.4477080000000  0.4862940000000 1.0
C      1  0.5466250000000  0.5131410000000  0.4756290000000 1.0
C      1  0.5093540000000  0.4993560000000  0.5316420000000 1.0
C      1  0.5217190000000  0.4573350000000  0.5032760000000 1.0
C      1  0.5255130000000  0.4829310000000  0.4907870000000 1.0
C      1  0.4904000000000  0.5056390000000  0.5104710000000 1.0
C      1  0.4755740000000  0.5298220000000  0.4517360000000 1.0
C      1  0.5011150000000  0.5512420000000  0.5509710000000 1.0
C      1  0.5056500000000  0.5471090000000  0.4690910000000 1.0
C      1  0.5012090000000  0.4606400000000  0.4608820000000 1.0
C      1  0.5346560000000  0.5116770000000  0.5275990000000 1.0
C      1  0.4828230000000  0.5057750000000  0.4413400000000 1.0
C      1  0.5104840000000  0.5122970000000  0.4390940000000 1.0
C      1  0.4958320000000  0.4835120000000  0.5491290000000 1.0
C      1  0.4522890000000  0.5104360000000  0.5404580000000 1.0
C      1  0.4670580000000  0.4905560000000  0.5519130000000 1.0
C      1  0.4885540000000  0.4864780000000  0.4614230000000 1.0
C      1  0.4690530000000  0.5206650000000  0.5205640000000 1.0
C      1  0.4781090000000  0.5371640000000  0.5408970000000 1.0
C      1  0.5446270000000  0.5078040000000  0.5038920000000 1.0
C      1  0.4599730000000  0.4640140000000  0.5445590000000 1.0
C      1  0.5190540000000  0.5219190000000  0.4669940000000 1.0
C      1  0.5011300000000  0.5005020000000  0.4838090000000 1.0
C      1  0.4816220000000  0.5541080000000  0.4586640000000 1.0
C      1  0.4863270000000  0.4578410000000  0.5366810000000 1.0
C      1  0.5292030000000  0.4663290000000  0.4534020000000 1.0
END
