TITL C-2114533-4398-23 71.7541750693471 125000 -139.811071878315 0 0 22 (C1) n - 1
REM
REM in /nfs/bkarasulu/CARBON/AIRSS/Generating-Clusters/GAP-ML-2020/Only-C1/SD-CG/HFTN-CG
REM
REM
REM
REM
REM
REM ./C.cell (11c1c37f851c82e70ff6c80c92926a4b)
REM
REM compiler GCC version 9.2.1 20190827 (Red Hat 9.2.1-1)
REM options -cpp -mtune=generic -march=x86-64 -g -O0 -fpre-include=/usr/include/finclude/math-vector-fortran.h
REM seed 87034608 -768941501 -1329886360 1191252879 -1684530972 1841306795 723670841 -104134356 1613073149 5652409 -2077807915 440811769 -154838455 656182508 1156366919 1228447946 -228528918 865003727 1838892927 2081478416 602113156 1150833094 -685206931 -77913023 919141310 219409819 -715143340 -1845074187 -554385475 -727779957 -807945565 -1407406256 1191448893
REM
CELL 1.54180   50.00000   50.00000   50.00000   90.00000   90.00000   90.00000
LATT -1
SFAC C  
C      1  0.4492190000000  0.4579720000000  0.5173260000000 1.0
C      1  0.5325650000000  0.4853490000000  0.4917940000000 1.0
C      1  0.5209100000000  0.4877390000000  0.4628770000000 1.0
C      1  0.5674460000000  0.4810620000000  0.5264410000000 1.0
C      1  0.5159730000000  0.5092680000000  0.4976020000000 1.0
C      1  0.5594310000000  0.4912480000000  0.5030450000000 1.0
C      1  0.4487350000000  0.5141970000000  0.5136800000000 1.0
C      1  0.5068110000000  0.5110940000000  0.4678880000000 1.0
C      1  0.4915290000000  0.4593930000000  0.4893060000000 1.0
C      1  0.4670260000000  0.4977460000000  0.4974970000000 1.0
C      1  0.4877350000000  0.5139810000000  0.4890550000000 1.0
C      1  0.5270080000000  0.5348030000000  0.5050610000000 1.0
C      1  0.4576480000000  0.5409570000000  0.5121770000000 1.0
C      1  0.4683370000000  0.4695700000000  0.4998480000000 1.0
C      1  0.4317290000000  0.5001600000000  0.5302410000000 1.0
C      1  0.5188240000000  0.4591810000000  0.4932060000000 1.0
C      1  0.4339330000000  0.4740440000000  0.5304510000000 1.0
C      1  0.4826470000000  0.5411180000000  0.5013630000000 1.0
C      1  0.5674860000000  0.5168570000000  0.4960400000000 1.0
C      1  0.5056280000000  0.4637780000000  0.4656020000000 1.0
C      1  0.5058630000000  0.5526590000000  0.5098330000000 1.0
C      1  0.5535150000000  0.5378250000000  0.4996670000000 1.0
END
