TITL C-2109083-1716-26 37.6367955686952 125000 -996.62761633096 0 0 141 (C1) n - 1
REM
REM in /nfs/bkarasulu/CARBON/AIRSS/Generating-Clusters/GAP-ML-2020/Only-C1/SD-CG/HFTN-CG
REM
REM
REM
REM
REM
REM ./C.cell (11c1c37f851c82e70ff6c80c92926a4b)
REM
REM compiler GCC version 9.2.1 20190827 (Red Hat 9.2.1-1)
REM options -cpp -mtune=generic -march=x86-64 -g -O0 -fpre-include=/usr/include/finclude/math-vector-fortran.h
REM seed 1262331086 1177253803 1231931265 -482270799 -356591900 1999443725 56459591 1557801478 298192631 -1829537972 1672078951 -861754885 1835563844 501697797 -1941502511 -66731254 34225534 402209061 1598748213 944696716 517767504 1343620849 -1089815059 -1052016464 1373874934 1878042594 -1721109935 -889049791 646836240 974279201 -43861496 525742497 -2051440783
REM
CELL 1.54180   50.00000   50.00000   50.00000   90.00000   90.00000   90.00000
LATT -1
SFAC C  
C      1  0.4386690000000  0.4779690000000  0.4409670000000 1.0
C      1  0.5324460000000  0.5331280000000  0.4820040000000 1.0
C      1  0.4973940000000  0.4765630000000  0.5973940000000 1.0
C      1  0.5340800000000  0.4529540000000  0.5248550000000 1.0
C      1  0.5324260000000  0.4005860000000  0.5078520000000 1.0
C      1  0.5825900000000  0.4539260000000  0.4903860000000 1.0
C      1  0.5466570000000  0.5228700000000  0.5860760000000 1.0
C      1  0.5036510000000  0.5843190000000  0.4374190000000 1.0
C      1  0.4010910000000  0.4575600000000  0.4740780000000 1.0
C      1  0.4306710000000  0.4696170000000  0.5623160000000 1.0
C      1  0.5353420000000  0.5052350000000  0.4740110000000 1.0
C      1  0.5451300000000  0.5087870000000  0.5206430000000 1.0
C      1  0.5021970000000  0.4304460000000  0.5595680000000 1.0
C      1  0.5481260000000  0.4901370000000  0.4971380000000 1.0
C      1  0.5678460000000  0.5467890000000  0.4381280000000 1.0
C      1  0.5523390000000  0.5357450000000  0.5078180000000 1.0
C      1  0.4482330000000  0.5094750000000  0.4910450000000 1.0
C      1  0.4145370000000  0.5474180000000  0.5091560000000 1.0
C      1  0.4835870000000  0.4058450000000  0.4839260000000 1.0
C      1  0.5413040000000  0.4267260000000  0.4702920000000 1.0
C      1  0.5127370000000  0.4923670000000  0.4618240000000 1.0
C      1  0.4034150000000  0.4843810000000  0.4781320000000 1.0
C      1  0.4745280000000  0.4637300000000  0.4802350000000 1.0
C      1  0.4235080000000  0.4379030000000  0.4747820000000 1.0
C      1  0.4535690000000  0.4259810000000  0.5632490000000 1.0
C      1  0.4869730000000  0.5910040000000  0.5483060000000 1.0
C      1  0.4523680000000  0.4012920000000  0.5503490000000 1.0
C      1  0.4771470000000  0.4381990000000  0.5743750000000 1.0
C      1  0.4704280000000  0.5119260000000  0.4736730000000 1.0
C      1  0.4541820000000  0.5283880000000  0.5145070000000 1.0
C      1  0.4365550000000  0.4452850000000  0.5501520000000 1.0
C      1  0.5151890000000  0.5631750000000  0.4218830000000 1.0
C      1  0.5113850000000  0.4545710000000  0.5419010000000 1.0
C      1  0.4949360000000  0.4478560000000  0.4663030000000 1.0
C      1  0.4692140000000  0.5589070000000  0.4206540000000 1.0
C      1  0.5241020000000  0.4034680000000  0.5352840000000 1.0
C      1  0.5905330000000  0.4890320000000  0.5251810000000 1.0
C      1  0.5787900000000  0.5274820000000  0.5517670000000 1.0
C      1  0.5720350000000  0.4342360000000  0.5080710000000 1.0
C      1  0.5800550000000  0.4710290000000  0.5437830000000 1.0
C      1  0.5524460000000  0.4380770000000  0.5622300000000 1.0
C      1  0.4752250000000  0.4668400000000  0.5806460000000 1.0
C      1  0.5055760000000  0.5369380000000  0.4958300000000 1.0
C      1  0.4742650000000  0.5750790000000  0.5074080000000 1.0
C      1  0.4998440000000  0.4705710000000  0.4088600000000 1.0
C      1  0.4698010000000  0.4335150000000  0.4401470000000 1.0
C      1  0.5794830000000  0.4799090000000  0.5007590000000 1.0
C      1  0.4767720000000  0.4542740000000  0.4203830000000 1.0
C      1  0.5214110000000  0.5675060000000  0.5352210000000 1.0
C      1  0.5278780000000  0.4688920000000  0.5018760000000 1.0
C      1  0.5015840000000  0.5602780000000  0.5120950000000 1.0
C      1  0.3982050000000  0.5297270000000  0.4971400000000 1.0
C      1  0.3981910000000  0.5132940000000  0.4747150000000 1.0
C      1  0.5180610000000  0.5615050000000  0.5640100000000 1.0
C      1  0.5801370000000  0.5220320000000  0.4335590000000 1.0
C      1  0.5491390000000  0.5611100000000  0.5248960000000 1.0
C      1  0.5387890000000  0.5452300000000  0.4284700000000 1.0
C      1  0.4498190000000  0.5607110000000  0.5484910000000 1.0
C      1  0.4275400000000  0.5158740000000  0.5514660000000 1.0
C      1  0.5504650000000  0.4622250000000  0.5780440000000 1.0
C      1  0.4754270000000  0.5814930000000  0.4376370000000 1.0
C      1  0.4654520000000  0.5557360000000  0.5723150000000 1.0
C      1  0.5698290000000  0.4811010000000  0.5684790000000 1.0
C      1  0.4621290000000  0.4977380000000  0.4072340000000 1.0
C      1  0.4437690000000  0.5169650000000  0.4169890000000 1.0
C      1  0.5635400000000  0.5784470000000  0.4787470000000 1.0
C      1  0.5902730000000  0.5327850000000  0.4773110000000 1.0
C      1  0.4275600000000  0.4756450000000  0.5171210000000 1.0
C      1  0.4962050000000  0.4075790000000  0.5410540000000 1.0
C      1  0.5111250000000  0.3973620000000  0.4875710000000 1.0
C      1  0.5221470000000  0.5046090000000  0.5362700000000 1.0
C      1  0.5252270000000  0.4781400000000  0.5843930000000 1.0
C      1  0.4889230000000  0.4898330000000  0.4796840000000 1.0
C      1  0.5317740000000  0.4191790000000  0.5587020000000 1.0
C      1  0.4898720000000  0.4967680000000  0.4028260000000 1.0
C      1  0.4388240000000  0.4494880000000  0.5208370000000 1.0
C      1  0.4701870000000  0.4043410000000  0.5296480000000 1.0
C      1  0.5420420000000  0.5481480000000  0.5719580000000 1.0
C      1  0.5490880000000  0.5835480000000  0.5032900000000 1.0
C      1  0.4605240000000  0.5866790000000  0.4613520000000 1.0
C      1  0.4229460000000  0.4890060000000  0.5418100000000 1.0
C      1  0.5533640000000  0.4163010000000  0.4955240000000 1.0
C      1  0.5835260000000  0.4837300000000  0.4494600000000 1.0
C      1  0.4443800000000  0.4399590000000  0.4548210000000 1.0
C      1  0.4360200000000  0.5703500000000  0.4649050000000 1.0
C      1  0.4326100000000  0.5395870000000  0.5340290000000 1.0
C      1  0.5779910000000  0.5559800000000  0.4650060000000 1.0
C      1  0.4902500000000  0.4201580000000  0.4585310000000 1.0
C      1  0.5231880000000  0.4503860000000  0.4798580000000 1.0
C      1  0.4487070000000  0.5104480000000  0.5719730000000 1.0
C      1  0.5688340000000  0.5096240000000  0.5725310000000 1.0
C      1  0.5440290000000  0.4946440000000  0.4141360000000 1.0
C      1  0.5044880000000  0.5209680000000  0.4060130000000 1.0
C      1  0.5638720000000  0.4473810000000  0.5353110000000 1.0
C      1  0.5119960000000  0.5958050000000  0.5325770000000 1.0
C      1  0.4812340000000  0.5378680000000  0.4774470000000 1.0
C      1  0.5166410000000  0.4640290000000  0.4549160000000 1.0
C      1  0.4559350000000  0.4729940000000  0.4195230000000 1.0
C      1  0.4326880000000  0.5615410000000  0.4912900000000 1.0
C      1  0.4358100000000  0.4283470000000  0.4996070000000 1.0
C      1  0.4143970000000  0.5234520000000  0.4524110000000 1.0
C      1  0.4709120000000  0.5055830000000  0.5524160000000 1.0
C      1  0.4467160000000  0.4672950000000  0.4675760000000 1.0
C      1  0.4876410000000  0.4662800000000  0.5263150000000 1.0
C      1  0.5354760000000  0.4541150000000  0.4350300000000 1.0
C      1  0.4942380000000  0.5472090000000  0.4120870000000 1.0
C      1  0.4650480000000  0.4175570000000  0.5033020000000 1.0
C      1  0.5285930000000  0.4699290000000  0.4130510000000 1.0
C      1  0.4994070000000  0.5042230000000  0.6057440000000 1.0
C      1  0.4618670000000  0.5318710000000  0.5885520000000 1.0
C      1  0.4769500000000  0.5937010000000  0.4842870000000 1.0
C      1  0.4273530000000  0.5039960000000  0.4362250000000 1.0
C      1  0.5826240000000  0.5313750000000  0.5045210000000 1.0
C      1  0.5315360000000  0.5200510000000  0.4132880000000 1.0
C      1  0.4641620000000  0.5818910000000  0.5345750000000 1.0
C      1  0.4596690000000  0.5522040000000  0.4970420000000 1.0
C      1  0.5783030000000  0.4577180000000  0.4616710000000 1.0
C      1  0.4771250000000  0.5208610000000  0.5307240000000 1.0
C      1  0.5141490000000  0.4823730000000  0.5550970000000 1.0
C      1  0.4907600000000  0.5707670000000  0.5687280000000 1.0
C      1  0.5279510000000  0.5052080000000  0.5971600000000 1.0
C      1  0.4451200000000  0.5446360000000  0.4237890000000 1.0
C      1  0.5186300000000  0.4090250000000  0.4625890000000 1.0
C      1  0.5617750000000  0.5504650000000  0.5509710000000 1.0
C      1  0.4833260000000  0.4814100000000  0.5540170000000 1.0
C      1  0.4318680000000  0.4853180000000  0.4895400000000 1.0
C      1  0.5018000000000  0.5139620000000  0.5183740000000 1.0
C      1  0.4787310000000  0.5220800000000  0.6085440000000 1.0
C      1  0.4477680000000  0.4809110000000  0.5808710000000 1.0
C      1  0.5177600000000  0.5948470000000  0.4595790000000 1.0
C      1  0.5568680000000  0.4427990000000  0.4503940000000 1.0
C      1  0.5931100000000  0.5112920000000  0.4567620000000 1.0
C      1  0.5411030000000  0.5799080000000  0.4621600000000 1.0
C      1  0.5910380000000  0.5173810000000  0.5281250000000 1.0
C      1  0.5012790000000  0.4851130000000  0.5075850000000 1.0
C      1  0.4279310000000  0.5491960000000  0.4465740000000 1.0
C      1  0.4693880000000  0.4506230000000  0.5090440000000 1.0
C      1  0.5695930000000  0.4959280000000  0.4265430000000 1.0
C      1  0.5046090000000  0.6022700000000  0.4829840000000 1.0
C      1  0.5336210000000  0.5511260000000  0.4572620000000 1.0
C      1  0.5227850000000  0.5994680000000  0.5060690000000 1.0
END
