TITL C-21093-1272-3 0.0578305787272025 125000 -315.389619606834 0 0 47 (C1) n - 1
REM
REM in /rds/project/t2_vol4/rds-t2-cs072/BORA/CARBON/from-Arr/AIRSS/Generating-Clusters/GAP-ML-2020/Only-C1/SD-CG/HFTN-CG
REM
REM
REM
REM
REM
REM ./C.cell (11c1c37f851c82e70ff6c80c92926a4b)
REM AIRSS Version 0.9.1 bugfix July 2018 build 013d7b7c2542+ Fri, 06 Jul 2018 19:26:36 +0100
REM compiler GCC version 9.3.0
REM options -cpp -mtune=generic -march=x86-64 -g -O0
REM seed 313972700 508055212 -470918324 1505007795 -132039368 546405269 1338956386 -397491758 -618004424 1735641282 522862887 -50897206 516327743 -1693005394 1950050396 -1012175046 857906837 1244946046 -1704477239 -1773017097 925493198 1850726873 -809260498 -1869707813 -8926051 2076018674 -961963113 -1443353546 -1666616805 -1795218990 833710220 1239091242 1966001263
REM
CELL 1.54180   50.00000   50.00000   50.00000   90.00000   90.00000   90.00000
LATT -1
SFAC C  
C      1  0.5170370000000  0.4642290000000  0.4095730000000 1.0
C      1  0.5112890000000  0.4434850000000  0.5079510000000 1.0
C      1  0.4486740000000  0.5149180000000  0.5382170000000 1.0
C      1  0.5350730000000  0.5438950000000  0.5355550000000 1.0
C      1  0.4437830000000  0.4657140000000  0.5420640000000 1.0
C      1  0.4626970000000  0.5095380000000  0.4666820000000 1.0
C      1  0.4381470000000  0.4818200000000  0.4987530000000 1.0
C      1  0.5354270000000  0.4577310000000  0.4707080000000 1.0
C      1  0.4902880000000  0.5362290000000  0.5490140000000 1.0
C      1  0.4247610000000  0.4770230000000  0.5234310000000 1.0
C      1  0.5229050000000  0.4841570000000  0.4262360000000 1.0
C      1  0.4821960000000  0.5526960000000  0.4830890000000 1.0
C      1  0.4321030000000  0.4925790000000  0.5444740000000 1.0
C      1  0.5173110000000  0.4402750000000  0.4591720000000 1.0
C      1  0.5028630000000  0.5249240000000  0.4516000000000 1.0
C      1  0.5354630000000  0.4867560000000  0.5032860000000 1.0
C      1  0.4749240000000  0.5119200000000  0.5487840000000 1.0
C      1  0.4453090000000  0.5078300000000  0.4898300000000 1.0
C      1  0.5546940000000  0.5085060000000  0.5129180000000 1.0
C      1  0.5226470000000  0.5411350000000  0.4630630000000 1.0
C      1  0.5231730000000  0.4834980000000  0.5652450000000 1.0
C      1  0.4599970000000  0.4640940000000  0.4984110000000 1.0
C      1  0.5054820000000  0.4682040000000  0.5519240000000 1.0
C      1  0.5500860000000  0.5186560000000  0.5391060000000 1.0
C      1  0.4702970000000  0.4636890000000  0.5266690000000 1.0
C      1  0.5119240000000  0.5551230000000  0.4859900000000 1.0
C      1  0.4666800000000  0.5493350000000  0.5073410000000 1.0
C      1  0.5519230000000  0.5039920000000  0.4555300000000 1.0
C      1  0.5173860000000  0.5349000000000  0.5566610000000 1.0
C      1  0.4985520000000  0.4443150000000  0.4803020000000 1.0
C      1  0.5485020000000  0.5301110000000  0.4673940000000 1.0
C      1  0.4967830000000  0.4483070000000  0.5320650000000 1.0
C      1  0.5099010000000  0.4987160000000  0.5175800000000 1.0
C      1  0.4776670000000  0.5333460000000  0.4622910000000 1.0
C      1  0.4883540000000  0.4884360000000  0.5369420000000 1.0
C      1  0.4823470000000  0.5545520000000  0.5298940000000 1.0
C      1  0.5316530000000  0.5085410000000  0.5596800000000 1.0
C      1  0.4768750000000  0.4624740000000  0.4763200000000 1.0
C      1  0.5523540000000  0.5320850000000  0.4952700000000 1.0
C      1  0.5063620000000  0.4953380000000  0.4522390000000 1.0
C      1  0.5359490000000  0.4572910000000  0.5001300000000 1.0
C      1  0.5324380000000  0.4873700000000  0.4708180000000 1.0
C      1  0.4796790000000  0.4864490000000  0.4610080000000 1.0
C      1  0.5316180000000  0.5497200000000  0.5074080000000 1.0
C      1  0.4995750000000  0.5119580000000  0.4983450000000 1.0
C      1  0.5483050000000  0.4971630000000  0.4297180000000 1.0
C      1  0.4485450000000  0.5269810000000  0.5113210000000 1.0
END
