TITL C-215713-9171-2 -0.0505771161004635 125000 -451.27316058304 0 0 66 (C1) n - 1
REM
REM in /rds/project/t2_vol4/rds-t2-cs072/BORA/CARBON/from-Arr/AIRSS/Generating-Clusters/GAP-ML-2020/Only-C1/SD-CG/HFTN-CG
REM
REM
REM
REM
REM
REM ./C.cell (11c1c37f851c82e70ff6c80c92926a4b)
REM AIRSS Version 0.9.1 bugfix July 2018 build 013d7b7c2542+ Fri, 06 Jul 2018 19:26:36 +0100
REM compiler GCC version 9.3.0
REM options -cpp -mtune=generic -march=x86-64 -g -O0
REM seed 2032828087 2011224100 1716313594 161711543 1292868735 -1790368502 -1596233342 1236145804 1921963989 805159320 1589133075 1696998636 -33435708 -295155427 -2030833146 1030612167 -119414582 -2103942734 -1632076292 -332510133 -31270066 2117930568 -1111160545 356015542 -430969456 -1597049787 1912580080 1776835140 -1237466519 1417411102 -1507582946 1052718348 1545711893
REM
CELL 1.54180   50.00000   50.00000   50.00000   90.00000   90.00000   90.00000
LATT -1
SFAC C  
C      1  0.4879470000000  0.5480130000000  0.4614860000000 1.0
C      1  0.5561920000000  0.5322140000000  0.4505010000000 1.0
C      1  0.5426560000000  0.4616500000000  0.5398920000000 1.0
C      1  0.4661240000000  0.5082600000000  0.4478920000000 1.0
C      1  0.4707960000000  0.4425290000000  0.5178420000000 1.0
C      1  0.4526070000000  0.5488790000000  0.5104590000000 1.0
C      1  0.5202020000000  0.5688620000000  0.4972490000000 1.0
C      1  0.5109210000000  0.4480540000000  0.4567220000000 1.0
C      1  0.5354190000000  0.5183050000000  0.4404990000000 1.0
C      1  0.5614780000000  0.5400350000000  0.4766740000000 1.0
C      1  0.5552010000000  0.4830960000000  0.5504060000000 1.0
C      1  0.5650010000000  0.4681520000000  0.4923270000000 1.0
C      1  0.5134300000000  0.4255460000000  0.5290570000000 1.0
C      1  0.4281060000000  0.5162190000000  0.4781450000000 1.0
C      1  0.4629910000000  0.4602840000000  0.4474090000000 1.0
C      1  0.5117120000000  0.5173360000000  0.5034780000000 1.0
C      1  0.5114810000000  0.4397550000000  0.4859830000000 1.0
C      1  0.4585500000000  0.4425410000000  0.4677050000000 1.0
C      1  0.5069740000000  0.5269220000000  0.4481650000000 1.0
C      1  0.5103870000000  0.4681840000000  0.4965060000000 1.0
C      1  0.4334250000000  0.4900620000000  0.5434070000000 1.0
C      1  0.4747000000000  0.5660770000000  0.5064280000000 1.0
C      1  0.5031500000000  0.4845280000000  0.4301420000000 1.0
C      1  0.5315570000000  0.5005130000000  0.5178810000000 1.0
C      1  0.5517330000000  0.4934610000000  0.4947950000000 1.0
C      1  0.4429200000000  0.4891000000000  0.5172990000000 1.0
C      1  0.4922050000000  0.4797330000000  0.5408830000000 1.0
C      1  0.5668910000000  0.5281030000000  0.5231010000000 1.0
C      1  0.5182410000000  0.4751460000000  0.5252360000000 1.0
C      1  0.5083250000000  0.5084860000000  0.4755990000000 1.0
C      1  0.4585520000000  0.4542250000000  0.4930570000000 1.0
C      1  0.4329550000000  0.4898890000000  0.4720560000000 1.0
C      1  0.4486340000000  0.4853320000000  0.4486160000000 1.0
C      1  0.4746250000000  0.4924750000000  0.5173940000000 1.0
C      1  0.4910440000000  0.4603380000000  0.4409570000000 1.0
C      1  0.4710460000000  0.4576260000000  0.5431560000000 1.0
C      1  0.4892330000000  0.5011720000000  0.5623370000000 1.0
C      1  0.4946960000000  0.4291710000000  0.5101870000000 1.0
C      1  0.4447830000000  0.5160360000000  0.5540780000000 1.0
C      1  0.4517270000000  0.4727920000000  0.5574600000000 1.0
C      1  0.4888550000000  0.5673160000000  0.5314500000000 1.0
C      1  0.4363790000000  0.4738360000000  0.4947890000000 1.0
C      1  0.5354150000000  0.4646520000000  0.4552590000000 1.0
C      1  0.4442360000000  0.5366930000000  0.4844260000000 1.0
C      1  0.4866640000000  0.5180870000000  0.5139900000000 1.0
C      1  0.5350200000000  0.5563710000000  0.5405340000000 1.0
C      1  0.4818370000000  0.4965990000000  0.4736370000000 1.0
C      1  0.4816010000000  0.4766950000000  0.4936930000000 1.0
C      1  0.4549570000000  0.5384060000000  0.5393200000000 1.0
C      1  0.5548070000000  0.4517470000000  0.4744390000000 1.0
C      1  0.5008910000000  0.5277060000000  0.5602230000000 1.0
C      1  0.5482430000000  0.5110020000000  0.5418940000000 1.0
C      1  0.5392090000000  0.4391860000000  0.4945580000000 1.0
C      1  0.5305910000000  0.4875790000000  0.4373590000000 1.0
C      1  0.5155870000000  0.5708260000000  0.5259690000000 1.0
C      1  0.4630510000000  0.5346230000000  0.4620870000000 1.0
C      1  0.5676240000000  0.5188000000000  0.4955840000000 1.0
C      1  0.5480270000000  0.5602340000000  0.4949370000000 1.0
C      1  0.4808330000000  0.5476800000000  0.5497570000000 1.0
C      1  0.5383550000000  0.4379230000000  0.5243420000000 1.0
C      1  0.5270750000000  0.4858090000000  0.4775370000000 1.0
C      1  0.4942580000000  0.5652070000000  0.4840030000000 1.0
C      1  0.4902230000000  0.5093320000000  0.4321820000000 1.0
C      1  0.5286330000000  0.5324570000000  0.5544380000000 1.0
C      1  0.5567600000000  0.5536640000000  0.5219530000000 1.0
C      1  0.4622500000000  0.4984640000000  0.5691730000000 1.0
END
