TITL C-216154-3375-7 -0.0386876180779629 125000 -449.0919140492 0 0 65 (C1) n - 1
REM
REM in /rds/project/t2_vol4/rds-t2-cs072/BORA/CARBON/from-Arr/AIRSS/Generating-Clusters/GAP-ML-2020/Only-C1/SD-CG/HFTN-CG
REM
REM
REM
REM
REM
REM ./C.cell (11c1c37f851c82e70ff6c80c92926a4b)
REM AIRSS Version 0.9.1 bugfix July 2018 build 013d7b7c2542+ Fri, 06 Jul 2018 19:26:36 +0100
REM compiler GCC version 9.3.0
REM options -cpp -mtune=generic -march=x86-64 -g -O0
REM seed 638337219 7211520 -349670785 1260777651 -2001835046 2005124996 -986805517 -1439860652 -620246534 2028410400 1976403121 -418799857 -1574502451 -1093877355 1298960300 1487810317 854430648 1538599618 1367829998 -1159113172 -2028679941 -1837504158 886018750 50892881 354499824 -81700690 -1300401446 -2008355166 -1314919558 -862650870 160505028 -2346064 1152105951
REM
CELL 1.54180   50.00000   50.00000   50.00000   90.00000   90.00000   90.00000
LATT -1
SFAC C  
C      1  0.5596370000000  0.4971140000000  0.4841070000000 1.0
C      1  0.4502600000000  0.4726850000000  0.5550800000000 1.0
C      1  0.4284960000000  0.4969410000000  0.4903580000000 1.0
C      1  0.4736950000000  0.4867810000000  0.5580650000000 1.0
C      1  0.4946080000000  0.5098410000000  0.5242770000000 1.0
C      1  0.4572020000000  0.5702880000000  0.5245950000000 1.0
C      1  0.5427350000000  0.5474540000000  0.4750020000000 1.0
C      1  0.5137600000000  0.5049010000000  0.4232810000000 1.0
C      1  0.4318170000000  0.5005500000000  0.5193080000000 1.0
C      1  0.4708000000000  0.4805330000000  0.5088160000000 1.0
C      1  0.4964670000000  0.5278080000000  0.4287090000000 1.0
C      1  0.5000070000000  0.5584060000000  0.5367970000000 1.0
C      1  0.4560310000000  0.4464260000000  0.5431060000000 1.0
C      1  0.4710410000000  0.5244390000000  0.4415550000000 1.0
C      1  0.5217600000000  0.5205700000000  0.5202800000000 1.0
C      1  0.5261800000000  0.4645640000000  0.5499830000000 1.0
C      1  0.5505640000000  0.4886770000000  0.4568130000000 1.0
C      1  0.5647100000000  0.4851110000000  0.5343070000000 1.0
C      1  0.4481930000000  0.5221350000000  0.5291200000000 1.0
C      1  0.4923830000000  0.4455580000000  0.4697500000000 1.0
C      1  0.5029550000000  0.4833450000000  0.4096020000000 1.0
C      1  0.5635220000000  0.4679370000000  0.4911000000000 1.0
C      1  0.4332130000000  0.5194570000000  0.4766950000000 1.0
C      1  0.5603940000000  0.4617420000000  0.5179600000000 1.0
C      1  0.4774540000000  0.4594010000000  0.4498290000000 1.0
C      1  0.5512360000000  0.5515870000000  0.5205250000000 1.0
C      1  0.4619680000000  0.4970130000000  0.4386140000000 1.0
C      1  0.5208270000000  0.5518660000000  0.5164380000000 1.0
C      1  0.5045180000000  0.5005680000000  0.4822000000000 1.0
C      1  0.4972540000000  0.5568860000000  0.4657590000000 1.0
C      1  0.5616280000000  0.5429330000000  0.4955380000000 1.0
C      1  0.4374520000000  0.4509760000000  0.5224840000000 1.0
C      1  0.4512270000000  0.4547480000000  0.4976100000000 1.0
C      1  0.5115020000000  0.5466810000000  0.4430260000000 1.0
C      1  0.4526510000000  0.4748330000000  0.4552530000000 1.0
C      1  0.4970940000000  0.4791650000000  0.5222860000000 1.0
C      1  0.5599860000000  0.5312930000000  0.5398390000000 1.0
C      1  0.4927370000000  0.4324800000000  0.5142380000000 1.0
C      1  0.5425880000000  0.4878880000000  0.5514500000000 1.0
C      1  0.4699870000000  0.5446330000000  0.4637520000000 1.0
C      1  0.5169310000000  0.5312480000000  0.5665990000000 1.0
C      1  0.4484050000000  0.5411770000000  0.4833180000000 1.0
C      1  0.4842360000000  0.4785810000000  0.4289350000000 1.0
C      1  0.5371540000000  0.4484320000000  0.5281060000000 1.0
C      1  0.5370860000000  0.5358010000000  0.4494050000000 1.0
C      1  0.5183180000000  0.5581230000000  0.4863680000000 1.0
C      1  0.5303260000000  0.5035310000000  0.4976470000000 1.0
C      1  0.4796560000000  0.5777560000000  0.5346310000000 1.0
C      1  0.4811710000000  0.5058490000000  0.4969690000000 1.0
C      1  0.5749450000000  0.5173380000000  0.4982340000000 1.0
C      1  0.4761020000000  0.4382950000000  0.4918370000000 1.0
C      1  0.5740100000000  0.5106960000000  0.5260580000000 1.0
C      1  0.4375270000000  0.4722730000000  0.4784950000000 1.0
C      1  0.5461500000000  0.4610310000000  0.4689290000000 1.0
C      1  0.5361270000000  0.5177620000000  0.5509510000000 1.0
C      1  0.4927640000000  0.5364240000000  0.5553870000000 1.0
C      1  0.4493010000000  0.5456910000000  0.5128770000000 1.0
C      1  0.5207290000000  0.4513680000000  0.4815100000000 1.0
C      1  0.4740480000000  0.5150140000000  0.5457780000000 1.0
C      1  0.5200620000000  0.4366500000000  0.5082400000000 1.0
C      1  0.5383930000000  0.5077670000000  0.4394540000000 1.0
C      1  0.4304770000000  0.4773180000000  0.5344790000000 1.0
C      1  0.4965860000000  0.4659050000000  0.5489950000000 1.0
C      1  0.5161510000000  0.4780410000000  0.4995030000000 1.0
C      1  0.4828070000000  0.4417180000000  0.5397870000000 1.0
END
