TITL C-21783-3048-8 -0.0703843259498632 125000 -857.951393265123 0 0 124 (C1) n - 1
REM
REM in /rds/project/t2_vol4/rds-t2-cs072/BORA/CARBON/from-Arr/AIRSS/Generating-Clusters/GAP-ML-2020/Only-C1/SD-CG/HFTN-CG
REM
REM
REM
REM
REM
REM ./C.cell (11c1c37f851c82e70ff6c80c92926a4b)
REM AIRSS Version 0.9.1 bugfix July 2018 build 013d7b7c2542+ Fri, 06 Jul 2018 19:26:36 +0100
REM compiler GCC version 9.3.0
REM options -cpp -mtune=generic -march=x86-64 -g -O0
REM seed 591100168 -1483827114 137558897 -256597334 -333095207 1946680601 1795080282 1976866582 -21842470 -1655673683 116662260 2079302557 -207178430 279095023 2053180145 -1002060158 -641157467 216948602 -1216744648 -840026246 507416862 -300166625 1992183884 -693501873 -1694000473 -456075651 368508682 1134105252 -922985293 1011084936 468703282 -867837883 -1726803662
REM
CELL 1.54180   50.00000   50.00000   50.00000   90.00000   90.00000   90.00000
LATT -1
SFAC C  
C      1  0.5535630000000  0.4613410000000  0.5598690000000 1.0
C      1  0.4158680000000  0.4971550000000  0.4730260000000 1.0
C      1  0.4918200000000  0.4204190000000  0.5037330000000 1.0
C      1  0.5161230000000  0.4145900000000  0.4863110000000 1.0
C      1  0.5255690000000  0.5984610000000  0.4721840000000 1.0
C      1  0.4268650000000  0.5135050000000  0.5489570000000 1.0
C      1  0.5837080000000  0.5070030000000  0.4653300000000 1.0
C      1  0.4096760000000  0.5496600000000  0.4810010000000 1.0
C      1  0.4236280000000  0.4508430000000  0.4516520000000 1.0
C      1  0.5557190000000  0.4530010000000  0.4655070000000 1.0
C      1  0.4881360000000  0.5692360000000  0.4502740000000 1.0
C      1  0.4914970000000  0.5029370000000  0.5014940000000 1.0
C      1  0.4536500000000  0.4484800000000  0.5461210000000 1.0
C      1  0.4476710000000  0.5805170000000  0.5344430000000 1.0
C      1  0.4662440000000  0.4181830000000  0.4920970000000 1.0
C      1  0.5460200000000  0.4626240000000  0.4935530000000 1.0
C      1  0.4457530000000  0.5461510000000  0.4492650000000 1.0
C      1  0.5161330000000  0.5506270000000  0.4495600000000 1.0
C      1  0.4976190000000  0.4640540000000  0.5898520000000 1.0
C      1  0.4675490000000  0.4681610000000  0.5891820000000 1.0
C      1  0.4589920000000  0.5390350000000  0.4252520000000 1.0
C      1  0.5143710000000  0.5278340000000  0.4697610000000 1.0
C      1  0.5394410000000  0.4401360000000  0.4467340000000 1.0
C      1  0.5444900000000  0.5655210000000  0.5223150000000 1.0
C      1  0.5230880000000  0.4953770000000  0.4110460000000 1.0
C      1  0.5338310000000  0.4501360000000  0.4204360000000 1.0
C      1  0.4944770000000  0.5362400000000  0.5408110000000 1.0
C      1  0.4795900000000  0.5726460000000  0.5599680000000 1.0
C      1  0.4507470000000  0.4924040000000  0.4381760000000 1.0
C      1  0.5435300000000  0.5634900000000  0.4524010000000 1.0
C      1  0.5604050000000  0.4215430000000  0.5130110000000 1.0
C      1  0.5402710000000  0.4110520000000  0.4969860000000 1.0
C      1  0.5574440000000  0.5084340000000  0.5653060000000 1.0
C      1  0.5113850000000  0.5349420000000  0.5927100000000 1.0
C      1  0.5538570000000  0.5193090000000  0.5068600000000 1.0
C      1  0.5160790000000  0.4603500000000  0.5013730000000 1.0
C      1  0.5471520000000  0.5817250000000  0.4737950000000 1.0
C      1  0.4209010000000  0.4414660000000  0.4998110000000 1.0
C      1  0.5348280000000  0.5022900000000  0.4673660000000 1.0
C      1  0.5262110000000  0.5501700000000  0.5746440000000 1.0
C      1  0.4961430000000  0.5921660000000  0.5203140000000 1.0
C      1  0.4852020000000  0.5527480000000  0.4244140000000 1.0
C      1  0.5113760000000  0.4845020000000  0.4589500000000 1.0
C      1  0.4526150000000  0.5598970000000  0.5555440000000 1.0
C      1  0.5308490000000  0.5228040000000  0.4141960000000 1.0
C      1  0.4513930000000  0.4238990000000  0.5328710000000 1.0
C      1  0.4876170000000  0.4898180000000  0.5491960000000 1.0
C      1  0.4878930000000  0.4199770000000  0.4479890000000 1.0
C      1  0.4256200000000  0.4802580000000  0.4519280000000 1.0
C      1  0.4214590000000  0.5103410000000  0.5211320000000 1.0
C      1  0.4762430000000  0.4680110000000  0.5311740000000 1.0
C      1  0.4677490000000  0.4853350000000  0.5082670000000 1.0
C      1  0.4730590000000  0.4716560000000  0.4354200000000 1.0
C      1  0.4655060000000  0.5431690000000  0.4965780000000 1.0
C      1  0.5967800000000  0.4878400000000  0.5102530000000 1.0
C      1  0.4376680000000  0.5784970000000  0.5075180000000 1.0
C      1  0.5725280000000  0.4484180000000  0.5046500000000 1.0
C      1  0.5058590000000  0.4548080000000  0.4153670000000 1.0
C      1  0.4665350000000  0.4448770000000  0.5718450000000 1.0
C      1  0.5809270000000  0.5357060000000  0.4683330000000 1.0
C      1  0.4483610000000  0.4860940000000  0.5836500000000 1.0
C      1  0.4307580000000  0.4874880000000  0.5614780000000 1.0
C      1  0.4133320000000  0.4903670000000  0.5022760000000 1.0
C      1  0.5218230000000  0.5240660000000  0.5402210000000 1.0
C      1  0.5042270000000  0.4586850000000  0.4731910000000 1.0
C      1  0.4990480000000  0.4441260000000  0.5222990000000 1.0
C      1  0.4281390000000  0.4649810000000  0.5429570000000 1.0
C      1  0.5636000000000  0.5450860000000  0.4469610000000 1.0
C      1  0.5117870000000  0.5400100000000  0.4955220000000 1.0
C      1  0.4606530000000  0.4764660000000  0.4813560000000 1.0
C      1  0.5166890000000  0.4943930000000  0.5411750000000 1.0
C      1  0.4164860000000  0.4650040000000  0.5164260000000 1.0
C      1  0.5374430000000  0.4854320000000  0.5662550000000 1.0
C      1  0.5135740000000  0.4305440000000  0.4607560000000 1.0
C      1  0.5604910000000  0.5712740000000  0.4973610000000 1.0
C      1  0.5596210000000  0.5032660000000  0.4493170000000 1.0
C      1  0.4131250000000  0.5694480000000  0.4967680000000 1.0
C      1  0.5326390000000  0.5366080000000  0.5143310000000 1.0
C      1  0.5166350000000  0.4887400000000  0.5110030000000 1.0
C      1  0.5804890000000  0.4992860000000  0.5524100000000 1.0
C      1  0.4947200000000  0.4417300000000  0.5712710000000 1.0
C      1  0.4927320000000  0.5058240000000  0.4708750000000 1.0
C      1  0.5926870000000  0.4849780000000  0.4811130000000 1.0
C      1  0.4616370000000  0.5725490000000  0.4901110000000 1.0
C      1  0.4478700000000  0.5317970000000  0.5575470000000 1.0
C      1  0.4257860000000  0.5290540000000  0.4692070000000 1.0
C      1  0.5780640000000  0.5334990000000  0.5198790000000 1.0
C      1  0.5626830000000  0.5501330000000  0.5400690000000 1.0
C      1  0.5176220000000  0.4835730000000  0.5899100000000 1.0
C      1  0.4862320000000  0.5232070000000  0.5862400000000 1.0
C      1  0.5778450000000  0.4709170000000  0.5491080000000 1.0
C      1  0.4743050000000  0.5909570000000  0.5386920000000 1.0
C      1  0.4674410000000  0.4240040000000  0.4274150000000 1.0
C      1  0.4429770000000  0.4230870000000  0.5077370000000 1.0
C      1  0.5878080000000  0.4643130000000  0.5233480000000 1.0
C      1  0.5411160000000  0.4364780000000  0.5526120000000 1.0
C      1  0.4658320000000  0.4294020000000  0.4659330000000 1.0
C      1  0.4501530000000  0.5141140000000  0.4198540000000 1.0
C      1  0.4444280000000  0.4307840000000  0.4452820000000 1.0
C      1  0.5462690000000  0.5348740000000  0.5591030000000 1.0
C      1  0.5118080000000  0.5422590000000  0.4214560000000 1.0
C      1  0.4791140000000  0.4471570000000  0.4177810000000 1.0
C      1  0.5819640000000  0.4578210000000  0.4766560000000 1.0
C      1  0.5190940000000  0.5788290000000  0.5327510000000 1.0
C      1  0.5420250000000  0.4945190000000  0.4952930000000 1.0
C      1  0.4501360000000  0.5220810000000  0.4843240000000 1.0
C      1  0.5113580000000  0.4365370000000  0.5490460000000 1.0
C      1  0.4883510000000  0.5327470000000  0.5104120000000 1.0
C      1  0.5068740000000  0.5083900000000  0.5982720000000 1.0
C      1  0.4854510000000  0.5901530000000  0.4934110000000 1.0
C      1  0.5018930000000  0.4817820000000  0.4297690000000 1.0
C      1  0.5779010000000  0.5490300000000  0.4940670000000 1.0
C      1  0.4466750000000  0.5075070000000  0.5090990000000 1.0
C      1  0.5552600000000  0.5240320000000  0.4298360000000 1.0
C      1  0.5417350000000  0.4746400000000  0.4092230000000 1.0
C      1  0.4753830000000  0.4585010000000  0.4651790000000 1.0
C      1  0.4758830000000  0.5194170000000  0.5589600000000 1.0
C      1  0.4620150000000  0.5651980000000  0.4617530000000 1.0
C      1  0.4994500000000  0.5913480000000  0.4691810000000 1.0
C      1  0.4113700000000  0.4408190000000  0.4743380000000 1.0
C      1  0.4641490000000  0.5028220000000  0.4661150000000 1.0
C      1  0.5926090000000  0.5101950000000  0.5284170000000 1.0
C      1  0.5074290000000  0.5636950000000  0.5550470000000 1.0
C      1  0.5580220000000  0.4181100000000  0.5404830000000 1.0
END
