TITL C-2109098-3686-28 -143.421099921637 125000 -486.005119942584 0 0 70 (C1) n - 1
REM
REM in /nfs/bkarasulu/CARBON/AIRSS/Generating-Clusters/GAP-ML-2020/Only-C1/SD-CG/HFTN-CG
REM
REM
REM
REM
REM
REM ./C.cell (11c1c37f851c82e70ff6c80c92926a4b)
REM
REM compiler GCC version 9.2.1 20190827 (Red Hat 9.2.1-1)
REM options -cpp -mtune=generic -march=x86-64 -g -O0 -fpre-include=/usr/include/finclude/math-vector-fortran.h
REM seed 139254613 -769111195 -2137492568 -1914145164 -267212804 901863685 1921713184 678642000 -1007870285 -15655033 -1192669816 -1224060294 -438850112 -745174790 2115978056 1912935299 -1706733328 972822094 228528442 1558831823 634131008 914596471 85523106 1102814241 -2063540384 -1261778459 863253351 -434609356 1002908183 -210852315 -1841057135 -857247771 -917263040
REM
CELL 1.54180   50.00000   50.00000   50.00000   90.00000   90.00000   90.00000
LATT -1
SFAC C  
C      1  0.5277610000000  0.4475270000000  0.4654230000000 1.0
C      1  0.5384410000000  0.5238660000000  0.4469110000000 1.0
C      1  0.4475570000000  0.4582280000000  0.5329270000000 1.0
C      1  0.4195240000000  0.4837000000000  0.4970880000000 1.0
C      1  0.5470620000000  0.5257340000000  0.5458230000000 1.0
C      1  0.5665060000000  0.4788610000000  0.5211960000000 1.0
C      1  0.4483830000000  0.5282910000000  0.5268850000000 1.0
C      1  0.4657390000000  0.4692990000000  0.5533550000000 1.0
C      1  0.5017650000000  0.5428450000000  0.5556970000000 1.0
C      1  0.4676990000000  0.4826620000000  0.4417820000000 1.0
C      1  0.4878150000000  0.5548040000000  0.5334610000000 1.0
C      1  0.4770560000000  0.5252830000000  0.4908070000000 1.0
C      1  0.4216020000000  0.5109970000000  0.4896560000000 1.0
C      1  0.5699360000000  0.5506480000000  0.5149180000000 1.0
C      1  0.4438790000000  0.4884710000000  0.4560430000000 1.0
C      1  0.5489500000000  0.5649220000000  0.5058170000000 1.0
C      1  0.4662560000000  0.4972990000000  0.5598500000000 1.0
C      1  0.4533200000000  0.5368020000000  0.4769790000000 1.0
C      1  0.5124830000000  0.4656220000000  0.5608350000000 1.0
C      1  0.5382150000000  0.5611690000000  0.4790110000000 1.0
C      1  0.4848820000000  0.4584830000000  0.4477830000000 1.0
C      1  0.5539120000000  0.4784010000000  0.5466470000000 1.0
C      1  0.4923250000000  0.5713110000000  0.4826700000000 1.0
C      1  0.5355180000000  0.4568960000000  0.5467340000000 1.0
C      1  0.4783280000000  0.4946040000000  0.4906480000000 1.0
C      1  0.5080350000000  0.4358880000000  0.4826280000000 1.0
C      1  0.5545140000000  0.4574270000000  0.5051640000000 1.0
C      1  0.5274170000000  0.5675190000000  0.5244150000000 1.0
C      1  0.5004300000000  0.5262380000000  0.4716090000000 1.0
C      1  0.5014050000000  0.4966990000000  0.4708740000000 1.0
C      1  0.5309280000000  0.5334270000000  0.4737430000000 1.0
C      1  0.5650950000000  0.5033560000000  0.4894870000000 1.0
C      1  0.4823480000000  0.4409990000000  0.4709540000000 1.0
C      1  0.5459810000000  0.4963480000000  0.4463070000000 1.0
C      1  0.4800690000000  0.5065930000000  0.4321970000000 1.0
C      1  0.5606820000000  0.4848520000000  0.4674900000000 1.0
C      1  0.4590250000000  0.4372640000000  0.4877180000000 1.0
C      1  0.4769480000000  0.5314060000000  0.5202620000000 1.0
C      1  0.4995550000000  0.5109690000000  0.5285190000000 1.0
C      1  0.4344460000000  0.5320410000000  0.5023890000000 1.0
C      1  0.5516000000000  0.4590510000000  0.4768260000000 1.0
C      1  0.4196310000000  0.4940720000000  0.5444970000000 1.0
C      1  0.5420940000000  0.5010870000000  0.5593000000000 1.0
C      1  0.5113560000000  0.4333420000000  0.5112570000000 1.0
C      1  0.5196500000000  0.4907740000000  0.4923690000000 1.0
C      1  0.4349700000000  0.4432280000000  0.4752610000000 1.0
C      1  0.5244790000000  0.4830250000000  0.4314270000000 1.0
C      1  0.4302990000000  0.4698170000000  0.4741180000000 1.0
C      1  0.4976460000000  0.4882880000000  0.5105840000000 1.0
C      1  0.5067260000000  0.5037430000000  0.4231240000000 1.0
C      1  0.4256450000000  0.4755680000000  0.5246160000000 1.0
C      1  0.5007730000000  0.5697210000000  0.5132060000000 1.0
C      1  0.5274090000000  0.5482010000000  0.5468080000000 1.0
C      1  0.5160530000000  0.5736880000000  0.4695570000000 1.0
C      1  0.4424240000000  0.5094730000000  0.5473260000000 1.0
C      1  0.5354570000000  0.4439360000000  0.5214860000000 1.0
C      1  0.4889430000000  0.5352760000000  0.4460510000000 1.0
C      1  0.5713660000000  0.5277260000000  0.5290900000000 1.0
C      1  0.5268010000000  0.5204610000000  0.5225000000000 1.0
C      1  0.4941480000000  0.5114720000000  0.5589070000000 1.0
C      1  0.4369440000000  0.5148780000000  0.4645320000000 1.0
C      1  0.4891380000000  0.4537430000000  0.5520530000000 1.0
C      1  0.5150520000000  0.5290610000000  0.4316900000000 1.0
C      1  0.4625960000000  0.4397270000000  0.5168380000000 1.0
C      1  0.5373840000000  0.5141270000000  0.4958260000000 1.0
C      1  0.5157820000000  0.4935310000000  0.5676590000000 1.0
C      1  0.4883980000000  0.4369500000000  0.5282390000000 1.0
C      1  0.5780810000000  0.5032580000000  0.5138870000000 1.0
C      1  0.4739420000000  0.5552270000000  0.4647680000000 1.0
C      1  0.5134200000000  0.4597950000000  0.4434970000000 1.0
END
