TITL C-21839-6267-3 -0.809629339508842 125000 -186.917634482293 0 0 29 (C1) n - 1
REM
REM in /rds/project/t2_vol4/rds-t2-cs072/BORA/CARBON/from-Arr/AIRSS/Generating-Clusters/GAP-ML-2020/Only-C1/SD-CG/HFTN-CG
REM
REM
REM
REM
REM
REM ./C.cell (11c1c37f851c82e70ff6c80c92926a4b)
REM AIRSS Version 0.9.1 bugfix July 2018 build 013d7b7c2542+ Fri, 06 Jul 2018 19:26:36 +0100
REM compiler GCC version 9.3.0
REM options -cpp -mtune=generic -march=x86-64 -g -O0
REM seed 1911084290 -1574842300 -1105178837 -613474738 -439269912 1267523511 -260375081 -1117376762 -1981353966 451145619 1090318237 -1432847234 1110148029 -2014394308 -884354671 1518763943 -1920799177 -983334097 1968303889 -32089479 -243261486 1507345724 -1280017789 -55336079 2080333907 -965709204 2063346728 -766583445 2020746004 -33720676 547915246 431800599 452059374
REM
CELL 1.54180   50.00000   50.00000   50.00000   90.00000   90.00000   90.00000
LATT -1
SFAC C  
C      1  0.4664260000000  0.4820050000000  0.5133280000000 1.0
C      1  0.5456430000000  0.4958060000000  0.5356310000000 1.0
C      1  0.4948390000000  0.4747200000000  0.5060150000000 1.0
C      1  0.5531720000000  0.4742890000000  0.5160230000000 1.0
C      1  0.5089750000000  0.5094200000000  0.4322500000000 1.0
C      1  0.4914940000000  0.5470730000000  0.5108980000000 1.0
C      1  0.4854630000000  0.5043940000000  0.4444180000000 1.0
C      1  0.4522840000000  0.4905230000000  0.4900140000000 1.0
C      1  0.5087370000000  0.5490840000000  0.4899730000000 1.0
C      1  0.4974240000000  0.5065760000000  0.5424080000000 1.0
C      1  0.4621760000000  0.5183820000000  0.4834860000000 1.0
C      1  0.4815870000000  0.4775320000000  0.4570060000000 1.0
C      1  0.4620270000000  0.5253970000000  0.5324710000000 1.0
C      1  0.4659140000000  0.5346730000000  0.5057130000000 1.0
C      1  0.5446560000000  0.4887190000000  0.4929350000000 1.0
C      1  0.5078920000000  0.4560080000000  0.5215340000000 1.0
C      1  0.5356550000000  0.4536090000000  0.5254990000000 1.0
C      1  0.5017860000000  0.4757560000000  0.4767610000000 1.0
C      1  0.5256590000000  0.4896910000000  0.4724090000000 1.0
C      1  0.5212890000000  0.4915100000000  0.5501590000000 1.0
C      1  0.5340230000000  0.5069700000000  0.5124740000000 1.0
C      1  0.5056020000000  0.5004740000000  0.5151850000000 1.0
C      1  0.4899070000000  0.5348810000000  0.5383120000000 1.0
C      1  0.4714380000000  0.5237000000000  0.4584170000000 1.0
C      1  0.5202410000000  0.5386440000000  0.4700460000000 1.0
C      1  0.4567880000000  0.4745560000000  0.4679940000000 1.0
C      1  0.4680610000000  0.4981080000000  0.5366300000000 1.0
C      1  0.5178840000000  0.4637860000000  0.5465140000000 1.0
C      1  0.5229560000000  0.5137150000000  0.4554960000000 1.0
END
