TITL C-2114528-2131-23 351.786470893228 125000 -994.597792094757 0 0 142 (C1) n - 1
REM
REM in /nfs/bkarasulu/CARBON/AIRSS/Generating-Clusters/GAP-ML-2020/Only-C1/SD-CG/HFTN-CG
REM
REM
REM
REM
REM
REM ./C.cell (11c1c37f851c82e70ff6c80c92926a4b)
REM
REM compiler GCC version 9.2.1 20190827 (Red Hat 9.2.1-1)
REM options -cpp -mtune=generic -march=x86-64 -g -O0 -fpre-include=/usr/include/finclude/math-vector-fortran.h
REM seed 1930019698 -2008335958 986186517 1674925848 -1743296536 -1258710088 -1048093086 -338700291 1518603879 442065535 2116186976 -1999965842 1855241994 -1419088949 -1009586626 2110347383 1357978566 -155546806 1477330947 -355722470 647918925 2051957841 1768468330 1890638732 594917491 -1967875527 2071502727 62786177 2140711884 1226102213 618533884 -926037938 -436554279
REM
CELL 1.54180   50.00000   50.00000   50.00000   90.00000   90.00000   90.00000
LATT -1
SFAC C  
C      1  0.4055180000000  0.4999680000000  0.4154570000000 1.0
C      1  0.4381700000000  0.5506540000000  0.5447870000000 1.0
C      1  0.4147880000000  0.5188150000000  0.4324090000000 1.0
C      1  0.5909410000000  0.4948250000000  0.5601380000000 1.0
C      1  0.4382450000000  0.4765310000000  0.5608760000000 1.0
C      1  0.5922270000000  0.5098530000000  0.5107730000000 1.0
C      1  0.5233570000000  0.5277230000000  0.4381930000000 1.0
C      1  0.5737610000000  0.4372170000000  0.4936030000000 1.0
C      1  0.4735000000000  0.5280960000000  0.5083880000000 1.0
C      1  0.5727410000000  0.5325930000000  0.5062900000000 1.0
C      1  0.5258310000000  0.3992800000000  0.4854810000000 1.0
C      1  0.4034100000000  0.4497980000000  0.5219970000000 1.0
C      1  0.5220360000000  0.5801280000000  0.4450040000000 1.0
C      1  0.4965130000000  0.4783210000000  0.5128900000000 1.0
C      1  0.5123110000000  0.5056380000000  0.5995830000000 1.0
C      1  0.5464090000000  0.4652610000000  0.5208250000000 1.0
C      1  0.4669190000000  0.4974100000000  0.5948060000000 1.0
C      1  0.5404500000000  0.5837560000000  0.5149240000000 1.0
C      1  0.3922630000000  0.4760500000000  0.5158050000000 1.0
C      1  0.4575960000000  0.5167540000000  0.4879240000000 1.0
C      1  0.4892100000000  0.4539110000000  0.4704340000000 1.0
C      1  0.4612640000000  0.5672890000000  0.5411430000000 1.0
C      1  0.4242080000000  0.5104060000000  0.5746910000000 1.0
C      1  0.5124580000000  0.5178740000000  0.5700590000000 1.0
C      1  0.4122250000000  0.4955560000000  0.5250180000000 1.0
C      1  0.4308560000000  0.4519860000000  0.4236240000000 1.0
C      1  0.4423160000000  0.4877320000000  0.5868530000000 1.0
C      1  0.5737480000000  0.4990030000000  0.4670040000000 1.0
C      1  0.4265980000000  0.4894320000000  0.4722650000000 1.0
C      1  0.5189070000000  0.5933320000000  0.4702370000000 1.0
C      1  0.4955410000000  0.5021020000000  0.4031660000000 1.0
C      1  0.4818250000000  0.4670860000000  0.5379000000000 1.0
C      1  0.4723400000000  0.5188890000000  0.4610220000000 1.0
C      1  0.4982360000000  0.5698660000000  0.4321020000000 1.0
C      1  0.5010750000000  0.4347930000000  0.5159520000000 1.0
C      1  0.5862960000000  0.4883540000000  0.4932330000000 1.0
C      1  0.4876740000000  0.4607230000000  0.4214500000000 1.0
C      1  0.4185590000000  0.5432440000000  0.4718610000000 1.0
C      1  0.6003460000000  0.5107560000000  0.5373800000000 1.0
C      1  0.5203370000000  0.5052700000000  0.4593820000000 1.0
C      1  0.4154310000000  0.4931310000000  0.5542660000000 1.0
C      1  0.4662210000000  0.5271770000000  0.5844130000000 1.0
C      1  0.5038330000000  0.5042780000000  0.5273690000000 1.0
C      1  0.4603320000000  0.5053900000000  0.4346210000000 1.0
C      1  0.4842620000000  0.5275880000000  0.5607570000000 1.0
C      1  0.5361550000000  0.4081730000000  0.5118340000000 1.0
C      1  0.4517810000000  0.4883820000000  0.4907260000000 1.0
C      1  0.4986310000000  0.4178710000000  0.4470560000000 1.0
C      1  0.4759250000000  0.4382400000000  0.5344930000000 1.0
C      1  0.5469820000000  0.5241440000000  0.4205780000000 1.0
C      1  0.5599560000000  0.4525070000000  0.4218890000000 1.0
C      1  0.5886840000000  0.5346910000000  0.5503940000000 1.0
C      1  0.5196380000000  0.4955930000000  0.5498070000000 1.0
C      1  0.5290310000000  0.5455060000000  0.4606240000000 1.0
C      1  0.4991390000000  0.4340710000000  0.5795080000000 1.0
C      1  0.5418860000000  0.4975200000000  0.4790020000000 1.0
C      1  0.4114920000000  0.5173720000000  0.4833320000000 1.0
C      1  0.4592340000000  0.4858830000000  0.5391470000000 1.0
C      1  0.4387210000000  0.4413010000000  0.4714440000000 1.0
C      1  0.5054530000000  0.5451460000000  0.4200600000000 1.0
C      1  0.4205240000000  0.4766470000000  0.4225850000000 1.0
C      1  0.5358040000000  0.5603820000000  0.5551110000000 1.0
C      1  0.5074600000000  0.4624130000000  0.5844130000000 1.0
C      1  0.4853660000000  0.5452760000000  0.6010440000000 1.0
C      1  0.5196200000000  0.5275280000000  0.5163300000000 1.0
C      1  0.5637080000000  0.5409890000000  0.4352970000000 1.0
C      1  0.5255160000000  0.4285580000000  0.4433080000000 1.0
C      1  0.5471450000000  0.4988890000000  0.4080590000000 1.0
C      1  0.5456530000000  0.5133720000000  0.5088720000000 1.0
C      1  0.5650230000000  0.4805020000000  0.4196570000000 1.0
C      1  0.5786630000000  0.4794620000000  0.4455710000000 1.0
C      1  0.5198270000000  0.4617420000000  0.5073120000000 1.0
C      1  0.5705100000000  0.4308860000000  0.4658860000000 1.0
C      1  0.4759400000000  0.5128240000000  0.5352030000000 1.0
C      1  0.4107010000000  0.5216640000000  0.5114430000000 1.0
C      1  0.5419130000000  0.5862360000000  0.4869880000000 1.0
C      1  0.5759270000000  0.5501960000000  0.5304710000000 1.0
C      1  0.5123500000000  0.5561500000000  0.5365580000000 1.0
C      1  0.5203870000000  0.4879740000000  0.4020800000000 1.0
C      1  0.5050500000000  0.4708200000000  0.5560260000000 1.0
C      1  0.5029170000000  0.5289810000000  0.6143050000000 1.0
C      1  0.5351030000000  0.5376720000000  0.5762950000000 1.0
C      1  0.3962930000000  0.4574450000000  0.4951840000000 1.0
C      1  0.4497790000000  0.5792850000000  0.4929240000000 1.0
C      1  0.4608750000000  0.5307690000000  0.4167690000000 1.0
C      1  0.4969620000000  0.5635940000000  0.5827290000000 1.0
C      1  0.4395330000000  0.5338340000000  0.5698420000000 1.0
C      1  0.4272540000000  0.5609770000000  0.4942660000000 1.0
C      1  0.4923120000000  0.5957710000000  0.4812680000000 1.0
C      1  0.5699530000000  0.4783400000000  0.5534360000000 1.0
C      1  0.4785560000000  0.4422000000000  0.4430440000000 1.0
C      1  0.5556190000000  0.5187450000000  0.5861790000000 1.0
C      1  0.4866300000000  0.5566480000000  0.5546580000000 1.0
C      1  0.4333320000000  0.4962840000000  0.4437520000000 1.0
C      1  0.4307980000000  0.4517510000000  0.5252270000000 1.0
C      1  0.4507710000000  0.4340770000000  0.5192650000000 1.0
C      1  0.5139370000000  0.4612000000000  0.4105130000000 1.0
C      1  0.5134800000000  0.5820560000000  0.5223290000000 1.0
C      1  0.4954920000000  0.5051170000000  0.4733800000000 1.0
C      1  0.4925320000000  0.4850000000000  0.5979700000000 1.0
C      1  0.4907710000000  0.5920910000000  0.5096920000000 1.0
C      1  0.5001330000000  0.4082520000000  0.4739480000000 1.0
C      1  0.4772860000000  0.4867800000000  0.4177980000000 1.0
C      1  0.4678670000000  0.5852500000000  0.4703700000000 1.0
C      1  0.5450750000000  0.3882650000000  0.4676710000000 1.0
C      1  0.5752410000000  0.4505460000000  0.4467420000000 1.0
C      1  0.5049960000000  0.5501060000000  0.4765680000000 1.0
C      1  0.5742970000000  0.4643140000000  0.5033040000000 1.0
C      1  0.5079420000000  0.4149150000000  0.5601090000000 1.0
C      1  0.4818360000000  0.4241140000000  0.5603500000000 1.0
C      1  0.5003930000000  0.5295540000000  0.4950410000000 1.0
C      1  0.4175400000000  0.4608800000000  0.4767530000000 1.0
C      1  0.4484030000000  0.4421620000000  0.4444390000000 1.0
C      1  0.5558510000000  0.5695720000000  0.5356290000000 1.0
C      1  0.4555840000000  0.4295060000000  0.4920000000000 1.0
C      1  0.4873140000000  0.5295740000000  0.4059090000000 1.0
C      1  0.5806250000000  0.5191130000000  0.5735440000000 1.0
C      1  0.5484510000000  0.4135370000000  0.4575950000000 1.0
C      1  0.5222560000000  0.4218790000000  0.5341660000000 1.0
C      1  0.5479410000000  0.5649810000000  0.4468090000000 1.0
C      1  0.4650280000000  0.5825630000000  0.5172130000000 1.0
C      1  0.5385770000000  0.4681770000000  0.5857250000000 1.0
C      1  0.5559230000000  0.4563460000000  0.5642640000000 1.0
C      1  0.5407590000000  0.4953550000000  0.5947690000000 1.0
C      1  0.4813210000000  0.5473050000000  0.4604620000000 1.0
C      1  0.5594900000000  0.4235170000000  0.5145810000000 1.0
C      1  0.5336660000000  0.4428520000000  0.4197390000000 1.0
C      1  0.4393650000000  0.4803600000000  0.5175360000000 1.0
C      1  0.4245440000000  0.5440070000000  0.4432670000000 1.0
C      1  0.4490990000000  0.5528300000000  0.4307500000000 1.0
C      1  0.5760770000000  0.5284540000000  0.4585730000000 1.0
C      1  0.5744110000000  0.5461040000000  0.4802040000000 1.0
C      1  0.5177540000000  0.4547290000000  0.4638000000000 1.0
C      1  0.4218420000000  0.5470400000000  0.5196850000000 1.0
C      1  0.5472350000000  0.4917960000000  0.5345170000000 1.0
C      1  0.4822050000000  0.4797450000000  0.4860380000000 1.0
C      1  0.5316400000000  0.4692840000000  0.4822920000000 1.0
C      1  0.5592620000000  0.5694120000000  0.4724390000000 1.0
C      1  0.4704790000000  0.5697320000000  0.4444470000000 1.0
C      1  0.5245290000000  0.5639550000000  0.5816400000000 1.0
C      1  0.5480770000000  0.4405430000000  0.5385880000000 1.0
C      1  0.4859050000000  0.4280050000000  0.4892370000000 1.0
END
