TITL C-2109096-2936-25 -0.163241226373426 125000 -1143.0557480526 0 0 160 (C1) n - 1
REM
REM in /nfs/bkarasulu/CARBON/AIRSS/Generating-Clusters/GAP-ML-2020/Only-C1/SD-CG/HFTN-CG
REM
REM
REM
REM
REM
REM ./C.cell (11c1c37f851c82e70ff6c80c92926a4b)
REM
REM compiler GCC version 9.2.1 20190827 (Red Hat 9.2.1-1)
REM options -cpp -mtune=generic -march=x86-64 -g -O0 -fpre-include=/usr/include/finclude/math-vector-fortran.h
REM seed 372702598 1988550355 776572395 -107428601 1918604906 -660000614 1416801059 432710103 465988691 1844968952 -1532787802 -897259085 1297019809 -658377625 123147225 1578686546 857776431 746043526 -517806399 -214392164 -760174150 -1466255530 295409387 -1356028886 1432986556 -2082032159 -452909211 1241829624 -1631134305 201247612 178194572 1013518370 -1250673891
REM
CELL 1.54180   50.00000   50.00000   50.00000   90.00000   90.00000   90.00000
LATT -1
SFAC C  
C      1  0.4832150000000  0.4839700000000  0.5094290000000 1.0
C      1  0.5549450000000  0.5605700000000  0.5372650000000 1.0
C      1  0.5040510000000  0.5223880000000  0.5590590000000 1.0
C      1  0.3990700000000  0.4750080000000  0.5010860000000 1.0
C      1  0.5798530000000  0.4512020000000  0.5580080000000 1.0
C      1  0.4930870000000  0.6136510000000  0.4931560000000 1.0
C      1  0.5438560000000  0.5473760000000  0.4674110000000 1.0
C      1  0.5401940000000  0.5752830000000  0.4519090000000 1.0
C      1  0.4007270000000  0.4845740000000  0.5291730000000 1.0
C      1  0.4531830000000  0.4354580000000  0.4362160000000 1.0
C      1  0.4592130000000  0.5477050000000  0.6150900000000 1.0
C      1  0.5783300000000  0.4917480000000  0.4379150000000 1.0
C      1  0.4717280000000  0.5190330000000  0.3981100000000 1.0
C      1  0.5149840000000  0.5787710000000  0.4358340000000 1.0
C      1  0.4789990000000  0.4935060000000  0.6030350000000 1.0
C      1  0.5027850000000  0.4730920000000  0.4085770000000 1.0
C      1  0.4754610000000  0.5223560000000  0.5506550000000 1.0
C      1  0.5490140000000  0.4043440000000  0.4972220000000 1.0
C      1  0.4644230000000  0.4031220000000  0.5422280000000 1.0
C      1  0.4537620000000  0.4612280000000  0.4234200000000 1.0
C      1  0.4848240000000  0.5796340000000  0.5549500000000 1.0
C      1  0.4614860000000  0.5277170000000  0.4256010000000 1.0
C      1  0.3996360000000  0.5341020000000  0.4835700000000 1.0
C      1  0.5470660000000  0.5331100000000  0.5818610000000 1.0
C      1  0.5049740000000  0.4159930000000  0.4391060000000 1.0
C      1  0.4554840000000  0.4615040000000  0.4812400000000 1.0
C      1  0.5075110000000  0.3959980000000  0.5259590000000 1.0
C      1  0.4786450000000  0.5312280000000  0.5208520000000 1.0
C      1  0.5105450000000  0.4763750000000  0.5435360000000 1.0
C      1  0.5275360000000  0.4309360000000  0.5657380000000 1.0
C      1  0.4506210000000  0.5385930000000  0.5634530000000 1.0
C      1  0.4372620000000  0.5030510000000  0.5104770000000 1.0
C      1  0.5714570000000  0.5338500000000  0.5661770000000 1.0
C      1  0.5035950000000  0.5373900000000  0.6035870000000 1.0
C      1  0.5448310000000  0.5426760000000  0.5162380000000 1.0
C      1  0.4822510000000  0.5078700000000  0.4691080000000 1.0
C      1  0.5344660000000  0.4037730000000  0.5229650000000 1.0
C      1  0.5187750000000  0.4679530000000  0.5970940000000 1.0
C      1  0.5020110000000  0.5095490000000  0.6079530000000 1.0
C      1  0.5826570000000  0.4348100000000  0.5134610000000 1.0
C      1  0.4683510000000  0.4005890000000  0.4622590000000 1.0
C      1  0.4912770000000  0.3923080000000  0.4770200000000 1.0
C      1  0.4878030000000  0.5592340000000  0.4825640000000 1.0
C      1  0.4288170000000  0.5186540000000  0.5553680000000 1.0
C      1  0.5211150000000  0.5552040000000  0.4184180000000 1.0
C      1  0.5792060000000  0.5484560000000  0.5431610000000 1.0
C      1  0.6039420000000  0.5340890000000  0.4499490000000 1.0
C      1  0.4649660000000  0.6074420000000  0.4937500000000 1.0
C      1  0.5694390000000  0.4662500000000  0.4313750000000 1.0
C      1  0.4788520000000  0.4471520000000  0.5724060000000 1.0
C      1  0.5492610000000  0.4688520000000  0.4116230000000 1.0
C      1  0.4608210000000  0.5248210000000  0.4775430000000 1.0
C      1  0.4197040000000  0.4905250000000  0.4863720000000 1.0
C      1  0.5258600000000  0.4530830000000  0.4121050000000 1.0
C      1  0.4395440000000  0.5699130000000  0.4788960000000 1.0
C      1  0.5449000000000  0.4200310000000  0.5441840000000 1.0
C      1  0.4575920000000  0.5661530000000  0.5525730000000 1.0
C      1  0.4564020000000  0.4829310000000  0.5222100000000 1.0
C      1  0.4796560000000  0.4775610000000  0.4801540000000 1.0
C      1  0.5593240000000  0.5130990000000  0.4275660000000 1.0
C      1  0.4151870000000  0.5134560000000  0.5293320000000 1.0
C      1  0.5274830000000  0.4317470000000  0.4306140000000 1.0
C      1  0.5618150000000  0.5446830000000  0.4911780000000 1.0
C      1  0.4371870000000  0.5092300000000  0.4325870000000 1.0
C      1  0.5253180000000  0.4944410000000  0.6040320000000 1.0
C      1  0.5871840000000  0.5329440000000  0.4949960000000 1.0
C      1  0.4669460000000  0.5874530000000  0.4468830000000 1.0
C      1  0.4886350000000  0.3891620000000  0.5050120000000 1.0
C      1  0.5984530000000  0.5182140000000  0.4721780000000 1.0
C      1  0.6035880000000  0.4633620000000  0.5500970000000 1.0
C      1  0.5439920000000  0.4933260000000  0.4992500000000 1.0
C      1  0.5034470000000  0.4610890000000  0.4735980000000 1.0
C      1  0.4909160000000  0.5571900000000  0.5114060000000 1.0
C      1  0.5877100000000  0.4647500000000  0.4747320000000 1.0
C      1  0.5016210000000  0.4881030000000  0.4341190000000 1.0
C      1  0.5722910000000  0.4175840000000  0.4959070000000 1.0
C      1  0.4587060000000  0.5986590000000  0.5203990000000 1.0
C      1  0.4303170000000  0.4662540000000  0.5661650000000 1.0
C      1  0.3932350000000  0.4541930000000  0.4832880000000 1.0
C      1  0.4513650000000  0.5320510000000  0.5930260000000 1.0
C      1  0.4276100000000  0.5630480000000  0.4525670000000 1.0
C      1  0.5036550000000  0.6100080000000  0.5198460000000 1.0
C      1  0.5917920000000  0.5299940000000  0.5235360000000 1.0
C      1  0.5171830000000  0.5054350000000  0.5378150000000 1.0
C      1  0.4485040000000  0.4566650000000  0.5090880000000 1.0
C      1  0.4919350000000  0.4053740000000  0.5485250000000 1.0
C      1  0.4887260000000  0.5141680000000  0.4400110000000 1.0
C      1  0.5672210000000  0.4908320000000  0.5804370000000 1.0
C      1  0.5409040000000  0.5114590000000  0.5222140000000 1.0
C      1  0.5078510000000  0.6073350000000  0.4694910000000 1.0
C      1  0.4756420000000  0.4171330000000  0.4403260000000 1.0
C      1  0.4091170000000  0.4683740000000  0.5490760000000 1.0
C      1  0.4136970000000  0.4476930000000  0.4656790000000 1.0
C      1  0.4433030000000  0.4081140000000  0.4728920000000 1.0
C      1  0.4397460000000  0.4811440000000  0.4378050000000 1.0
C      1  0.5982680000000  0.5453680000000  0.4278400000000 1.0
C      1  0.5914080000000  0.4911120000000  0.4630080000000 1.0
C      1  0.4317270000000  0.4276230000000  0.4551140000000 1.0
C      1  0.4944180000000  0.5946430000000  0.4460900000000 1.0
C      1  0.5390750000000  0.5219380000000  0.4508950000000 1.0
C      1  0.4084660000000  0.5445490000000  0.4569790000000 1.0
C      1  0.4995780000000  0.4260000000000  0.5657760000000 1.0
C      1  0.5178220000000  0.5439330000000  0.5771580000000 1.0
C      1  0.5706980000000  0.5419660000000  0.4223230000000 1.0
C      1  0.4542540000000  0.5042600000000  0.5940350000000 1.0
C      1  0.4414980000000  0.4941350000000  0.5691240000000 1.0
C      1  0.4432900000000  0.4085390000000  0.5012660000000 1.0
C      1  0.6002960000000  0.4777170000000  0.5259600000000 1.0
C      1  0.4637630000000  0.4938860000000  0.3925950000000 1.0
C      1  0.4468440000000  0.4246010000000  0.5461750000000 1.0
C      1  0.5700260000000  0.4325100000000  0.5396200000000 1.0
C      1  0.5371560000000  0.4519940000000  0.5827070000000 1.0
C      1  0.4446600000000  0.5751810000000  0.5283010000000 1.0
C      1  0.4092250000000  0.5386670000000  0.5097480000000 1.0
C      1  0.4037920000000  0.5087670000000  0.4707420000000 1.0
C      1  0.5162740000000  0.4977810000000  0.3979500000000 1.0
C      1  0.4138540000000  0.5187180000000  0.4457780000000 1.0
C      1  0.4641800000000  0.5511260000000  0.4685990000000 1.0
C      1  0.5511880000000  0.5614830000000  0.4259100000000 1.0
C      1  0.5399540000000  0.4081420000000  0.4698660000000 1.0
C      1  0.4844600000000  0.5510950000000  0.6193530000000 1.0
C      1  0.4530040000000  0.5280390000000  0.5047490000000 1.0
C      1  0.4623970000000  0.3934410000000  0.5151620000000 1.0
C      1  0.4825630000000  0.6009590000000  0.5364390000000 1.0
C      1  0.5365330000000  0.5859470000000  0.4998290000000 1.0
C      1  0.5343990000000  0.5799550000000  0.5461270000000 1.0
C      1  0.4872310000000  0.4740450000000  0.5608020000000 1.0
C      1  0.4557440000000  0.5588330000000  0.4397510000000 1.0
C      1  0.5218430000000  0.5579080000000  0.5066750000000 1.0
C      1  0.5303560000000  0.5010050000000  0.4719830000000 1.0
C      1  0.4498860000000  0.4439970000000  0.5661400000000 1.0
C      1  0.5124230000000  0.5708730000000  0.5627290000000 1.0
C      1  0.5009010000000  0.4627090000000  0.5201670000000 1.0
C      1  0.5439370000000  0.4963060000000  0.4068480000000 1.0
C      1  0.4322070000000  0.4717570000000  0.4655590000000 1.0
C      1  0.5934500000000  0.4596180000000  0.5028300000000 1.0
C      1  0.4903830000000  0.4692500000000  0.5909630000000 1.0
C      1  0.5408570000000  0.4661570000000  0.5041010000000 1.0
C      1  0.4335710000000  0.5565290000000  0.5074610000000 1.0
C      1  0.5955650000000  0.5047230000000  0.5368960000000 1.0
C      1  0.5001670000000  0.5211350000000  0.3908440000000 1.0
C      1  0.5141910000000  0.5450480000000  0.4804560000000 1.0
C      1  0.4728880000000  0.4703310000000  0.4029320000000 1.0
C      1  0.4533290000000  0.5945280000000  0.4717840000000 1.0
C      1  0.5172820000000  0.4530120000000  0.4985120000000 1.0
C      1  0.5177800000000  0.4788690000000  0.4566490000000 1.0
C      1  0.5477790000000  0.5070020000000  0.5931710000000 1.0
C      1  0.5494870000000  0.4286270000000  0.4516050000000 1.0
C      1  0.4976010000000  0.5100970000000  0.5125740000000 1.0
C      1  0.5137400000000  0.4009850000000  0.4618080000000 1.0
C      1  0.4389320000000  0.4318760000000  0.5189110000000 1.0
C      1  0.5141630000000  0.5312290000000  0.4371580000000 1.0
C      1  0.5119550000000  0.5454270000000  0.3933270000000 1.0
C      1  0.5828800000000  0.5077340000000  0.5633200000000 1.0
C      1  0.5071460000000  0.5166900000000  0.4840110000000 1.0
C      1  0.5709160000000  0.4486500000000  0.4542190000000 1.0
C      1  0.4656310000000  0.4925300000000  0.5505310000000 1.0
C      1  0.5287890000000  0.5983160000000  0.5243190000000 1.0
C      1  0.5337500000000  0.5952570000000  0.4735740000000 1.0
C      1  0.5625420000000  0.4633640000000  0.5768520000000 1.0
END
