TITL C-2114520-3314-24 526.352572832738 125000 -1382.03479440596 0 0 196 (C1) n - 1
REM
REM in /nfs/bkarasulu/CARBON/AIRSS/Generating-Clusters/GAP-ML-2020/Only-C1/SD-CG/HFTN-CG
REM
REM
REM
REM
REM
REM ./C.cell (11c1c37f851c82e70ff6c80c92926a4b)
REM
REM compiler GCC version 9.2.1 20190827 (Red Hat 9.2.1-1)
REM options -cpp -mtune=generic -march=x86-64 -g -O0 -fpre-include=/usr/include/finclude/math-vector-fortran.h
REM seed -549899566 916412927 -232776759 -1054660670 -228769160 -1233675476 -1165538615 785798385 872705318 -443834116 929658010 -191338437 -615342676 -61408179 445981435 -845967161 971859373 -1148080154 -524392946 74403280 1836750166 -738582888 560955759 -987642693 -70342103 274401665 1941161936 -84319192 1318938324 98556320 1859531626 -1732059655 966670220
REM
CELL 1.54180   50.00000   50.00000   50.00000   90.00000   90.00000   90.00000
LATT -1
SFAC C  
C      1  0.4476920000000  0.4714790000000  0.4618300000000 1.0
C      1  0.4994260000000  0.4692850000000  0.4040100000000 1.0
C      1  0.4080250000000  0.5225370000000  0.4735870000000 1.0
C      1  0.3929090000000  0.4826030000000  0.4968220000000 1.0
C      1  0.4234500000000  0.5539500000000  0.5686470000000 1.0
C      1  0.4740880000000  0.6131770000000  0.5088990000000 1.0
C      1  0.4747370000000  0.5321150000000  0.5087910000000 1.0
C      1  0.5394240000000  0.5365940000000  0.4913660000000 1.0
C      1  0.5155280000000  0.6237880000000  0.4920350000000 1.0
C      1  0.4649360000000  0.5712500000000  0.4752400000000 1.0
C      1  0.4568030000000  0.4426610000000  0.4723640000000 1.0
C      1  0.4670890000000  0.5253540000000  0.5552710000000 1.0
C      1  0.4729430000000  0.3954170000000  0.4626150000000 1.0
C      1  0.4544140000000  0.5408990000000  0.3943530000000 1.0
C      1  0.5451160000000  0.5149680000000  0.5398480000000 1.0
C      1  0.5024980000000  0.4992570000000  0.4762190000000 1.0
C      1  0.5847910000000  0.5496320000000  0.5564770000000 1.0
C      1  0.5483690000000  0.4737220000000  0.5237860000000 1.0
C      1  0.5631010000000  0.4951970000000  0.5324250000000 1.0
C      1  0.4994920000000  0.6132150000000  0.4694770000000 1.0
C      1  0.4524760000000  0.5972410000000  0.4672120000000 1.0
C      1  0.4392580000000  0.5278230000000  0.4679940000000 1.0
C      1  0.5598620000000  0.5850420000000  0.4562140000000 1.0
C      1  0.5838780000000  0.4781400000000  0.4815110000000 1.0
C      1  0.5317660000000  0.5329080000000  0.5197750000000 1.0
C      1  0.4439690000000  0.4254150000000  0.5463320000000 1.0
C      1  0.5794060000000  0.4341910000000  0.5395560000000 1.0
C      1  0.5920980000000  0.5057960000000  0.5659070000000 1.0
C      1  0.5065020000000  0.4190490000000  0.4673190000000 1.0
C      1  0.4710050000000  0.4512940000000  0.5665750000000 1.0
C      1  0.4843000000000  0.3997730000000  0.5394660000000 1.0
C      1  0.5074280000000  0.5655980000000  0.5516870000000 1.0
C      1  0.5387370000000  0.3898080000000  0.5214650000000 1.0
C      1  0.5139140000000  0.4844900000000  0.4558250000000 1.0
C      1  0.4154970000000  0.4768720000000  0.4561650000000 1.0
C      1  0.5034540000000  0.5181960000000  0.5196960000000 1.0
C      1  0.4796910000000  0.5457700000000  0.4062350000000 1.0
C      1  0.5225070000000  0.4268170000000  0.4119880000000 1.0
C      1  0.4134660000000  0.5351300000000  0.4220870000000 1.0
C      1  0.5319960000000  0.3867750000000  0.4946040000000 1.0
C      1  0.4922590000000  0.4464460000000  0.5058270000000 1.0
C      1  0.4406750000000  0.4971860000000  0.3970600000000 1.0
C      1  0.4127340000000  0.4816690000000  0.4288120000000 1.0
C      1  0.4776250000000  0.4468170000000  0.5960190000000 1.0
C      1  0.5151890000000  0.4170460000000  0.5830610000000 1.0
C      1  0.4677240000000  0.3988470000000  0.5158450000000 1.0
C      1  0.4554750000000  0.5391940000000  0.6015700000000 1.0
C      1  0.4265220000000  0.4494090000000  0.5536050000000 1.0
C      1  0.5697670000000  0.5446260000000  0.5802650000000 1.0
C      1  0.5597910000000  0.4518360000000  0.5887030000000 1.0
C      1  0.4648980000000  0.4798020000000  0.4368880000000 1.0
C      1  0.4434590000000  0.4610690000000  0.5725100000000 1.0
C      1  0.4990550000000  0.4012850000000  0.4447700000000 1.0
C      1  0.4251930000000  0.4329120000000  0.4259700000000 1.0
C      1  0.5526500000000  0.5499720000000  0.4064860000000 1.0
C      1  0.5081140000000  0.5921990000000  0.4513930000000 1.0
C      1  0.5765030000000  0.5685940000000  0.5386620000000 1.0
C      1  0.5223070000000  0.4607560000000  0.5883170000000 1.0
C      1  0.4232980000000  0.5068250000000  0.4194430000000 1.0
C      1  0.4542910000000  0.5162180000000  0.3844340000000 1.0
C      1  0.4453610000000  0.5730540000000  0.4246670000000 1.0
C      1  0.5348720000000  0.4760750000000  0.4998790000000 1.0
C      1  0.5655510000000  0.4092560000000  0.4764900000000 1.0
C      1  0.5026790000000  0.5436760000000  0.4583840000000 1.0
C      1  0.4731400000000  0.5657260000000  0.4253000000000 1.0
C      1  0.5265810000000  0.5025410000000  0.5579440000000 1.0
C      1  0.5274720000000  0.4685990000000  0.6157310000000 1.0
C      1  0.5501130000000  0.5823380000000  0.5305970000000 1.0
C      1  0.4865380000000  0.5881710000000  0.5500440000000 1.0
C      1  0.4520130000000  0.4161120000000  0.4541320000000 1.0
C      1  0.5037260000000  0.4811480000000  0.6235340000000 1.0
C      1  0.5130090000000  0.3908700000000  0.5396460000000 1.0
C      1  0.4417100000000  0.4861660000000  0.5847700000000 1.0
C      1  0.5085320000000  0.4981520000000  0.4001750000000 1.0
C      1  0.5071990000000  0.5675690000000  0.5015300000000 1.0
C      1  0.5080270000000  0.6088050000000  0.5425250000000 1.0
C      1  0.6002980000000  0.4935870000000  0.5055610000000 1.0
C      1  0.5699460000000  0.5206010000000  0.4279250000000 1.0
C      1  0.5592340000000  0.6003230000000  0.4809070000000 1.0
C      1  0.5307070000000  0.3956490000000  0.4456210000000 1.0
C      1  0.4782060000000  0.5640230000000  0.5027970000000 1.0
C      1  0.4702430000000  0.4937900000000  0.5927330000000 1.0
C      1  0.4514730000000  0.4216250000000  0.4246980000000 1.0
C      1  0.4054560000000  0.4275660000000  0.4744460000000 1.0
C      1  0.4094440000000  0.4680920000000  0.5399360000000 1.0
C      1  0.5345790000000  0.5988710000000  0.5507330000000 1.0
C      1  0.4961320000000  0.5431970000000  0.5918110000000 1.0
C      1  0.4794040000000  0.4976270000000  0.5620740000000 1.0
C      1  0.4376440000000  0.5569450000000  0.4761080000000 1.0
C      1  0.5314580000000  0.5197830000000  0.6123720000000 1.0
C      1  0.5083970000000  0.4040490000000  0.4925510000000 1.0
C      1  0.4675120000000  0.5876560000000  0.5247660000000 1.0
C      1  0.4889350000000  0.4711210000000  0.5505540000000 1.0
C      1  0.5191600000000  0.5525470000000  0.4810060000000 1.0
C      1  0.4402860000000  0.5832220000000  0.5366240000000 1.0
C      1  0.4962640000000  0.5213880000000  0.4161610000000 1.0
C      1  0.5245440000000  0.4535840000000  0.4026710000000 1.0
C      1  0.5371490000000  0.4982520000000  0.3984530000000 1.0
C      1  0.4721520000000  0.5616800000000  0.5942260000000 1.0
C      1  0.5542290000000  0.4901190000000  0.4804090000000 1.0
C      1  0.5674320000000  0.5890050000000  0.5056390000000 1.0
C      1  0.4851370000000  0.4705760000000  0.5195820000000 1.0
C      1  0.5859480000000  0.4807680000000  0.5516920000000 1.0
C      1  0.5723810000000  0.5503070000000  0.4272870000000 1.0
C      1  0.5554790000000  0.4395480000000  0.4457290000000 1.0
C      1  0.5295750000000  0.5764020000000  0.5685590000000 1.0
C      1  0.4501680000000  0.4707370000000  0.4059720000000 1.0
C      1  0.4548750000000  0.4745700000000  0.5111270000000 1.0
C      1  0.5418340000000  0.4871770000000  0.4515350000000 1.0
C      1  0.5333060000000  0.5587490000000  0.4249560000000 1.0
C      1  0.4315420000000  0.5322060000000  0.5855760000000 1.0
C      1  0.5562820000000  0.5043700000000  0.6054460000000 1.0
C      1  0.5600120000000  0.4676180000000  0.4353520000000 1.0
C      1  0.4042880000000  0.5435300000000  0.4485640000000 1.0
C      1  0.4544120000000  0.4880600000000  0.4857080000000 1.0
C      1  0.4170080000000  0.4988330000000  0.5443270000000 1.0
C      1  0.5275750000000  0.4409290000000  0.4638950000000 1.0
C      1  0.4707560000000  0.4184060000000  0.5594350000000 1.0
C      1  0.4970520000000  0.4158610000000  0.4186210000000 1.0
C      1  0.5752260000000  0.5175920000000  0.5877620000000 1.0
C      1  0.4801330000000  0.3933000000000  0.4910480000000 1.0
C      1  0.4192610000000  0.5688650000000  0.5251310000000 1.0
C      1  0.4571810000000  0.5223360000000  0.5292930000000 1.0
C      1  0.5706170000000  0.4547250000000  0.5604800000000 1.0
C      1  0.5152880000000  0.4310700000000  0.5106480000000 1.0
C      1  0.5603010000000  0.4298870000000  0.4980840000000 1.0
C      1  0.4463540000000  0.5207770000000  0.4397180000000 1.0
C      1  0.5461610000000  0.4716320000000  0.4079630000000 1.0
C      1  0.5942630000000  0.4478190000000  0.5184620000000 1.0
C      1  0.4998770000000  0.6217020000000  0.5177230000000 1.0
C      1  0.5523950000000  0.5192350000000  0.4746450000000 1.0
C      1  0.4873070000000  0.5690300000000  0.4512790000000 1.0
C      1  0.4808440000000  0.4712840000000  0.6088680000000 1.0
C      1  0.5776160000000  0.4311290000000  0.4637500000000 1.0
C      1  0.5418900000000  0.4170720000000  0.4297510000000 1.0
C      1  0.5463020000000  0.3907330000000  0.4697710000000 1.0
C      1  0.5193030000000  0.5341760000000  0.4352590000000 1.0
C      1  0.4250560000000  0.4589600000000  0.4154920000000 1.0
C      1  0.4728830000000  0.5093260000000  0.4374370000000 1.0
C      1  0.5024340000000  0.5152680000000  0.5502720000000 1.0
C      1  0.5340920000000  0.5825800000000  0.4419370000000 1.0
C      1  0.5441300000000  0.5583030000000  0.5848710000000 1.0
C      1  0.5397660000000  0.4574390000000  0.5453080000000 1.0
C      1  0.5041800000000  0.4585400000000  0.4570590000000 1.0
C      1  0.5578140000000  0.4182960000000  0.5259000000000 1.0
C      1  0.5860450000000  0.4804460000000  0.4497110000000 1.0
C      1  0.4905590000000  0.4668620000000  0.4337560000000 1.0
C      1  0.6005050000000  0.5218970000000  0.5156590000000 1.0
C      1  0.4866540000000  0.4214160000000  0.5860970000000 1.0
C      1  0.5220350000000  0.4108360000000  0.5569410000000 1.0
C      1  0.5984230000000  0.5462800000000  0.4991110000000 1.0
C      1  0.5966760000000  0.5465560000000  0.4695060000000 1.0
C      1  0.4428260000000  0.4425460000000  0.5006580000000 1.0
C      1  0.3999530000000  0.4626430000000  0.5133750000000 1.0
C      1  0.4192520000000  0.5579110000000  0.4991850000000 1.0
C      1  0.5540040000000  0.4753570000000  0.6072480000000 1.0
C      1  0.4201470000000  0.4214110000000  0.4529220000000 1.0
C      1  0.6043660000000  0.5229500000000  0.4585100000000 1.0
C      1  0.5320900000000  0.4301390000000  0.5372910000000 1.0
C      1  0.4669560000000  0.5809430000000  0.5743400000000 1.0
C      1  0.5843690000000  0.4481870000000  0.4896240000000 1.0
C      1  0.5251840000000  0.5441510000000  0.6001360000000 1.0
C      1  0.4802430000000  0.5198380000000  0.6055130000000 1.0
C      1  0.4422980000000  0.4975070000000  0.5266500000000 1.0
C      1  0.4734770000000  0.4549670000000  0.3968280000000 1.0
C      1  0.4410460000000  0.5764320000000  0.5641070000000 1.0
C      1  0.5976970000000  0.5261570000000  0.5458070000000 1.0
C      1  0.5871530000000  0.5689320000000  0.5124530000000 1.0
C      1  0.4947570000000  0.5408360000000  0.5617900000000 1.0
C      1  0.4476320000000  0.4191770000000  0.5193970000000 1.0
C      1  0.5237690000000  0.5623680000000  0.5260500000000 1.0
C      1  0.4338140000000  0.5877390000000  0.4465880000000 1.0
C      1  0.4094720000000  0.5491950000000  0.5441110000000 1.0
C      1  0.5447300000000  0.5167240000000  0.4457830000000 1.0
C      1  0.4863690000000  0.4437040000000  0.4767220000000 1.0
C      1  0.4716250000000  0.6131040000000  0.4795800000000 1.0
C      1  0.4733890000000  0.4285290000000  0.4086920000000 1.0
C      1  0.6013720000000  0.4739310000000  0.5268210000000 1.0
C      1  0.5351310000000  0.4357540000000  0.5916700000000 1.0
C      1  0.5924350000000  0.5060360000000  0.4409140000000 1.0
C      1  0.5193150000000  0.4733020000000  0.5604480000000 1.0
C      1  0.5340860000000  0.4456900000000  0.4923310000000 1.0
C      1  0.5537810000000  0.5206640000000  0.4019650000000 1.0
C      1  0.5060160000000  0.4916030000000  0.5044410000000 1.0
C      1  0.5054000000000  0.5087680000000  0.6195710000000 1.0
C      1  0.4058890000000  0.5335550000000  0.5012510000000 1.0
C      1  0.4128830000000  0.4425390000000  0.4967940000000 1.0
C      1  0.4322000000000  0.5531920000000  0.4086620000000 1.0
C      1  0.4043660000000  0.5247020000000  0.5301710000000 1.0
C      1  0.4626760000000  0.5171340000000  0.4836550000000 1.0
C      1  0.4170390000000  0.5673950000000  0.4574270000000 1.0
C      1  0.4847670000000  0.5184810000000  0.4643280000000 1.0
C      1  0.5414080000000  0.6196930000000  0.4877330000000 1.0
C      1  0.4253250000000  0.5057540000000  0.5741390000000 1.0
C      1  0.5790630000000  0.5637970000000  0.4510320000000 1.0
C      1  0.4006590000000  0.4940500000000  0.4737820000000 1.0
END
