TITL C-21711-8307-4 -66.138631396953 125000 -990.912946663865 0 0 140 (C1) n - 1
REM
REM in /rds/project/t2_vol4/rds-t2-cs072/BORA/CARBON/from-Arr/AIRSS/Generating-Clusters/GAP-ML-2020/Only-C1/SD-CG/HFTN-CG
REM
REM
REM
REM
REM
REM ./C.cell (11c1c37f851c82e70ff6c80c92926a4b)
REM AIRSS Version 0.9.1 bugfix July 2018 build 013d7b7c2542+ Fri, 06 Jul 2018 19:26:36 +0100
REM compiler GCC version 9.3.0
REM options -cpp -mtune=generic -march=x86-64 -g -O0
REM seed -1390178751 -2040816958 658384092 -447842137 -1814464743 -99740602 783635434 -1609835647 117175177 591357294 1460337605 622143975 -578913659 -181805834 -484067683 -1548502440 1575982353 -1105945127 -1302594261 -894667524 -1949485512 -294789441 547962316 -1251186451 515026174 608240320 1087945466 784155009 1165616138 943772307 -1022453214 1815662676 1076992686
REM
CELL 1.54180   50.00000   50.00000   50.00000   90.00000   90.00000   90.00000
LATT -1
SFAC C  
C      1  0.5591320000000  0.5265920000000  0.5649330000000 1.0
C      1  0.4161120000000  0.4934140000000  0.5570600000000 1.0
C      1  0.5466430000000  0.4619960000000  0.4207490000000 1.0
C      1  0.5330170000000  0.4136190000000  0.5483040000000 1.0
C      1  0.4895540000000  0.4643570000000  0.4855860000000 1.0
C      1  0.5132160000000  0.4631740000000  0.4687610000000 1.0
C      1  0.5173360000000  0.5055680000000  0.5471100000000 1.0
C      1  0.4380420000000  0.4554360000000  0.5200760000000 1.0
C      1  0.5422010000000  0.5675000000000  0.5396160000000 1.0
C      1  0.4438940000000  0.4367870000000  0.5428020000000 1.0
C      1  0.5554310000000  0.4268340000000  0.4512290000000 1.0
C      1  0.5044210000000  0.4856710000000  0.5970470000000 1.0
C      1  0.5384380000000  0.4067950000000  0.4913740000000 1.0
C      1  0.4550110000000  0.5823940000000  0.5104610000000 1.0
C      1  0.5809170000000  0.5024350000000  0.5241580000000 1.0
C      1  0.5457920000000  0.5130070000000  0.4838970000000 1.0
C      1  0.5849530000000  0.4610280000000  0.4912350000000 1.0
C      1  0.4792250000000  0.6000910000000  0.5142410000000 1.0
C      1  0.5630060000000  0.5585380000000  0.4679060000000 1.0
C      1  0.4905610000000  0.5211580000000  0.4000080000000 1.0
C      1  0.4089390000000  0.4858360000000  0.4704820000000 1.0
C      1  0.5233920000000  0.5600640000000  0.4264310000000 1.0
C      1  0.5382490000000  0.5337060000000  0.4311860000000 1.0
C      1  0.4467300000000  0.4609920000000  0.4322940000000 1.0
C      1  0.4926600000000  0.5138270000000  0.5975340000000 1.0
C      1  0.5636380000000  0.4520140000000  0.4418310000000 1.0
C      1  0.5907500000000  0.5333300000000  0.4911930000000 1.0
C      1  0.4282280000000  0.4851100000000  0.4471830000000 1.0
C      1  0.4945160000000  0.5699600000000  0.4282060000000 1.0
C      1  0.5032310000000  0.5890150000000  0.4484860000000 1.0
C      1  0.5096500000000  0.4187080000000  0.5655000000000 1.0
C      1  0.4858210000000  0.5872640000000  0.5392820000000 1.0
C      1  0.5528140000000  0.4893690000000  0.4161610000000 1.0
C      1  0.5478870000000  0.5822140000000  0.4658690000000 1.0
C      1  0.5674660000000  0.5314610000000  0.4274450000000 1.0
C      1  0.4638740000000  0.5400720000000  0.4735690000000 1.0
C      1  0.5742680000000  0.4358130000000  0.5446240000000 1.0
C      1  0.5545690000000  0.5709570000000  0.5130950000000 1.0
C      1  0.5365580000000  0.5851550000000  0.4941600000000 1.0
C      1  0.4896270000000  0.4090800000000  0.4682050000000 1.0
C      1  0.4256340000000  0.5414620000000  0.5496430000000 1.0
C      1  0.5059560000000  0.4996600000000  0.4043950000000 1.0
C      1  0.4111860000000  0.4679730000000  0.5164580000000 1.0
C      1  0.4940430000000  0.4456460000000  0.5096550000000 1.0
C      1  0.5752200000000  0.5038250000000  0.4258100000000 1.0
C      1  0.4714810000000  0.4428790000000  0.5800500000000 1.0
C      1  0.4577690000000  0.5786660000000  0.5405490000000 1.0
C      1  0.4377680000000  0.4486860000000  0.4903440000000 1.0
C      1  0.5293220000000  0.5057940000000  0.4216630000000 1.0
C      1  0.5832050000000  0.4621010000000  0.5433950000000 1.0
C      1  0.5745460000000  0.5055070000000  0.5526420000000 1.0
C      1  0.5180390000000  0.4055860000000  0.4707640000000 1.0
C      1  0.5870490000000  0.4748390000000  0.5176140000000 1.0
C      1  0.4839000000000  0.4245980000000  0.4446990000000 1.0
C      1  0.5428970000000  0.4102140000000  0.5202150000000 1.0
C      1  0.4299530000000  0.4729540000000  0.5727610000000 1.0
C      1  0.5139780000000  0.5466350000000  0.4728120000000 1.0
C      1  0.5085880000000  0.5664830000000  0.5442600000000 1.0
C      1  0.4480070000000  0.5565260000000  0.4503410000000 1.0
C      1  0.5808090000000  0.5440040000000  0.4490670000000 1.0
C      1  0.4255630000000  0.5358370000000  0.4489710000000 1.0
C      1  0.5112600000000  0.5322400000000  0.5849430000000 1.0
C      1  0.5613540000000  0.4187930000000  0.4775910000000 1.0
C      1  0.4700850000000  0.4754160000000  0.4218890000000 1.0
C      1  0.4682390000000  0.5051030000000  0.5041680000000 1.0
C      1  0.4431630000000  0.5135860000000  0.5886880000000 1.0
C      1  0.4035420000000  0.5105970000000  0.4847270000000 1.0
C      1  0.5687490000000  0.4238090000000  0.5201090000000 1.0
C      1  0.5161440000000  0.4394820000000  0.5852220000000 1.0
C      1  0.4143960000000  0.5347110000000  0.4751310000000 1.0
C      1  0.5246550000000  0.4760630000000  0.5372400000000 1.0
C      1  0.5332980000000  0.5158440000000  0.5751030000000 1.0
C      1  0.4128490000000  0.4651180000000  0.4886190000000 1.0
C      1  0.5324080000000  0.4907710000000  0.5904600000000 1.0
C      1  0.4993060000000  0.5534490000000  0.5698050000000 1.0
C      1  0.4794410000000  0.4788650000000  0.5400180000000 1.0
C      1  0.4250920000000  0.5185550000000  0.5665370000000 1.0
C      1  0.4451280000000  0.4865400000000  0.5907240000000 1.0
C      1  0.5930430000000  0.5237720000000  0.4636570000000 1.0
C      1  0.5308230000000  0.5821830000000  0.4438400000000 1.0
C      1  0.4946580000000  0.4574120000000  0.5926850000000 1.0
C      1  0.4470090000000  0.5598380000000  0.5575130000000 1.0
C      1  0.4311930000000  0.5807370000000  0.4904190000000 1.0
C      1  0.5476110000000  0.4878620000000  0.4692670000000 1.0
C      1  0.5290120000000  0.4164840000000  0.4462000000000 1.0
C      1  0.4585970000000  0.4403050000000  0.4501740000000 1.0
C      1  0.4691240000000  0.5340580000000  0.4104890000000 1.0
C      1  0.4614810000000  0.4625250000000  0.4745560000000 1.0
C      1  0.5212450000000  0.5046760000000  0.5010020000000 1.0
C      1  0.4474000000000  0.4256940000000  0.4744780000000 1.0
C      1  0.5354360000000  0.4653040000000  0.4862040000000 1.0
C      1  0.4527010000000  0.4889060000000  0.4632830000000 1.0
C      1  0.5092690000000  0.4298230000000  0.4307680000000 1.0
C      1  0.5529200000000  0.4723240000000  0.5835750000000 1.0
C      1  0.4672790000000  0.5265970000000  0.5931300000000 1.0
C      1  0.4880050000000  0.5026690000000  0.5521300000000 1.0
C      1  0.4689150000000  0.5582150000000  0.4260110000000 1.0
C      1  0.4746120000000  0.5333180000000  0.5186390000000 1.0
C      1  0.5176320000000  0.4534300000000  0.4162770000000 1.0
C      1  0.5534610000000  0.4285030000000  0.5620380000000 1.0
C      1  0.5234690000000  0.6097800000000  0.4987490000000 1.0
C      1  0.4956680000000  0.5051470000000  0.4596930000000 1.0
C      1  0.4963540000000  0.6104290000000  0.4943350000000 1.0
C      1  0.5100820000000  0.5660970000000  0.4925360000000 1.0
C      1  0.4930900000000  0.4946490000000  0.4884820000000 1.0
C      1  0.5704450000000  0.5190630000000  0.5033480000000 1.0
C      1  0.4047210000000  0.4911520000000  0.5307910000000 1.0
C      1  0.4941550000000  0.5881500000000  0.4753930000000 1.0
C      1  0.5395840000000  0.5358740000000  0.4648630000000 1.0
C      1  0.5028430000000  0.5477610000000  0.5189350000000 1.0
C      1  0.4706310000000  0.5461640000000  0.5707550000000 1.0
C      1  0.5207960000000  0.4905670000000  0.4516180000000 1.0
C      1  0.4815320000000  0.4210360000000  0.5629220000000 1.0
C      1  0.5317610000000  0.4782400000000  0.5108510000000 1.0
C      1  0.5185330000000  0.5227010000000  0.5231250000000 1.0
C      1  0.4032590000000  0.5136480000000  0.5136790000000 1.0
C      1  0.4347170000000  0.5788690000000  0.4638370000000 1.0
C      1  0.4576480000000  0.5518010000000  0.5009790000000 1.0
C      1  0.5437010000000  0.4455800000000  0.5822640000000 1.0
C      1  0.5729400000000  0.5560870000000  0.4956310000000 1.0
C      1  0.5884590000000  0.4974820000000  0.4507210000000 1.0
C      1  0.4525360000000  0.5121840000000  0.4817750000000 1.0
C      1  0.4300660000000  0.5117910000000  0.4340170000000 1.0
C      1  0.5756480000000  0.4731080000000  0.4634170000000 1.0
C      1  0.5731590000000  0.4798280000000  0.5639670000000 1.0
C      1  0.4782720000000  0.4210210000000  0.5131300000000 1.0
C      1  0.4722990000000  0.4959970000000  0.4424870000000 1.0
C      1  0.4715150000000  0.5249650000000  0.5464950000000 1.0
C      1  0.4660100000000  0.4192570000000  0.5391200000000 1.0
C      1  0.4690700000000  0.4120670000000  0.4872470000000 1.0
C      1  0.4253240000000  0.5511980000000  0.4985530000000 1.0
C      1  0.4914440000000  0.5331870000000  0.4648380000000 1.0
C      1  0.5778170000000  0.4336690000000  0.4951190000000 1.0
C      1  0.4146770000000  0.5380660000000  0.5228860000000 1.0
C      1  0.5009310000000  0.4622910000000  0.5316370000000 1.0
C      1  0.4584210000000  0.4824710000000  0.5222700000000 1.0
C      1  0.5554080000000  0.5519580000000  0.5566210000000 1.0
C      1  0.4967790000000  0.4724030000000  0.4090000000000 1.0
C      1  0.4450340000000  0.4490830000000  0.5686950000000 1.0
C      1  0.4559860000000  0.5113880000000  0.4225150000000 1.0
END
