TITL C-2114528-2131-21 228.523298266035 125000 -507.153369734319 0 0 73 (C1) n - 1
REM
REM in /nfs/bkarasulu/CARBON/AIRSS/Generating-Clusters/GAP-ML-2020/Only-C1/SD-CG/HFTN-CG
REM
REM
REM
REM
REM
REM ./C.cell (11c1c37f851c82e70ff6c80c92926a4b)
REM
REM compiler GCC version 9.2.1 20190827 (Red Hat 9.2.1-1)
REM options -cpp -mtune=generic -march=x86-64 -g -O0 -fpre-include=/usr/include/finclude/math-vector-fortran.h
REM seed -1577778418 -1546501255 -1502535555 395334885 -1907735697 1315962001 138815172 -1523724122 -1573035062 -991207311 -467934038 -1661251566 854407435 -224919071 -331471214 -716234642 1169097450 1270607529 1708403623 1482754358 1162173333 1986499779 -810474938 1522617884 -304692058 307527493 -1901526040 2085481258 -674330723 1715677773 -22832844 -1125262441 -2101819062
REM
CELL 1.54180   50.00000   50.00000   50.00000   90.00000   90.00000   90.00000
LATT -1
SFAC C  
C      1  0.5013410000000  0.5692140000000  0.5413920000000 1.0
C      1  0.4557470000000  0.4621910000000  0.5454670000000 1.0
C      1  0.5481430000000  0.5096690000000  0.4499810000000 1.0
C      1  0.4739630000000  0.5661890000000  0.5295380000000 1.0
C      1  0.5043180000000  0.5480450000000  0.5603560000000 1.0
C      1  0.4590120000000  0.5496020000000  0.4568380000000 1.0
C      1  0.4405740000000  0.4545010000000  0.4733980000000 1.0
C      1  0.4887750000000  0.5097290000000  0.5260640000000 1.0
C      1  0.4914860000000  0.5688780000000  0.4826160000000 1.0
C      1  0.5359660000000  0.4855010000000  0.4394500000000 1.0
C      1  0.4540740000000  0.5583760000000  0.4842300000000 1.0
C      1  0.5680510000000  0.4624120000000  0.4707920000000 1.0
C      1  0.4695500000000  0.4514410000000  0.5214170000000 1.0
C      1  0.5054080000000  0.4826340000000  0.4912210000000 1.0
C      1  0.4872490000000  0.4656200000000  0.4383160000000 1.0
C      1  0.5168170000000  0.5270670000000  0.4923640000000 1.0
C      1  0.5428530000000  0.5466520000000  0.5338860000000 1.0
C      1  0.5560850000000  0.4392930000000  0.4837470000000 1.0
C      1  0.4623050000000  0.4790870000000  0.4361530000000 1.0
C      1  0.5667070000000  0.5092790000000  0.4731020000000 1.0
C      1  0.4690980000000  0.5765000000000  0.4991560000000 1.0
C      1  0.5331520000000  0.5335390000000  0.4509520000000 1.0
C      1  0.4867930000000  0.4430730000000  0.4571350000000 1.0
C      1  0.5545670000000  0.4939580000000  0.5525230000000 1.0
C      1  0.5490060000000  0.4664840000000  0.5472170000000 1.0
C      1  0.4817360000000  0.4822800000000  0.5097600000000 1.0
C      1  0.4341680000000  0.5408140000000  0.5528660000000 1.0
C      1  0.5479060000000  0.4621840000000  0.4500400000000 1.0
C      1  0.5079980000000  0.4863860000000  0.4319950000000 1.0
C      1  0.4408780000000  0.4578590000000  0.5228580000000 1.0
C      1  0.4762750000000  0.4326190000000  0.5014430000000 1.0
C      1  0.4709670000000  0.5131180000000  0.4786190000000 1.0
C      1  0.5044680000000  0.4284640000000  0.5002640000000 1.0
C      1  0.5690770000000  0.5050690000000  0.5301500000000 1.0
C      1  0.5619360000000  0.5314440000000  0.4904380000000 1.0
C      1  0.4301140000000  0.4948210000000  0.4933360000000 1.0
C      1  0.4875880000000  0.5545770000000  0.4556020000000 1.0
C      1  0.5180390000000  0.5101810000000  0.5189210000000 1.0
C      1  0.5761360000000  0.4849370000000  0.4848200000000 1.0
C      1  0.5100630000000  0.4324410000000  0.4711390000000 1.0
C      1  0.5136030000000  0.4931170000000  0.5717780000000 1.0
C      1  0.5499940000000  0.4400640000000  0.5106260000000 1.0
C      1  0.4810740000000  0.5378770000000  0.5159980000000 1.0
C      1  0.4718150000000  0.5081940000000  0.5514380000000 1.0
C      1  0.5024240000000  0.4706490000000  0.5611510000000 1.0
C      1  0.5060550000000  0.5366240000000  0.4417300000000 1.0
C      1  0.4627160000000  0.4882900000000  0.4898650000000 1.0
C      1  0.5648460000000  0.4591830000000  0.5251050000000 1.0
C      1  0.4400240000000  0.4751920000000  0.4529700000000 1.0
C      1  0.4670050000000  0.5071040000000  0.4317830000000 1.0
C      1  0.4743370000000  0.4791830000000  0.5592540000000 1.0
C      1  0.4372610000000  0.5161730000000  0.5120740000000 1.0
C      1  0.5626750000000  0.5310260000000  0.5194830000000 1.0
C      1  0.4646140000000  0.4388230000000  0.4750730000000 1.0
C      1  0.4422140000000  0.5177100000000  0.5401080000000 1.0
C      1  0.4528410000000  0.5202540000000  0.4532550000000 1.0
C      1  0.5232040000000  0.4364240000000  0.5211430000000 1.0
C      1  0.4997500000000  0.5082140000000  0.4775050000000 1.0
C      1  0.5760100000000  0.4826630000000  0.5134330000000 1.0
C      1  0.5227300000000  0.4540890000000  0.5457040000000 1.0
C      1  0.4315060000000  0.5008610000000  0.4636220000000 1.0
C      1  0.4795130000000  0.5347980000000  0.5638490000000 1.0
C      1  0.5347660000000  0.5090030000000  0.5657670000000 1.0
C      1  0.4295530000000  0.4661480000000  0.4983700000000 1.0
C      1  0.5268840000000  0.4854510000000  0.5083090000000 1.0
C      1  0.4949900000000  0.5121870000000  0.4296850000000 1.0
C      1  0.4583250000000  0.5323710000000  0.4985100000000 1.0
C      1  0.5389630000000  0.5410940000000  0.4778480000000 1.0
C      1  0.4588440000000  0.5524190000000  0.5504910000000 1.0
C      1  0.5303120000000  0.5364840000000  0.5584500000000 1.0
C      1  0.5053670000000  0.5510290000000  0.5005730000000 1.0
C      1  0.5358600000000  0.4381270000000  0.4629530000000 1.0
C      1  0.5215370000000  0.5630460000000  0.5225320000000 1.0
END
