TITL C-216143-3443-7 -81.2601535665642 125000 -171.41130539071 0 0 27 (C1) n - 1
REM
REM in /rds/project/t2_vol4/rds-t2-cs072/BORA/CARBON/from-Arr/AIRSS/Generating-Clusters/GAP-ML-2020/Only-C1/SD-CG/HFTN-CG
REM
REM
REM
REM
REM
REM ./C.cell (11c1c37f851c82e70ff6c80c92926a4b)
REM AIRSS Version 0.9.1 bugfix July 2018 build 013d7b7c2542+ Fri, 06 Jul 2018 19:26:36 +0100
REM compiler GCC version 9.3.0
REM options -cpp -mtune=generic -march=x86-64 -g -O0
REM seed 416964580 1377196200 587037199 1665359175 584036861 1235875396 1844366251 943665891 629930278 1686253706 1148308022 229696479 376359300 -1911338386 1841834280 1973900529 -2048829913 1674898881 -780837269 1822969291 -143910631 -2058166942 -1382709783 -1575375618 895675714 486190201 306016132 258384055 584985886 -912250126 894221671 1953947375 1287387169
REM
CELL 1.54180   50.00000   50.00000   50.00000   90.00000   90.00000   90.00000
LATT -1
SFAC C  
C      1  0.5607310000000  0.5244460000000  0.5058920000000 1.0
C      1  0.4604040000000  0.5144810000000  0.5189080000000 1.0
C      1  0.5405000000000  0.4794300000000  0.4987300000000 1.0
C      1  0.5148250000000  0.5017620000000  0.4503700000000 1.0
C      1  0.5414620000000  0.5070520000000  0.4898850000000 1.0
C      1  0.4533690000000  0.4751060000000  0.4789630000000 1.0
C      1  0.4554360000000  0.4853100000000  0.5251270000000 1.0
C      1  0.4792220000000  0.5415220000000  0.4808930000000 1.0
C      1  0.5134160000000  0.5199190000000  0.4944350000000 1.0
C      1  0.5335320000000  0.5218710000000  0.5447270000000 1.0
C      1  0.4691810000000  0.4840660000000  0.4580720000000 1.0
C      1  0.4742420000000  0.4868050000000  0.5459190000000 1.0
C      1  0.5066030000000  0.4589280000000  0.5216500000000 1.0
C      1  0.5377460000000  0.5110880000000  0.4615040000000 1.0
C      1  0.4817020000000  0.5140980000000  0.5394190000000 1.0
C      1  0.5050320000000  0.5402210000000  0.4749820000000 1.0
C      1  0.5196900000000  0.5309820000000  0.4531720000000 1.0
C      1  0.4934230000000  0.5002050000000  0.4921250000000 1.0
C      1  0.5116800000000  0.5065860000000  0.5409280000000 1.0
C      1  0.4954990000000  0.4903400000000  0.4655560000000 1.0
C      1  0.4839260000000  0.4527310000000  0.5076590000000 1.0
C      1  0.4677170000000  0.5178740000000  0.4912130000000 1.0
C      1  0.5017810000000  0.4786810000000  0.5420250000000 1.0
C      1  0.4607440000000  0.4667540000000  0.5045370000000 1.0
C      1  0.4513030000000  0.5014520000000  0.4725960000000 1.0
C      1  0.5539380000000  0.5296970000000  0.5301750000000 1.0
C      1  0.5328940000000  0.4585950000000  0.5105380000000 1.0
END
