TITL C-21093-1272-7 -0.249748427345396 125000 -750.659569204349 0 0 106 (C1) n - 1
REM
REM in /rds/project/t2_vol4/rds-t2-cs072/BORA/CARBON/from-Arr/AIRSS/Generating-Clusters/GAP-ML-2020/Only-C1/SD-CG/HFTN-CG
REM
REM
REM
REM
REM
REM ./C.cell (11c1c37f851c82e70ff6c80c92926a4b)
REM AIRSS Version 0.9.1 bugfix July 2018 build 013d7b7c2542+ Fri, 06 Jul 2018 19:26:36 +0100
REM compiler GCC version 9.3.0
REM options -cpp -mtune=generic -march=x86-64 -g -O0
REM seed 58464161 -1051387659 -1029554481 -853516059 -1936612649 198207557 -1661286528 631292213 -961218853 1424079545 -779412271 1606240523 1695633813 915839603 -978022278 -2143708139 1298221809 376878066 1373887441 -1935251238 -856533704 -1050058968 -757462664 -1998162094 106297335 -1476989500 1808327217 1113718119 -1520321680 -1680788821 -536101475 -128535411 -1239874473
REM
CELL 1.54180   50.00000   50.00000   50.00000   90.00000   90.00000   90.00000
LATT -1
SFAC C  
C      1  0.5309790000000  0.4731570000000  0.5181840000000 1.0
C      1  0.4854210000000  0.4407460000000  0.5334970000000 1.0
C      1  0.5097140000000  0.5682410000000  0.5480060000000 1.0
C      1  0.4238590000000  0.5338120000000  0.5599100000000 1.0
C      1  0.4481980000000  0.5345880000000  0.5715770000000 1.0
C      1  0.5745290000000  0.5502330000000  0.4948200000000 1.0
C      1  0.4378960000000  0.4494550000000  0.4958740000000 1.0
C      1  0.4863620000000  0.5014950000000  0.5817370000000 1.0
C      1  0.4081610000000  0.5139620000000  0.4916320000000 1.0
C      1  0.4526270000000  0.5704190000000  0.4751440000000 1.0
C      1  0.4177380000000  0.5368720000000  0.5335540000000 1.0
C      1  0.5392710000000  0.4354980000000  0.4453840000000 1.0
C      1  0.4530120000000  0.5697340000000  0.5338490000000 1.0
C      1  0.5285320000000  0.5153200000000  0.4983570000000 1.0
C      1  0.5368020000000  0.5162510000000  0.5734940000000 1.0
C      1  0.4899270000000  0.5541570000000  0.4418540000000 1.0
C      1  0.4886210000000  0.5383280000000  0.5096510000000 1.0
C      1  0.5605620000000  0.5326820000000  0.5673080000000 1.0
C      1  0.5268450000000  0.4360720000000  0.5520450000000 1.0
C      1  0.5630020000000  0.4278730000000  0.4910550000000 1.0
C      1  0.5832530000000  0.5117970000000  0.4725780000000 1.0
C      1  0.5375000000000  0.5752610000000  0.5102040000000 1.0
C      1  0.5349880000000  0.5253650000000  0.4718300000000 1.0
C      1  0.4318550000000  0.5571650000000  0.4901110000000 1.0
C      1  0.5641380000000  0.5492690000000  0.4476650000000 1.0
C      1  0.4796340000000  0.5278700000000  0.4286540000000 1.0
C      1  0.4995220000000  0.4159690000000  0.5255370000000 1.0
C      1  0.5587180000000  0.5463590000000  0.5418270000000 1.0
C      1  0.5391270000000  0.4871330000000  0.4211530000000 1.0
C      1  0.4700590000000  0.4299210000000  0.4687070000000 1.0
C      1  0.4828210000000  0.5232880000000  0.4866200000000 1.0
C      1  0.4477580000000  0.4261850000000  0.5097400000000 1.0
C      1  0.5102170000000  0.5667380000000  0.4584970000000 1.0
C      1  0.4673470000000  0.4136590000000  0.4917630000000 1.0
C      1  0.5064770000000  0.5082730000000  0.5418820000000 1.0
C      1  0.5394310000000  0.4160720000000  0.5025770000000 1.0
C      1  0.5826350000000  0.5159760000000  0.5662670000000 1.0
C      1  0.5450450000000  0.4917640000000  0.5598050000000 1.0
C      1  0.4503710000000  0.4799930000000  0.4465030000000 1.0
C      1  0.5159270000000  0.4222190000000  0.4560770000000 1.0
C      1  0.4265950000000  0.4756790000000  0.5518620000000 1.0
C      1  0.5333540000000  0.5568390000000  0.5332810000000 1.0
C      1  0.4777450000000  0.5040370000000  0.5353670000000 1.0
C      1  0.5075760000000  0.5121070000000  0.4748100000000 1.0
C      1  0.4692140000000  0.5308030000000  0.5295750000000 1.0
C      1  0.4423280000000  0.4869160000000  0.5745960000000 1.0
C      1  0.4307760000000  0.5229780000000  0.4528300000000 1.0
C      1  0.4098180000000  0.5126990000000  0.5197000000000 1.0
C      1  0.5155460000000  0.5293270000000  0.5201930000000 1.0
C      1  0.5566880000000  0.5075080000000  0.4307600000000 1.0
C      1  0.5911440000000  0.4956360000000  0.4955280000000 1.0
C      1  0.5523090000000  0.5667520000000  0.4888900000000 1.0
C      1  0.4936950000000  0.4076890000000  0.4991570000000 1.0
C      1  0.5357330000000  0.4571310000000  0.4262230000000 1.0
C      1  0.4275300000000  0.4942810000000  0.4545790000000 1.0
C      1  0.5841550000000  0.4442120000000  0.5012080000000 1.0
C      1  0.5631270000000  0.5340080000000  0.4254740000000 1.0
C      1  0.4661790000000  0.5008600000000  0.4905810000000 1.0
C      1  0.5271730000000  0.4193160000000  0.5301010000000 1.0
C      1  0.5742360000000  0.5048660000000  0.5185630000000 1.0
C      1  0.4894990000000  0.4315100000000  0.4483520000000 1.0
C      1  0.5175280000000  0.4116890000000  0.4833770000000 1.0
C      1  0.4734710000000  0.4868120000000  0.5143520000000 1.0
C      1  0.5488600000000  0.4813640000000  0.4748890000000 1.0
C      1  0.5068050000000  0.5216180000000  0.5702930000000 1.0
C      1  0.5711500000000  0.4634950000000  0.4675490000000 1.0
C      1  0.4196810000000  0.4701560000000  0.5013040000000 1.0
C      1  0.5740040000000  0.5358690000000  0.5195090000000 1.0
C      1  0.5468000000000  0.4930490000000  0.5041590000000 1.0
C      1  0.5382540000000  0.5551860000000  0.4645110000000 1.0
C      1  0.4145350000000  0.4886010000000  0.4797370000000 1.0
C      1  0.5604840000000  0.4376280000000  0.4638040000000 1.0
C      1  0.4646210000000  0.4551800000000  0.4827630000000 1.0
C      1  0.5898490000000  0.4677120000000  0.4887780000000 1.0
C      1  0.4946040000000  0.5505930000000  0.5639920000000 1.0
C      1  0.4562060000000  0.4339160000000  0.5359370000000 1.0
C      1  0.4155310000000  0.4852770000000  0.5269450000000 1.0
C      1  0.5563500000000  0.5054120000000  0.4609990000000 1.0
C      1  0.4993360000000  0.5830770000000  0.4806240000000 1.0
C      1  0.4709420000000  0.5848370000000  0.5190090000000 1.0
C      1  0.5204020000000  0.4703470000000  0.4738710000000 1.0
C      1  0.4721620000000  0.5840100000000  0.4897750000000 1.0
C      1  0.4624840000000  0.5600230000000  0.4504090000000 1.0
C      1  0.4440160000000  0.4515610000000  0.5535430000000 1.0
C      1  0.4695550000000  0.4766630000000  0.4265760000000 1.0
C      1  0.4586740000000  0.5095100000000  0.5811710000000 1.0
C      1  0.5045660000000  0.4566290000000  0.5550770000000 1.0
C      1  0.5133920000000  0.5874390000000  0.5049830000000 1.0
C      1  0.4697650000000  0.4806530000000  0.4687710000000 1.0
C      1  0.4527670000000  0.5350830000000  0.4390890000000 1.0
C      1  0.4973390000000  0.5853830000000  0.5286020000000 1.0
C      1  0.4596160000000  0.4637800000000  0.5748460000000 1.0
C      1  0.5112440000000  0.4884920000000  0.4112920000000 1.0
C      1  0.4851960000000  0.4603220000000  0.5082140000000 1.0
C      1  0.4866920000000  0.4716330000000  0.5757420000000 1.0
C      1  0.5725680000000  0.4972830000000  0.5488660000000 1.0
C      1  0.5009050000000  0.4865570000000  0.4639000000000 1.0
C      1  0.4312820000000  0.5579580000000  0.5190550000000 1.0
C      1  0.5220040000000  0.4809860000000  0.5444230000000 1.0
C      1  0.5825760000000  0.5395750000000  0.4698920000000 1.0
C      1  0.5091250000000  0.4592780000000  0.4151670000000 1.0
C      1  0.4667090000000  0.5498400000000  0.5545810000000 1.0
C      1  0.4865720000000  0.5011480000000  0.4185790000000 1.0
C      1  0.4857240000000  0.4519430000000  0.4281900000000 1.0
C      1  0.5124300000000  0.4629660000000  0.4998330000000 1.0
C      1  0.4199210000000  0.5351380000000  0.4764620000000 1.0
END
