TITL C-215711-9245-2 -0.0326319498903447 125000 -325.830706135084 0 0 47 (C1) n - 1
REM
REM in /rds/project/t2_vol4/rds-t2-cs072/BORA/CARBON/from-Arr/AIRSS/Generating-Clusters/GAP-ML-2020/Only-C1/SD-CG/HFTN-CG
REM
REM
REM
REM
REM
REM ./C.cell (11c1c37f851c82e70ff6c80c92926a4b)
REM AIRSS Version 0.9.1 bugfix July 2018 build 013d7b7c2542+ Fri, 06 Jul 2018 19:26:36 +0100
REM compiler GCC version 9.3.0
REM options -cpp -mtune=generic -march=x86-64 -g -O0
REM seed 142442448 1757452719 -1595733121 1257505339 -169001280 1534062458 -146061677 -1191777610 1141242595 -813570835 590191986 -1894765072 407904090 117865126 -871830953 -341458954 1327692531 -2079599218 -1933108903 142146533 -1109650539 -1032750011 -1583777048 75709914 21006086 865150634 -1800898285 1329863263 618686650 1552229290 531177177 -138644147 1839835083
REM
CELL 1.54180   50.00000   50.00000   50.00000   90.00000   90.00000   90.00000
LATT -1
SFAC C  
C      1  0.4564820000000  0.4758270000000  0.4857200000000 1.0
C      1  0.4572910000000  0.4927060000000  0.4618550000000 1.0
C      1  0.5067890000000  0.4619700000000  0.5578920000000 1.0
C      1  0.4658660000000  0.5155850000000  0.5171880000000 1.0
C      1  0.5484160000000  0.5218200000000  0.5125540000000 1.0
C      1  0.4790320000000  0.5237910000000  0.5433180000000 1.0
C      1  0.4814510000000  0.4855580000000  0.4489270000000 1.0
C      1  0.5360400000000  0.5068870000000  0.4916720000000 1.0
C      1  0.5174140000000  0.5053050000000  0.5694770000000 1.0
C      1  0.5115460000000  0.4467680000000  0.5342910000000 1.0
C      1  0.4829610000000  0.4342620000000  0.4962830000000 1.0
C      1  0.5237740000000  0.4379370000000  0.4771220000000 1.0
C      1  0.4616300000000  0.5566790000000  0.4712530000000 1.0
C      1  0.4955760000000  0.5464880000000  0.5377780000000 1.0
C      1  0.5421700000000  0.4827090000000  0.4784080000000 1.0
C      1  0.5235890000000  0.5458060000000  0.5428950000000 1.0
C      1  0.4662490000000  0.5613340000000  0.4993200000000 1.0
C      1  0.4858380000000  0.4579820000000  0.4542000000000 1.0
C      1  0.5370420000000  0.5483800000000  0.5168650000000 1.0
C      1  0.5281220000000  0.4788470000000  0.5638460000000 1.0
C      1  0.4852150000000  0.4446530000000  0.5220220000000 1.0
C      1  0.5356670000000  0.4582880000000  0.5216120000000 1.0
C      1  0.4696470000000  0.4676800000000  0.5311020000000 1.0
C      1  0.4706860000000  0.5388520000000  0.4497500000000 1.0
C      1  0.4583010000000  0.4861800000000  0.5125280000000 1.0
C      1  0.5457100000000  0.4791440000000  0.5409080000000 1.0
C      1  0.5346530000000  0.5233320000000  0.5566510000000 1.0
C      1  0.4976340000000  0.5320680000000  0.4451050000000 1.0
C      1  0.5088030000000  0.5102990000000  0.4847330000000 1.0
C      1  0.4499410000000  0.5188750000000  0.4588030000000 1.0
C      1  0.5291230000000  0.4645370000000  0.4360910000000 1.0
C      1  0.4827860000000  0.4768870000000  0.5550300000000 1.0
C      1  0.5144950000000  0.5552420000000  0.4465290000000 1.0
C      1  0.4888760000000  0.5044670000000  0.5613640000000 1.0
C      1  0.5295190000000  0.4856670000000  0.4520900000000 1.0
C      1  0.5182240000000  0.5622480000000  0.4710030000000 1.0
C      1  0.4482170000000  0.5382700000000  0.5065140000000 1.0
C      1  0.5514330000000  0.5078620000000  0.5375640000000 1.0
C      1  0.4706410000000  0.4519080000000  0.4778250000000 1.0
C      1  0.4921980000000  0.5540780000000  0.5094050000000 1.0
C      1  0.5188220000000  0.5612900000000  0.4982650000000 1.0
C      1  0.5059220000000  0.4202210000000  0.4868490000000 1.0
C      1  0.5127850000000  0.4492480000000  0.4518700000000 1.0
C      1  0.4414030000000  0.5357770000000  0.4795710000000 1.0
C      1  0.4883550000000  0.5245090000000  0.4986210000000 1.0
C      1  0.5387910000000  0.4576260000000  0.4929450000000 1.0
C      1  0.5048750000000  0.5041520000000  0.4543850000000 1.0
END
