TITL C-21910-2271-4 55.9660226777787 125000 -146.277463058692 0 0 22 (C1) n - 1
REM
REM in /rds/project/t2_vol4/rds-t2-cs072/BORA/CARBON/from-Arr/AIRSS/Generating-Clusters/GAP-ML-2020/Only-C1/SD-CG/HFTN-CG
REM
REM
REM
REM
REM
REM ./C.cell (11c1c37f851c82e70ff6c80c92926a4b)
REM AIRSS Version 0.9.1 bugfix July 2018 build 013d7b7c2542+ Fri, 06 Jul 2018 19:26:36 +0100
REM compiler GCC version 9.3.0
REM options -cpp -mtune=generic -march=x86-64 -g -O0
REM seed -1151709616 -13356343 -1241277562 304532514 1774972318 3722329 347107031 -1290254092 -490075120 1200731465 986520385 667614438 1677739235 1172138775 274070140 699276581 1952038864 689674158 -1675604128 1453389595 452596822 -333591620 -917394507 -72431532 -188701007 414864931 -907564724 1703867105 1250544047 -1741274881 -105014327 -564907029 -599365807
REM
CELL 1.54180   50.00000   50.00000   50.00000   90.00000   90.00000   90.00000
LATT -1
SFAC C  
C      1  0.4602830000000  0.5114750000000  0.4822270000000 1.0
C      1  0.4998450000000  0.4955560000000  0.4448660000000 1.0
C      1  0.4805410000000  0.5612060000000  0.5286350000000 1.0
C      1  0.4940010000000  0.5467150000000  0.5464080000000 1.0
C      1  0.5449070000000  0.5162400000000  0.4556790000000 1.0
C      1  0.5177980000000  0.5015080000000  0.5549890000000 1.0
C      1  0.5011810000000  0.4796830000000  0.5502620000000 1.0
C      1  0.4637850000000  0.4858310000000  0.4755260000000 1.0
C      1  0.4639300000000  0.5346650000000  0.4902220000000 1.0
C      1  0.5595520000000  0.5127850000000  0.4767270000000 1.0
C      1  0.4794070000000  0.4790770000000  0.4518910000000 1.0
C      1  0.4709840000000  0.4565660000000  0.5169130000000 1.0
C      1  0.4851490000000  0.4656340000000  0.5366000000000 1.0
C      1  0.4777660000000  0.4505840000000  0.4489570000000 1.0
C      1  0.5600350000000  0.5031050000000  0.5246960000000 1.0
C      1  0.4680540000000  0.4399640000000  0.4705230000000 1.0
C      1  0.4696830000000  0.5548130000000  0.5061140000000 1.0
C      1  0.4640010000000  0.4598630000000  0.4912220000000 1.0
C      1  0.5691480000000  0.5077620000000  0.5000760000000 1.0
C      1  0.5207980000000  0.5087210000000  0.4477970000000 1.0
C      1  0.5432810000000  0.5011630000000  0.5431610000000 1.0
C      1  0.5058720000000  0.5270850000000  0.5565090000000 1.0
END
