TITL C-215715-9198-1 0.192118060254549 125000 -530.114204401236 0 0 75 (C1) n - 1
REM
REM in /rds/project/t2_vol4/rds-t2-cs072/BORA/CARBON/from-Arr/AIRSS/Generating-Clusters/GAP-ML-2020/Only-C1/SD-CG/HFTN-CG
REM
REM
REM
REM
REM
REM ./C.cell (11c1c37f851c82e70ff6c80c92926a4b)
REM AIRSS Version 0.9.1 bugfix July 2018 build 013d7b7c2542+ Fri, 06 Jul 2018 19:26:36 +0100
REM compiler GCC version 9.3.0
REM options -cpp -mtune=generic -march=x86-64 -g -O0
REM seed -754317099 1840665132 1431546083 1324520769 1049427554 -1818624076 -1373471685 -646002389 -1845461680 1980240822 1137206148 89616320 1087830843 -1565633090 1890385222 127704309 905964078 343001119 -2084233616 -1830365387 -1294584876 1631289921 22380313 1281181667 103181230 1483990659 -1087357065 -859251034 -269455721 -1855166150 1205730479 2044041272 -1181064932
REM
CELL 1.54180   50.00000   50.00000   50.00000   90.00000   90.00000   90.00000
LATT -1
SFAC C  
C      1  0.4372980000000  0.4906810000000  0.5715960000000 1.0
C      1  0.5352900000000  0.5053350000000  0.5656590000000 1.0
C      1  0.4604860000000  0.5539670000000  0.5061660000000 1.0
C      1  0.4286410000000  0.4924550000000  0.4961450000000 1.0
C      1  0.5531470000000  0.4536180000000  0.5210300000000 1.0
C      1  0.4869200000000  0.5109530000000  0.4557100000000 1.0
C      1  0.5718950000000  0.4966250000000  0.5275240000000 1.0
C      1  0.5204600000000  0.4908310000000  0.5154660000000 1.0
C      1  0.4684380000000  0.5725690000000  0.4650350000000 1.0
C      1  0.4665600000000  0.4817560000000  0.5217960000000 1.0
C      1  0.4438850000000  0.5569550000000  0.4619150000000 1.0
C      1  0.4788350000000  0.5062210000000  0.5302210000000 1.0
C      1  0.5220080000000  0.4597130000000  0.5621120000000 1.0
C      1  0.5463830000000  0.4633100000000  0.5476010000000 1.0
C      1  0.5110030000000  0.5091600000000  0.4958890000000 1.0
C      1  0.4657700000000  0.5497210000000  0.5341650000000 1.0
C      1  0.5506520000000  0.5064820000000  0.4477960000000 1.0
C      1  0.4776320000000  0.4392910000000  0.5413430000000 1.0
C      1  0.4398890000000  0.5126880000000  0.4786460000000 1.0
C      1  0.5285830000000  0.4636160000000  0.4510580000000 1.0
C      1  0.4614870000000  0.5238430000000  0.5477450000000 1.0
C      1  0.4841810000000  0.4866220000000  0.4164730000000 1.0
C      1  0.5468970000000  0.5348390000000  0.4525390000000 1.0
C      1  0.4511620000000  0.5459010000000  0.4365410000000 1.0
C      1  0.5093950000000  0.4655950000000  0.5104760000000 1.0
C      1  0.5770270000000  0.5204340000000  0.4850080000000 1.0
C      1  0.5671730000000  0.4740750000000  0.4817610000000 1.0
C      1  0.5572460000000  0.5467170000000  0.5187370000000 1.0
C      1  0.5016590000000  0.4156940000000  0.5125450000000 1.0
C      1  0.4381460000000  0.4913620000000  0.5225490000000 1.0
C      1  0.5649230000000  0.5426760000000  0.4732010000000 1.0
C      1  0.5140020000000  0.4857690000000  0.5726700000000 1.0
C      1  0.4582260000000  0.4730100000000  0.4523000000000 1.0
C      1  0.5700260000000  0.4981750000000  0.4681570000000 1.0
C      1  0.5364320000000  0.5510280000000  0.5378440000000 1.0
C      1  0.4829640000000  0.4723940000000  0.4976540000000 1.0
C      1  0.4625390000000  0.4797650000000  0.5687770000000 1.0
C      1  0.4866900000000  0.4948500000000  0.5772970000000 1.0
C      1  0.4791920000000  0.5695620000000  0.4913440000000 1.0
C      1  0.5333580000000  0.4465110000000  0.4974860000000 1.0
C      1  0.5521400000000  0.5585520000000  0.4925510000000 1.0
C      1  0.4493290000000  0.5183700000000  0.4286240000000 1.0
C      1  0.5169780000000  0.4188500000000  0.5357200000000 1.0
C      1  0.5556500000000  0.4901940000000  0.5509930000000 1.0
C      1  0.4813000000000  0.5220790000000  0.5705930000000 1.0
C      1  0.5706610000000  0.4729530000000  0.5105410000000 1.0
C      1  0.5454440000000  0.4578130000000  0.4735980000000 1.0
C      1  0.4773310000000  0.5581540000000  0.4418210000000 1.0
C      1  0.5056630000000  0.4368960000000  0.5528310000000 1.0
C      1  0.4911760000000  0.5578820000000  0.5442060000000 1.0
C      1  0.4546750000000  0.5034420000000  0.4541000000000 1.0
C      1  0.5040630000000  0.5123690000000  0.5224950000000 1.0
C      1  0.4481140000000  0.4560790000000  0.4730430000000 1.0
C      1  0.5262830000000  0.5649230000000  0.4813660000000 1.0
C      1  0.5127390000000  0.5658270000000  0.5280360000000 1.0
C      1  0.4953300000000  0.4352640000000  0.4713570000000 1.0
C      1  0.4916160000000  0.4964300000000  0.4811080000000 1.0
C      1  0.5146060000000  0.4250440000000  0.4896430000000 1.0
C      1  0.5012300000000  0.5402900000000  0.5644500000000 1.0
C      1  0.4766130000000  0.4286440000000  0.5145610000000 1.0
C      1  0.5021600000000  0.4517240000000  0.4498910000000 1.0
C      1  0.5222340000000  0.5487480000000  0.4567980000000 1.0
C      1  0.5033050000000  0.4992150000000  0.4326180000000 1.0
C      1  0.4810780000000  0.4659000000000  0.4369550000000 1.0
C      1  0.5064090000000  0.5714240000000  0.5001990000000 1.0
C      1  0.4379340000000  0.5052350000000  0.5487310000000 1.0
C      1  0.5732050000000  0.5217310000000  0.5136930000000 1.0
C      1  0.4441410000000  0.5402170000000  0.4855310000000 1.0
C      1  0.4969240000000  0.5386820000000  0.4487330000000 1.0
C      1  0.5297690000000  0.4895470000000  0.4387110000000 1.0
C      1  0.4655700000000  0.4633990000000  0.5459070000000 1.0
C      1  0.4722670000000  0.4445870000000  0.4883370000000 1.0
C      1  0.4258600000000  0.4675720000000  0.4835760000000 1.0
C      1  0.5283690000000  0.5335290000000  0.5604600000000 1.0
C      1  0.4633400000000  0.5036650000000  0.4102460000000 1.0
END
