TITL C-21780-4576-5 0.0182545116121844 125000 -105.646088694569 0 0 17 (C1) n - 1
REM
REM in /rds/project/t2_vol4/rds-t2-cs072/BORA/CARBON/from-Arr/AIRSS/Generating-Clusters/GAP-ML-2020/Only-C1/SD-CG/HFTN-CG
REM
REM
REM
REM
REM
REM ./C.cell (11c1c37f851c82e70ff6c80c92926a4b)
REM AIRSS Version 0.9.1 bugfix July 2018 build 013d7b7c2542+ Fri, 06 Jul 2018 19:26:36 +0100
REM compiler GCC version 9.3.0
REM options -cpp -mtune=generic -march=x86-64 -g -O0
REM seed -1058608267 -988211878 533056631 648188253 1052393110 -1965215977 -1362006696 1405070158 -1003236514 -1578702665 140694076 -611343245 -1424242580 -2139014331 1601875405 -1893557934 -1508471094 -237027218 -311928561 1420020322 -2030524497 708685042 1392155718 -1831011540 -402997742 -875225730 1276755969 -1475090347 588356366 231192843 1302607126 -1178691316 -370677719
REM
CELL 1.54180   50.00000   50.00000   50.00000   90.00000   90.00000   90.00000
LATT -1
SFAC C  
C      1  0.5159240000000  0.5435440000000  0.4430100000000 1.0
C      1  0.4965920000000  0.5272100000000  0.4485210000000 1.0
C      1  0.4500480000000  0.4928120000000  0.5105900000000 1.0
C      1  0.4787230000000  0.5094790000000  0.4545150000000 1.0
C      1  0.5388200000000  0.4747060000000  0.5378330000000 1.0
C      1  0.4719720000000  0.4792560000000  0.5261850000000 1.0
C      1  0.5046730000000  0.4880730000000  0.5010820000000 1.0
C      1  0.5524760000000  0.4985830000000  0.4976400000000 1.0
C      1  0.4961760000000  0.5131490000000  0.5153830000000 1.0
C      1  0.5406090000000  0.5195590000000  0.5068650000000 1.0
C      1  0.4710490000000  0.5070810000000  0.5264350000000 1.0
C      1  0.4835550000000  0.4700330000000  0.5011920000000 1.0
C      1  0.4614880000000  0.4924200000000  0.4626130000000 1.0
C      1  0.5321030000000  0.4841410000000  0.5120490000000 1.0
C      1  0.5201430000000  0.5219430000000  0.5276040000000 1.0
C      1  0.4605970000000  0.4807510000000  0.4868940000000 1.0
C      1  0.5250530000000  0.4972580000000  0.5415890000000 1.0
END
