TITL C-2114531-1652-7 99.2644937962001 125000 -628.22580778158 0 0 90 (C1) n - 1
REM
REM in /nfs/bkarasulu/CARBON/AIRSS/Generating-Clusters/GAP-ML-2020/Only-C1/SD-CG/HFTN-CG
REM
REM
REM
REM
REM
REM ./C.cell (11c1c37f851c82e70ff6c80c92926a4b)
REM
REM compiler GCC version 9.2.1 20190827 (Red Hat 9.2.1-1)
REM options -cpp -mtune=generic -march=x86-64 -g -O0 -fpre-include=/usr/include/finclude/math-vector-fortran.h
REM seed -1722541042 -1724334534 -735120741 -377113560 624900351 2133380350 -1499325470 928652853 -529401097 167593613 652320532 -1475053193 -952920515 -767547574 -16344153 1775312343 785171735 -434891845 -1843346777 38357153 961290376 357004654 -367894245 35605735 448816210 -1774895889 1684461270 -134658409 -1494290806 -459609399 347091670 1472048703 -1790358880
REM
CELL 1.54180   50.00000   50.00000   50.00000   90.00000   90.00000   90.00000
LATT -1
SFAC C  
C      1  0.5127140000000  0.5139550000000  0.4128430000000 1.0
C      1  0.5136370000000  0.5670550000000  0.5560840000000 1.0
C      1  0.4238320000000  0.5181700000000  0.4710650000000 1.0
C      1  0.5282260000000  0.5098350000000  0.5309950000000 1.0
C      1  0.5036480000000  0.4197220000000  0.5183830000000 1.0
C      1  0.5339490000000  0.5216370000000  0.4305140000000 1.0
C      1  0.4990060000000  0.4789500000000  0.5701730000000 1.0
C      1  0.4822380000000  0.5299850000000  0.5239360000000 1.0
C      1  0.4813200000000  0.4161710000000  0.4764550000000 1.0
C      1  0.4725820000000  0.5140130000000  0.4179460000000 1.0
C      1  0.4280800000000  0.4816450000000  0.5000710000000 1.0
C      1  0.5091280000000  0.5822300000000  0.4857090000000 1.0
C      1  0.5648730000000  0.5262080000000  0.5070630000000 1.0
C      1  0.5197450000000  0.5781240000000  0.5116250000000 1.0
C      1  0.5405480000000  0.4986670000000  0.4460050000000 1.0
C      1  0.4558860000000  0.4523130000000  0.4571530000000 1.0
C      1  0.4987000000000  0.4336460000000  0.4583580000000 1.0
C      1  0.5399610000000  0.4503510000000  0.4852530000000 1.0
C      1  0.5436010000000  0.4627100000000  0.5449080000000 1.0
C      1  0.5335560000000  0.4223140000000  0.5240640000000 1.0
C      1  0.4745700000000  0.4647060000000  0.5738830000000 1.0
C      1  0.5653480000000  0.4568090000000  0.5256840000000 1.0
C      1  0.4947050000000  0.4657150000000  0.4227510000000 1.0
C      1  0.4537520000000  0.5199400000000  0.5331160000000 1.0
C      1  0.4221940000000  0.5093550000000  0.4975910000000 1.0
C      1  0.5463830000000  0.5319320000000  0.5641080000000 1.0
C      1  0.4782900000000  0.5608560000000  0.4539440000000 1.0
C      1  0.4476220000000  0.5096830000000  0.5759670000000 1.0
C      1  0.4796800000000  0.4498860000000  0.4420770000000 1.0
C      1  0.4893800000000  0.4887390000000  0.5431380000000 1.0
C      1  0.5727740000000  0.5060580000000  0.5243470000000 1.0
C      1  0.5163900000000  0.5224090000000  0.4878860000000 1.0
C      1  0.4831590000000  0.4904750000000  0.4954670000000 1.0
C      1  0.5445560000000  0.4793310000000  0.4942190000000 1.0
C      1  0.4923850000000  0.5344670000000  0.4156160000000 1.0
C      1  0.4818000000000  0.5738460000000  0.4796730000000 1.0
C      1  0.4542940000000  0.5454800000000  0.4499820000000 1.0
C      1  0.5707100000000  0.4813570000000  0.5115760000000 1.0
C      1  0.4592550000000  0.4356270000000  0.4809960000000 1.0
C      1  0.4948250000000  0.4484470000000  0.5078210000000 1.0
C      1  0.4356890000000  0.5442140000000  0.4706820000000 1.0
C      1  0.4552790000000  0.4766650000000  0.5101410000000 1.0
C      1  0.5457510000000  0.4739430000000  0.4310520000000 1.0
C      1  0.4674900000000  0.5557270000000  0.5576640000000 1.0
C      1  0.5646370000000  0.4551110000000  0.4397920000000 1.0
C      1  0.5346930000000  0.5290100000000  0.5097950000000 1.0
C      1  0.5015110000000  0.5280320000000  0.5714910000000 1.0
C      1  0.5281360000000  0.5881440000000  0.4671790000000 1.0
C      1  0.4586480000000  0.4900470000000  0.5375100000000 1.0
C      1  0.4996570000000  0.5526960000000  0.4362010000000 1.0
C      1  0.5274160000000  0.4966690000000  0.4741430000000 1.0
C      1  0.5217710000000  0.4560500000000  0.4238300000000 1.0
C      1  0.5385190000000  0.5554580000000  0.5493830000000 1.0
C      1  0.4762230000000  0.5619420000000  0.5283720000000 1.0
C      1  0.5240070000000  0.4914020000000  0.5795190000000 1.0
C      1  0.4522040000000  0.4840340000000  0.5675460000000 1.0
C      1  0.5014820000000  0.5762100000000  0.5321840000000 1.0
C      1  0.5008370000000  0.5158890000000  0.5427070000000 1.0
C      1  0.4924310000000  0.4924260000000  0.4141210000000 1.0
C      1  0.5409290000000  0.5589080000000  0.5192020000000 1.0
C      1  0.4927810000000  0.5546800000000  0.5707800000000 1.0
C      1  0.4639290000000  0.4479810000000  0.5079500000000 1.0
C      1  0.5280280000000  0.4370450000000  0.5484140000000 1.0
C      1  0.5468790000000  0.4838910000000  0.5645110000000 1.0
C      1  0.4346540000000  0.5293260000000  0.5134090000000 1.0
C      1  0.4757410000000  0.4420660000000  0.5557740000000 1.0
C      1  0.4413960000000  0.5520660000000  0.4967620000000 1.0
C      1  0.5519880000000  0.4368380000000  0.5092730000000 1.0
C      1  0.5483700000000  0.4410500000000  0.4572820000000 1.0
C      1  0.5019020000000  0.4805300000000  0.4747440000000 1.0
C      1  0.5548670000000  0.5085810000000  0.5490850000000 1.0
C      1  0.5432340000000  0.5667510000000  0.4573440000000 1.0
C      1  0.5263630000000  0.5198980000000  0.5817140000000 1.0
C      1  0.5001190000000  0.4762900000000  0.5183410000000 1.0
C      1  0.4887060000000  0.5193750000000  0.4965670000000 1.0
C      1  0.4998330000000  0.4291100000000  0.5475050000000 1.0
C      1  0.4184190000000  0.4669440000000  0.4785260000000 1.0
C      1  0.5662510000000  0.5546030000000  0.5008780000000 1.0
C      1  0.5278980000000  0.4822880000000  0.5200200000000 1.0
C      1  0.4354270000000  0.4726920000000  0.4570090000000 1.0
C      1  0.5088450000000  0.4521430000000  0.4815490000000 1.0
C      1  0.4901520000000  0.4036550000000  0.4991040000000 1.0
C      1  0.4525870000000  0.5196080000000  0.4365710000000 1.0
C      1  0.5283510000000  0.5486420000000  0.4398570000000 1.0
C      1  0.4518010000000  0.5315320000000  0.5601490000000 1.0
C      1  0.5235670000000  0.4347860000000  0.4425530000000 1.0
C      1  0.5643840000000  0.5642150000000  0.4756840000000 1.0
C      1  0.4637950000000  0.5682680000000  0.5020700000000 1.0
C      1  0.4597090000000  0.4379710000000  0.5344800000000 1.0
C      1  0.4354100000000  0.5017770000000  0.4511380000000 1.0
END
