TITL C-2114521-4255-28 0.0360849785271188 125000 -94.7353990331796 0 0 15 (C1) n - 1
REM
REM in /nfs/bkarasulu/CARBON/AIRSS/Generating-Clusters/GAP-ML-2020/Only-C1/SD-CG/HFTN-CG
REM
REM
REM
REM
REM
REM ./C.cell (11c1c37f851c82e70ff6c80c92926a4b)
REM
REM compiler GCC version 9.2.1 20190827 (Red Hat 9.2.1-1)
REM options -cpp -mtune=generic -march=x86-64 -g -O0 -fpre-include=/usr/include/finclude/math-vector-fortran.h
REM seed -460979269 1918056743 775517401 1961636351 1370175519 1606486120 -1788115205 590514759 -507705152 2083211292 -196126697 192411765 -849874319 704997144 -1519463512 33151782 -1930180086 707294388 1632313080 -168979323 353001596 1025893264 -1584936111 -370514189 -110128916 -610379629 -1899500809 -506083683 1834740139 1456933083 1647687990 -1891613505 1438001376
REM
CELL 1.54180   50.00000   50.00000   50.00000   90.00000   90.00000   90.00000
LATT -1
SFAC C  
C      1  0.5506750000000  0.5026380000000  0.5059810000000 1.0
C      1  0.4790360000000  0.5474030000000  0.4808930000000 1.0
C      1  0.5156890000000  0.4848520000000  0.5240300000000 1.0
C      1  0.4695880000000  0.4881180000000  0.5228860000000 1.0
C      1  0.5243610000000  0.5354390000000  0.4753150000000 1.0
C      1  0.4740000000000  0.4694650000000  0.4655890000000 1.0
C      1  0.4874060000000  0.4461600000000  0.5082970000000 1.0
C      1  0.4915310000000  0.4693900000000  0.5224490000000 1.0
C      1  0.5291020000000  0.5197490000000  0.4972770000000 1.0
C      1  0.4783160000000  0.4520850000000  0.4840720000000 1.0
C      1  0.5428950000000  0.4821260000000  0.5202830000000 1.0
C      1  0.4796410000000  0.5117310000000  0.5114400000000 1.0
C      1  0.5020560000000  0.5466740000000  0.4681900000000 1.0
C      1  0.4680060000000  0.5349930000000  0.5005270000000 1.0
C      1  0.5076990000000  0.5091750000000  0.5127700000000 1.0
END
