TITL C-21090-1295-10 -651.592126055166 125000 -710.218916257072 0 0 99 (C1) n - 1
REM
REM in /rds/project/t2_vol4/rds-t2-cs072/BORA/CARBON/from-Arr/AIRSS/Generating-Clusters/GAP-ML-2020/Only-C1/SD-CG/HFTN-CG
REM
REM
REM
REM
REM
REM ./C.cell (11c1c37f851c82e70ff6c80c92926a4b)
REM AIRSS Version 0.9.1 bugfix July 2018 build 013d7b7c2542+ Fri, 06 Jul 2018 19:26:36 +0100
REM compiler GCC version 9.3.0
REM options -cpp -mtune=generic -march=x86-64 -g -O0
REM seed 116275767 492632283 -2050305897 1258865221 -1867315443 -360572377 -897987538 472954723 124214658 -1188446093 -1235031442 -939399992 -1962135699 1303868123 -656043293 2017917241 -351963626 -1833371304 1427595418 -19370141 1453896843 -1282355175 440950098 1094509349 1758574173 -1268403733 -139931783 -269061500 -1814883411 2044027526 803800911 1254125059 -645139702
REM
CELL 1.54180   50.00000   50.00000   50.00000   90.00000   90.00000   90.00000
LATT -1
SFAC C  
C      1  0.5148060000000  0.5727330000000  0.4989740000000 1.0
C      1  0.5297060000000  0.4155370000000  0.5168090000000 1.0
C      1  0.5091630000000  0.4168870000000  0.5366530000000 1.0
C      1  0.5524200000000  0.5360870000000  0.4542270000000 1.0
C      1  0.5185450000000  0.5027560000000  0.4236270000000 1.0
C      1  0.5134440000000  0.5860930000000  0.5505950000000 1.0
C      1  0.5271300000000  0.5203480000000  0.5135740000000 1.0
C      1  0.4439360000000  0.5408900000000  0.5434090000000 1.0
C      1  0.4704690000000  0.5082960000000  0.4184720000000 1.0
C      1  0.5788280000000  0.5004560000000  0.4685640000000 1.0
C      1  0.4265950000000  0.5480410000000  0.5226980000000 1.0
C      1  0.5185880000000  0.4121840000000  0.4913550000000 1.0
C      1  0.5513010000000  0.4325850000000  0.5219990000000 1.0
C      1  0.5456830000000  0.4431980000000  0.5479330000000 1.0
C      1  0.4846700000000  0.4657630000000  0.5191710000000 1.0
C      1  0.4474560000000  0.4881730000000  0.5563270000000 1.0
C      1  0.4689930000000  0.4516540000000  0.4402440000000 1.0
C      1  0.4965790000000  0.5197480000000  0.5824220000000 1.0
C      1  0.5753830000000  0.4714430000000  0.5109780000000 1.0
C      1  0.4826160000000  0.5384110000000  0.5133650000000 1.0
C      1  0.4493060000000  0.4343340000000  0.4794150000000 1.0
C      1  0.5383660000000  0.5606100000000  0.4604780000000 1.0
C      1  0.5167100000000  0.4803700000000  0.4910360000000 1.0
C      1  0.4902590000000  0.4106200000000  0.4943490000000 1.0
C      1  0.5422380000000  0.5683360000000  0.4880500000000 1.0
C      1  0.4851570000000  0.5200640000000  0.5370260000000 1.0
C      1  0.4779630000000  0.4558970000000  0.5708330000000 1.0
C      1  0.4718550000000  0.4738080000000  0.4964510000000 1.0
C      1  0.4357480000000  0.4821600000000  0.4679170000000 1.0
C      1  0.5073070000000  0.4548470000000  0.5721430000000 1.0
C      1  0.4672410000000  0.4858090000000  0.4026940000000 1.0
C      1  0.5617370000000  0.4877560000000  0.4492700000000 1.0
C      1  0.5612800000000  0.5543540000000  0.5041400000000 1.0
C      1  0.4533760000000  0.5120970000000  0.5396310000000 1.0
C      1  0.5340480000000  0.5025430000000  0.4902940000000 1.0
C      1  0.5933310000000  0.5133810000000  0.5126160000000 1.0
C      1  0.4188920000000  0.5287520000000  0.4710290000000 1.0
C      1  0.4754470000000  0.5697620000000  0.5257490000000 1.0
C      1  0.4906970000000  0.4867090000000  0.4790780000000 1.0
C      1  0.5418890000000  0.5080370000000  0.4401970000000 1.0
C      1  0.4511420000000  0.5218470000000  0.4355530000000 1.0
C      1  0.5730740000000  0.5123400000000  0.5334060000000 1.0
C      1  0.4411540000000  0.4638300000000  0.5432600000000 1.0
C      1  0.5416030000000  0.5227570000000  0.5717680000000 1.0
C      1  0.5524790000000  0.5351000000000  0.5284290000000 1.0
C      1  0.4633750000000  0.5479130000000  0.4392680000000 1.0
C      1  0.4328630000000  0.4599850000000  0.5163070000000 1.0
C      1  0.4173080000000  0.5234250000000  0.5101110000000 1.0
C      1  0.4965850000000  0.5212100000000  0.4220710000000 1.0
C      1  0.4593430000000  0.4436550000000  0.5517340000000 1.0
C      1  0.5769040000000  0.5293340000000  0.4667980000000 1.0
C      1  0.5144440000000  0.4336440000000  0.4489610000000 1.0
C      1  0.4910570000000  0.5410300000000  0.5608930000000 1.0
C      1  0.4841690000000  0.4129150000000  0.5222210000000 1.0
C      1  0.5675830000000  0.4841390000000  0.5369920000000 1.0
C      1  0.4700470000000  0.5793630000000  0.4778100000000 1.0
C      1  0.4309470000000  0.5549730000000  0.4745920000000 1.0
C      1  0.5407140000000  0.5437990000000  0.5547410000000 1.0
C      1  0.5535790000000  0.4425980000000  0.4736820000000 1.0
C      1  0.5087170000000  0.5411680000000  0.5006450000000 1.0
C      1  0.4736630000000  0.4202100000000  0.4739120000000 1.0
C      1  0.5083140000000  0.5034550000000  0.5301210000000 1.0
C      1  0.4918400000000  0.5470090000000  0.4335920000000 1.0
C      1  0.4340570000000  0.5648850000000  0.5016080000000 1.0
C      1  0.4430250000000  0.5084190000000  0.5108100000000 1.0
C      1  0.5272530000000  0.4771590000000  0.5731990000000 1.0
C      1  0.4831580000000  0.5134240000000  0.4763680000000 1.0
C      1  0.4582890000000  0.5788250000000  0.5041220000000 1.0
C      1  0.6061160000000  0.5359500000000  0.5065130000000 1.0
C      1  0.4416280000000  0.4817220000000  0.4975720000000 1.0
C      1  0.4465100000000  0.4560830000000  0.4589290000000 1.0
C      1  0.5268180000000  0.4562100000000  0.4368090000000 1.0
C      1  0.3994060000000  0.5222260000000  0.4898320000000 1.0
C      1  0.4816610000000  0.4702390000000  0.4215040000000 1.0
C      1  0.4644400000000  0.5250290000000  0.4950020000000 1.0
C      1  0.5026800000000  0.5810070000000  0.5260170000000 1.0
C      1  0.5153870000000  0.5590760000000  0.5577960000000 1.0
C      1  0.5843550000000  0.5435810000000  0.4909570000000 1.0
C      1  0.5637430000000  0.4472360000000  0.5008270000000 1.0
C      1  0.4861530000000  0.4319370000000  0.4509980000000 1.0
C      1  0.5505530000000  0.4698440000000  0.5563620000000 1.0
C      1  0.4662960000000  0.4816160000000  0.5770940000000 1.0
C      1  0.5312860000000  0.4250530000000  0.4701490000000 1.0
C      1  0.4973910000000  0.5779110000000  0.4750580000000 1.0
C      1  0.5307000000000  0.5170930000000  0.4657620000000 1.0
C      1  0.4430360000000  0.4352440000000  0.5076540000000 1.0
C      1  0.4776700000000  0.5023630000000  0.5902920000000 1.0
C      1  0.4657790000000  0.5569320000000  0.5510140000000 1.0
C      1  0.5062330000000  0.5316800000000  0.4720420000000 1.0
C      1  0.5086380000000  0.5590340000000  0.4550580000000 1.0
C      1  0.5229620000000  0.5054210000000  0.5807670000000 1.0
C      1  0.5515880000000  0.4615330000000  0.4510540000000 1.0
C      1  0.4531650000000  0.5644150000000  0.4595060000000 1.0
C      1  0.4600680000000  0.4253160000000  0.5291000000000 1.0
C      1  0.5197260000000  0.4341120000000  0.5568640000000 1.0
C      1  0.4327080000000  0.5088580000000  0.4550350000000 1.0
C      1  0.5093090000000  0.4765000000000  0.5191440000000 1.0
C      1  0.5105180000000  0.4754330000000  0.4240800000000 1.0
C      1  0.5876310000000  0.4914070000000  0.4944460000000 1.0
END
