TITL C-215721-9249-1 345.10706960589 125000 -826.093987588571 0 0 116 (C1) n - 1
REM
REM in /rds/project/t2_vol4/rds-t2-cs072/BORA/CARBON/from-Arr/AIRSS/Generating-Clusters/GAP-ML-2020/Only-C1/SD-CG/HFTN-CG
REM
REM
REM
REM
REM
REM ./C.cell (11c1c37f851c82e70ff6c80c92926a4b)
REM AIRSS Version 0.9.1 bugfix July 2018 build 013d7b7c2542+ Fri, 06 Jul 2018 19:26:36 +0100
REM compiler GCC version 9.3.0
REM options -cpp -mtune=generic -march=x86-64 -g -O0
REM seed -57668002 1154515937 1420364058 1268910782 -280876143 1509291089 1641039452 676692008 -1683870508 923967354 1384306750 1795931567 263271369 1951916869 -1050267458 -1105058668 -80409992 1603240066 -1823511519 -209038624 759065008 -415465664 -27618283 -693642731 407629981 547799334 233689279 784405272 -965268911 -676889989 1737896350 -1716974504 1997878135
REM
CELL 1.54180   50.00000   50.00000   50.00000   90.00000   90.00000   90.00000
LATT -1
SFAC C  
C      1  0.4370430000000  0.4507430000000  0.4675540000000 1.0
C      1  0.4469910000000  0.4751840000000  0.4284900000000 1.0
C      1  0.5498640000000  0.5652400000000  0.4597830000000 1.0
C      1  0.4207760000000  0.5255820000000  0.5070970000000 1.0
C      1  0.4978190000000  0.4192120000000  0.5298780000000 1.0
C      1  0.5385620000000  0.4185280000000  0.4990910000000 1.0
C      1  0.5210500000000  0.5434080000000  0.4261010000000 1.0
C      1  0.4822180000000  0.4223590000000  0.4621410000000 1.0
C      1  0.4510890000000  0.5755430000000  0.4612020000000 1.0
C      1  0.4303760000000  0.4455800000000  0.5625480000000 1.0
C      1  0.5031880000000  0.4313360000000  0.4434140000000 1.0
C      1  0.4962770000000  0.5830460000000  0.5293280000000 1.0
C      1  0.4823790000000  0.5307040000000  0.4539830000000 1.0
C      1  0.5044550000000  0.4475040000000  0.5803720000000 1.0
C      1  0.5696390000000  0.5248830000000  0.5030650000000 1.0
C      1  0.4414920000000  0.4265420000000  0.5168740000000 1.0
C      1  0.4867660000000  0.4121430000000  0.4890870000000 1.0
C      1  0.5474910000000  0.4289690000000  0.4731620000000 1.0
C      1  0.4305470000000  0.4310490000000  0.5414740000000 1.0
C      1  0.5703930000000  0.4469700000000  0.4714850000000 1.0
C      1  0.4679910000000  0.5671110000000  0.4240280000000 1.0
C      1  0.5123410000000  0.5577190000000  0.5691360000000 1.0
C      1  0.4520580000000  0.5750610000000  0.5096640000000 1.0
C      1  0.5552910000000  0.5557120000000  0.5368240000000 1.0
C      1  0.4642620000000  0.4718330000000  0.5891270000000 1.0
C      1  0.5465710000000  0.4844690000000  0.4914770000000 1.0
C      1  0.4372920000000  0.5219170000000  0.5572310000000 1.0
C      1  0.5027740000000  0.4725040000000  0.4126810000000 1.0
C      1  0.4301950000000  0.5362850000000  0.5328640000000 1.0
C      1  0.5779130000000  0.4396000000000  0.5183740000000 1.0
C      1  0.4811110000000  0.4865070000000  0.4626770000000 1.0
C      1  0.4854210000000  0.5185040000000  0.5265080000000 1.0
C      1  0.5358410000000  0.5309040000000  0.5042480000000 1.0
C      1  0.4335790000000  0.5373370000000  0.4355300000000 1.0
C      1  0.4421030000000  0.5636900000000  0.4371160000000 1.0
C      1  0.4698500000000  0.4517570000000  0.5052810000000 1.0
C      1  0.4248740000000  0.5420140000000  0.4839770000000 1.0
C      1  0.5614170000000  0.4607860000000  0.5564120000000 1.0
C      1  0.5256300000000  0.4950860000000  0.4734470000000 1.0
C      1  0.5770150000000  0.5471770000000  0.4856020000000 1.0
C      1  0.4683300000000  0.4712470000000  0.5267300000000 1.0
C      1  0.5735060000000  0.4952060000000  0.4570870000000 1.0
C      1  0.4575610000000  0.4976370000000  0.4134190000000 1.0
C      1  0.5419330000000  0.5639480000000  0.5108570000000 1.0
C      1  0.5311730000000  0.5199000000000  0.5897310000000 1.0
C      1  0.5585020000000  0.5695100000000  0.4873840000000 1.0
C      1  0.4990780000000  0.4886980000000  0.5609840000000 1.0
C      1  0.4713070000000  0.4972850000000  0.5135490000000 1.0
C      1  0.5517150000000  0.5329650000000  0.5753500000000 1.0
C      1  0.4400720000000  0.5665280000000  0.4853800000000 1.0
C      1  0.5065490000000  0.5121220000000  0.5432810000000 1.0
C      1  0.4391260000000  0.4703460000000  0.5744560000000 1.0
C      1  0.4586760000000  0.5364810000000  0.5713410000000 1.0
C      1  0.5276290000000  0.4761980000000  0.4246870000000 1.0
C      1  0.5184960000000  0.5817670000000  0.5103280000000 1.0
C      1  0.5748280000000  0.4980800000000  0.4881880000000 1.0
C      1  0.4815560000000  0.4949150000000  0.5836920000000 1.0
C      1  0.5061530000000  0.5350780000000  0.5864870000000 1.0
C      1  0.5597550000000  0.4877600000000  0.5686920000000 1.0
C      1  0.5122360000000  0.4679000000000  0.5186210000000 1.0
C      1  0.4851280000000  0.5395000000000  0.5078420000000 1.0
C      1  0.5441470000000  0.4572400000000  0.4365590000000 1.0
C      1  0.5376220000000  0.4919230000000  0.5868710000000 1.0
C      1  0.4404960000000  0.4805710000000  0.5326030000000 1.0
C      1  0.5968390000000  0.4796130000000  0.5281010000000 1.0
C      1  0.4380370000000  0.4509350000000  0.4966590000000 1.0
C      1  0.4740370000000  0.5017020000000  0.4851090000000 1.0
C      1  0.5863880000000  0.4511900000000  0.4939230000000 1.0
C      1  0.5408830000000  0.5553350000000  0.5616150000000 1.0
C      1  0.4226290000000  0.5260110000000  0.4599070000000 1.0
C      1  0.4941870000000  0.4669770000000  0.5420870000000 1.0
C      1  0.4458670000000  0.5607420000000  0.5335010000000 1.0
C      1  0.5713090000000  0.5314910000000  0.5337060000000 1.0
C      1  0.4808040000000  0.4495560000000  0.5920490000000 1.0
C      1  0.4640350000000  0.5602030000000  0.5560750000000 1.0
C      1  0.5646150000000  0.5198390000000  0.4443150000000 1.0
C      1  0.4794350000000  0.5236960000000  0.5866920000000 1.0
C      1  0.5188970000000  0.5226320000000  0.4821810000000 1.0
C      1  0.5272830000000  0.5109180000000  0.5249320000000 1.0
C      1  0.4780730000000  0.5869840000000  0.5076090000000 1.0
C      1  0.4341540000000  0.4934760000000  0.5572560000000 1.0
C      1  0.5235860000000  0.4997820000000  0.4415670000000 1.0
C      1  0.5525110000000  0.4285100000000  0.5224700000000 1.0
C      1  0.5343100000000  0.4849770000000  0.5164240000000 1.0
C      1  0.4296420000000  0.4745280000000  0.4527190000000 1.0
C      1  0.4728310000000  0.5432120000000  0.4102250000000 1.0
C      1  0.4909660000000  0.5705900000000  0.5542600000000 1.0
C      1  0.4992500000000  0.4586680000000  0.4961810000000 1.0
C      1  0.4775700000000  0.5797960000000  0.4481180000000 1.0
C      1  0.5316190000000  0.4344920000000  0.4494780000000 1.0
C      1  0.4979640000000  0.5304150000000  0.4109270000000 1.0
C      1  0.5009980000000  0.5859230000000  0.4878900000000 1.0
C      1  0.4908800000000  0.4493710000000  0.4237380000000 1.0
C      1  0.5667790000000  0.4673540000000  0.4511790000000 1.0
C      1  0.5678780000000  0.5153710000000  0.5589280000000 1.0
C      1  0.5838680000000  0.4581580000000  0.5395930000000 1.0
C      1  0.4192570000000  0.4981280000000  0.4671420000000 1.0
C      1  0.5029450000000  0.5802250000000  0.4597040000000 1.0
C      1  0.4165860000000  0.4979150000000  0.4960760000000 1.0
C      1  0.5112190000000  0.4112430000000  0.5054230000000 1.0
C      1  0.4634180000000  0.4518860000000  0.4303010000000 1.0
C      1  0.5696400000000  0.5438560000000  0.4576770000000 1.0
C      1  0.5026690000000  0.4769790000000  0.4761510000000 1.0
C      1  0.4877000000000  0.4987980000000  0.4128890000000 1.0
C      1  0.5099780000000  0.4385590000000  0.5505290000000 1.0
C      1  0.5247650000000  0.5661970000000  0.4456300000000 1.0
C      1  0.5412720000000  0.4405160000000  0.5462230000000 1.0
C      1  0.5143600000000  0.4761710000000  0.5825990000000 1.0
C      1  0.4887830000000  0.5282270000000  0.4816730000000 1.0
C      1  0.5387460000000  0.5218860000000  0.4313390000000 1.0
C      1  0.4509720000000  0.5248570000000  0.4161520000000 1.0
C      1  0.4719060000000  0.4231840000000  0.5132850000000 1.0
C      1  0.4930560000000  0.5053920000000  0.4413200000000 1.0
C      1  0.4249830000000  0.4745680000000  0.5094180000000 1.0
C      1  0.5936640000000  0.4786990000000  0.5005860000000 1.0
C      1  0.4584430000000  0.4369600000000  0.4540140000000 1.0
END
