TITL C-21689-8317-8 797.751754034075 125000 -836.8047567792 0 0 122 (C1) n - 1
REM
REM in /rds/project/t2_vol4/rds-t2-cs072/BORA/CARBON/from-Arr/AIRSS/Generating-Clusters/GAP-ML-2020/Only-C1/SD-CG/HFTN-CG
REM
REM
REM
REM
REM
REM ./C.cell (11c1c37f851c82e70ff6c80c92926a4b)
REM AIRSS Version 0.9.1 bugfix July 2018 build 013d7b7c2542+ Fri, 06 Jul 2018 19:26:36 +0100
REM compiler GCC version 9.3.0
REM options -cpp -mtune=generic -march=x86-64 -g -O0
REM seed -1448661175 408433332 861372664 -1415608954 -736772597 -967591407 -1991110536 -677402255 509349351 -1556747167 -308631393 439095060 -1545152135 1408454957 -1411147813 804600641 2100737013 -646463745 170286023 -1418355235 1888299452 1704515046 261731983 852966075 -398504756 -620340348 641931881 1669842479 -1359230417 1934019766 1849061572 -1752455028 364975782
REM
CELL 1.54180   50.00000   50.00000   50.00000   90.00000   90.00000   90.00000
LATT -1
SFAC C  
C      1  0.4768820000000  0.5686400000000  0.4721410000000 1.0
C      1  0.5729280000000  0.5436240000000  0.4408650000000 1.0
C      1  0.5735130000000  0.4860230000000  0.5495630000000 1.0
C      1  0.4802530000000  0.5288910000000  0.5806140000000 1.0
C      1  0.5236140000000  0.5010950000000  0.4982830000000 1.0
C      1  0.4239020000000  0.5325860000000  0.4628550000000 1.0
C      1  0.4605890000000  0.4336070000000  0.4744980000000 1.0
C      1  0.4095390000000  0.5208790000000  0.4870010000000 1.0
C      1  0.4439280000000  0.4894260000000  0.5698710000000 1.0
C      1  0.4027020000000  0.4628570000000  0.4643510000000 1.0
C      1  0.5444470000000  0.5918080000000  0.4927200000000 1.0
C      1  0.5055610000000  0.5861560000000  0.5216230000000 1.0
C      1  0.5577660000000  0.5863650000000  0.5155670000000 1.0
C      1  0.5300440000000  0.4219580000000  0.5257490000000 1.0
C      1  0.4997800000000  0.4675840000000  0.5266050000000 1.0
C      1  0.4185630000000  0.5206160000000  0.5443930000000 1.0
C      1  0.5527170000000  0.5219970000000  0.4363760000000 1.0
C      1  0.5784330000000  0.4441380000000  0.5292640000000 1.0
C      1  0.5500850000000  0.5848490000000  0.4645400000000 1.0
C      1  0.4649260000000  0.5256610000000  0.4892420000000 1.0
C      1  0.5641910000000  0.5598970000000  0.4642750000000 1.0
C      1  0.5489540000000  0.4906850000000  0.4830660000000 1.0
C      1  0.4813360000000  0.5032190000000  0.4229370000000 1.0
C      1  0.5802690000000  0.4967940000000  0.5225470000000 1.0
C      1  0.5239990000000  0.4792890000000  0.4445080000000 1.0
C      1  0.5902450000000  0.5437180000000  0.4622010000000 1.0
C      1  0.5191720000000  0.5461200000000  0.4780070000000 1.0
C      1  0.5094970000000  0.4625280000000  0.4242330000000 1.0
C      1  0.4142890000000  0.5448190000000  0.5013760000000 1.0
C      1  0.5505210000000  0.5618290000000  0.5299370000000 1.0
C      1  0.5599570000000  0.5482080000000  0.5542370000000 1.0
C      1  0.5042650000000  0.4767520000000  0.4979690000000 1.0
C      1  0.4706070000000  0.5036740000000  0.5271130000000 1.0
C      1  0.5178630000000  0.4044320000000  0.5074160000000 1.0
C      1  0.5296320000000  0.4669390000000  0.5344850000000 1.0
C      1  0.4658430000000  0.4599040000000  0.4641340000000 1.0
C      1  0.4935170000000  0.4191870000000  0.5054270000000 1.0
C      1  0.5262830000000  0.5308740000000  0.5838010000000 1.0
C      1  0.4925920000000  0.4346730000000  0.5572890000000 1.0
C      1  0.4049540000000  0.4973820000000  0.5032000000000 1.0
C      1  0.5821080000000  0.4630150000000  0.4529050000000 1.0
C      1  0.4272950000000  0.4760650000000  0.5503700000000 1.0
C      1  0.4537460000000  0.5790640000000  0.5149150000000 1.0
C      1  0.4452130000000  0.4289940000000  0.5616860000000 1.0
C      1  0.5082010000000  0.5463400000000  0.4164920000000 1.0
C      1  0.4749350000000  0.5414530000000  0.4628410000000 1.0
C      1  0.5215290000000  0.4275160000000  0.5515250000000 1.0
C      1  0.4686400000000  0.4190180000000  0.5664960000000 1.0
C      1  0.4539670000000  0.5623430000000  0.5589230000000 1.0
C      1  0.5712930000000  0.4746660000000  0.4325000000000 1.0
C      1  0.4558700000000  0.4847680000000  0.5107760000000 1.0
C      1  0.4980330000000  0.4982810000000  0.4519850000000 1.0
C      1  0.5395810000000  0.4481350000000  0.5120930000000 1.0
C      1  0.5862950000000  0.5225790000000  0.4803560000000 1.0
C      1  0.5203250000000  0.5645620000000  0.5321070000000 1.0
C      1  0.4829770000000  0.4816580000000  0.4737470000000 1.0
C      1  0.4524340000000  0.5738780000000  0.4867750000000 1.0
C      1  0.4491350000000  0.5006480000000  0.4240050000000 1.0
C      1  0.5486430000000  0.4390620000000  0.4620560000000 1.0
C      1  0.4548450000000  0.5379600000000  0.5737140000000 1.0
C      1  0.5350330000000  0.4957920000000  0.5424240000000 1.0
C      1  0.4662050000000  0.4483130000000  0.4383530000000 1.0
C      1  0.5056710000000  0.5749650000000  0.4744310000000 1.0
C      1  0.5303150000000  0.3975810000000  0.4836780000000 1.0
C      1  0.4384800000000  0.4525770000000  0.4303840000000 1.0
C      1  0.4546370000000  0.4517920000000  0.5189910000000 1.0
C      1  0.4376390000000  0.4501370000000  0.5437620000000 1.0
C      1  0.4125680000000  0.4956990000000  0.5328500000000 1.0
C      1  0.4363690000000  0.5170290000000  0.5671710000000 1.0
C      1  0.4200810000000  0.5445240000000  0.5286240000000 1.0
C      1  0.5171910000000  0.5066740000000  0.5965270000000 1.0
C      1  0.4784310000000  0.5872720000000  0.5292920000000 1.0
C      1  0.4879520000000  0.5040840000000  0.5925150000000 1.0
C      1  0.4941880000000  0.4409400000000  0.4345000000000 1.0
C      1  0.5543080000000  0.4995380000000  0.5664840000000 1.0
C      1  0.4844120000000  0.4411530000000  0.5255170000000 1.0
C      1  0.4955390000000  0.4588390000000  0.5761040000000 1.0
C      1  0.5217270000000  0.4555300000000  0.4897270000000 1.0
C      1  0.5267860000000  0.5003170000000  0.4078800000000 1.0
C      1  0.4839440000000  0.5269660000000  0.5126140000000 1.0
C      1  0.4004600000000  0.4775660000000  0.4848260000000 1.0
C      1  0.4825690000000  0.5326530000000  0.4184600000000 1.0
C      1  0.5673600000000  0.4574940000000  0.5499030000000 1.0
C      1  0.5705640000000  0.4812090000000  0.5010030000000 1.0
C      1  0.4299070000000  0.5568480000000  0.4795600000000 1.0
C      1  0.5007710000000  0.5267160000000  0.4623330000000 1.0
C      1  0.4421230000000  0.4340860000000  0.4983280000000 1.0
C      1  0.4748950000000  0.5801340000000  0.5558570000000 1.0
C      1  0.5473880000000  0.5416440000000  0.4814550000000 1.0
C      1  0.5381160000000  0.4504950000000  0.5597420000000 1.0
C      1  0.4872550000000  0.4887810000000  0.5446840000000 1.0
C      1  0.5035500000000  0.4245280000000  0.4562220000000 1.0
C      1  0.4387500000000  0.5247400000000  0.4385060000000 1.0
C      1  0.5359190000000  0.4875440000000  0.5885760000000 1.0
C      1  0.5236720000000  0.5821720000000  0.4507920000000 1.0
C      1  0.4356090000000  0.4776040000000  0.4190220000000 1.0
C      1  0.5550790000000  0.5365000000000  0.5111010000000 1.0
C      1  0.4612640000000  0.4964850000000  0.4858110000000 1.0
C      1  0.5063850000000  0.5234420000000  0.4910990000000 1.0
C      1  0.5735120000000  0.4448770000000  0.4734960000000 1.0
C      1  0.4310510000000  0.4288080000000  0.4743030000000 1.0
C      1  0.5082170000000  0.5381680000000  0.5336170000000 1.0
C      1  0.4850770000000  0.4206140000000  0.4783180000000 1.0
C      1  0.5478620000000  0.4919550000000  0.4284640000000 1.0
C      1  0.5019730000000  0.4858320000000  0.4082710000000 1.0
C      1  0.5237250000000  0.4634570000000  0.5811330000000 1.0
C      1  0.5096620000000  0.5040230000000  0.5528770000000 1.0
C      1  0.4387610000000  0.5643300000000  0.5345740000000 1.0
C      1  0.4754150000000  0.4824220000000  0.5753570000000 1.0
C      1  0.5695240000000  0.4522000000000  0.5031030000000 1.0
C      1  0.5165140000000  0.5698680000000  0.4281310000000 1.0
C      1  0.5364500000000  0.4659410000000  0.4674060000000 1.0
C      1  0.4619900000000  0.5407280000000  0.4368230000000 1.0
C      1  0.5296240000000  0.5268570000000  0.4165150000000 1.0
C      1  0.4204230000000  0.4451980000000  0.4535820000000 1.0
C      1  0.5045270000000  0.5323230000000  0.5636020000000 1.0
C      1  0.5326530000000  0.5172260000000  0.5219910000000 1.0
C      1  0.5517280000000  0.5292250000000  0.5707870000000 1.0
C      1  0.5305380000000  0.4168310000000  0.4640440000000 1.0
C      1  0.5811900000000  0.5216150000000  0.5087250000000 1.0
C      1  0.5571620000000  0.5157710000000  0.4691720000000 1.0
C      1  0.5160880000000  0.5916800000000  0.4960540000000 1.0
END
