TITL C-21701-8249-11 231.755129931471 125000 -519.17709406149 0 0 76 (C1) n - 1
REM
REM in /rds/project/t2_vol4/rds-t2-cs072/BORA/CARBON/from-Arr/AIRSS/Generating-Clusters/GAP-ML-2020/Only-C1/SD-CG/HFTN-CG
REM
REM
REM
REM
REM
REM ./C.cell (11c1c37f851c82e70ff6c80c92926a4b)
REM AIRSS Version 0.9.1 bugfix July 2018 build 013d7b7c2542+ Fri, 06 Jul 2018 19:26:36 +0100
REM compiler GCC version 9.3.0
REM options -cpp -mtune=generic -march=x86-64 -g -O0
REM seed -1453908113 -53692536 -1394342494 -787236655 -744051057 1212336286 962414906 -136544773 -1249801134 -246668524 1023598391 -1022061608 306303896 2026664157 -1017672800 -111405898 -1422511043 -2030276060 1645194353 -893759991 -1038355499 375099243 1149078979 -1645923716 1734811236 -851074149 -343730868 -1597885002 -1405883885 766252427 -964899038 2115286183 -1199821895
REM
CELL 1.54180   50.00000   50.00000   50.00000   90.00000   90.00000   90.00000
LATT -1
SFAC C  
C      1  0.4577990000000  0.4709260000000  0.4549780000000 1.0
C      1  0.4307850000000  0.5285440000000  0.5141410000000 1.0
C      1  0.5722760000000  0.5117910000000  0.5237190000000 1.0
C      1  0.4656520000000  0.5341050000000  0.4539220000000 1.0
C      1  0.5612090000000  0.5347610000000  0.4700300000000 1.0
C      1  0.4405710000000  0.5348400000000  0.4674810000000 1.0
C      1  0.5191050000000  0.5559720000000  0.5260640000000 1.0
C      1  0.5258570000000  0.5040770000000  0.4945080000000 1.0
C      1  0.5294440000000  0.4349490000000  0.4871250000000 1.0
C      1  0.4376130000000  0.4882570000000  0.4564440000000 1.0
C      1  0.4278290000000  0.5089070000000  0.4705700000000 1.0
C      1  0.4941650000000  0.4831420000000  0.5247030000000 1.0
C      1  0.5548320000000  0.5504120000000  0.4945940000000 1.0
C      1  0.5409710000000  0.4665540000000  0.4480090000000 1.0
C      1  0.5451880000000  0.5435340000000  0.4481950000000 1.0
C      1  0.5412710000000  0.4810040000000  0.5525450000000 1.0
C      1  0.5616780000000  0.5032800000000  0.5490130000000 1.0
C      1  0.5142560000000  0.5726330000000  0.4772190000000 1.0
C      1  0.4853230000000  0.5696040000000  0.4740360000000 1.0
C      1  0.5000860000000  0.4582230000000  0.4279420000000 1.0
C      1  0.4655230000000  0.5650570000000  0.4947810000000 1.0
C      1  0.4923740000000  0.5619150000000  0.5398050000000 1.0
C      1  0.5437010000000  0.5242970000000  0.5571070000000 1.0
C      1  0.4442840000000  0.4584120000000  0.5009920000000 1.0
C      1  0.5440110000000  0.5466190000000  0.5396480000000 1.0
C      1  0.4890270000000  0.4233330000000  0.5199900000000 1.0
C      1  0.5747570000000  0.4967470000000  0.5001620000000 1.0
C      1  0.5305220000000  0.5665440000000  0.4999910000000 1.0
C      1  0.4750110000000  0.5006140000000  0.5384470000000 1.0
C      1  0.4816640000000  0.5563470000000  0.4483060000000 1.0
C      1  0.5229210000000  0.4434460000000  0.5500050000000 1.0
C      1  0.4724320000000  0.5562150000000  0.5199470000000 1.0
C      1  0.5639010000000  0.4710850000000  0.4916150000000 1.0
C      1  0.4971080000000  0.4968640000000  0.4477770000000 1.0
C      1  0.5250110000000  0.5302620000000  0.4292430000000 1.0
C      1  0.4412530000000  0.5478040000000  0.4924740000000 1.0
C      1  0.5047260000000  0.5303090000000  0.5129390000000 1.0
C      1  0.5302250000000  0.4403540000000  0.4588420000000 1.0
C      1  0.5397750000000  0.4583980000000  0.5027590000000 1.0
C      1  0.5256920000000  0.4749890000000  0.4228890000000 1.0
C      1  0.5226710000000  0.4651980000000  0.5696370000000 1.0
C      1  0.4951540000000  0.4734370000000  0.5726890000000 1.0
C      1  0.4748590000000  0.5055340000000  0.4921800000000 1.0
C      1  0.4764730000000  0.5249880000000  0.5761690000000 1.0
C      1  0.5068000000000  0.5522230000000  0.4357270000000 1.0
C      1  0.4344340000000  0.4826240000000  0.5120210000000 1.0
C      1  0.4670820000000  0.4581200000000  0.4805850000000 1.0
C      1  0.5029470000000  0.4385630000000  0.4488550000000 1.0
C      1  0.4787490000000  0.4536770000000  0.5596960000000 1.0
C      1  0.4614730000000  0.4194850000000  0.5200370000000 1.0
C      1  0.4378550000000  0.5198280000000  0.5420750000000 1.0
C      1  0.5184430000000  0.4812990000000  0.4628200000000 1.0
C      1  0.5167040000000  0.5033980000000  0.4249300000000 1.0
C      1  0.4912170000000  0.5017740000000  0.5649520000000 1.0
C      1  0.4784890000000  0.5490110000000  0.5612010000000 1.0
C      1  0.5627270000000  0.4792900000000  0.4641520000000 1.0
C      1  0.4485750000000  0.4431020000000  0.5247300000000 1.0
C      1  0.4964160000000  0.4345010000000  0.5460840000000 1.0
C      1  0.5163500000000  0.4778860000000  0.4894490000000 1.0
C      1  0.5265400000000  0.5651960000000  0.4525170000000 1.0
C      1  0.5707860000000  0.5069870000000  0.4731230000000 1.0
C      1  0.4536910000000  0.5342510000000  0.5614880000000 1.0
C      1  0.5095340000000  0.5252630000000  0.4832830000000 1.0
C      1  0.4870920000000  0.4789370000000  0.4971750000000 1.0
C      1  0.5403890000000  0.4576870000000  0.5324550000000 1.0
C      1  0.5158890000000  0.5050600000000  0.5230760000000 1.0
C      1  0.4769040000000  0.5232230000000  0.5173550000000 1.0
C      1  0.4467470000000  0.4889700000000  0.5385560000000 1.0
C      1  0.5207380000000  0.5064550000000  0.5533600000000 1.0
C      1  0.4236730000000  0.5053450000000  0.4990310000000 1.0
C      1  0.4794380000000  0.4758070000000  0.4363060000000 1.0
C      1  0.5026830000000  0.4265020000000  0.4942400000000 1.0
C      1  0.5628310000000  0.5395410000000  0.5194940000000 1.0
C      1  0.4860820000000  0.5158730000000  0.4677400000000 1.0
C      1  0.4858310000000  0.4356640000000  0.4726310000000 1.0
C      1  0.4539040000000  0.4601730000000  0.5472240000000 1.0
END
