TITL C-21918-1829-7 0.0229710873429099 125000 -338.098447889862 0 0 51 (C1) n - 1
REM
REM in /rds/project/t2_vol4/rds-t2-cs072/BORA/CARBON/from-Arr/AIRSS/Generating-Clusters/GAP-ML-2020/Only-C1/SD-CG/HFTN-CG
REM
REM
REM
REM
REM
REM ./C.cell (11c1c37f851c82e70ff6c80c92926a4b)
REM AIRSS Version 0.9.1 bugfix July 2018 build 013d7b7c2542+ Fri, 06 Jul 2018 19:26:36 +0100
REM compiler GCC version 9.3.0
REM options -cpp -mtune=generic -march=x86-64 -g -O0
REM seed 28369462 -1064774539 1370381572 -723696788 -1189213301 -899805022 -2090185364 -1602642485 67211900 1599004614 -704006282 1065772054 -565238962 -128381541 608324350 1231859104 548325597 1171965650 -927246323 600800662 818413808 -1464868673 560935022 1751848162 1295072397 69787168 1771520717 371350096 -902405912 -1163586172 149518051 -1436712568 599022759
REM
CELL 1.54180   50.00000   50.00000   50.00000   90.00000   90.00000   90.00000
LATT -1
SFAC C  
C      1  0.5625000000000  0.5108530000000  0.4705600000000 1.0
C      1  0.4453520000000  0.4968640000000  0.4857460000000 1.0
C      1  0.5194770000000  0.4953050000000  0.4870280000000 1.0
C      1  0.4435060000000  0.4676580000000  0.4831170000000 1.0
C      1  0.5123470000000  0.4388170000000  0.4729230000000 1.0
C      1  0.4831680000000  0.4699240000000  0.4435140000000 1.0
C      1  0.5379900000000  0.4504880000000  0.4808630000000 1.0
C      1  0.4504760000000  0.4535490000000  0.5067100000000 1.0
C      1  0.4879540000000  0.5019610000000  0.5202340000000 1.0
C      1  0.5081840000000  0.4598500000000  0.4532500000000 1.0
C      1  0.5416850000000  0.4453860000000  0.5086290000000 1.0
C      1  0.4562540000000  0.4656360000000  0.5331370000000 1.0
C      1  0.4645360000000  0.5108300000000  0.5577820000000 1.0
C      1  0.4922030000000  0.4905710000000  0.4945090000000 1.0
C      1  0.4751860000000  0.5300310000000  0.5142250000000 1.0
C      1  0.4924290000000  0.5525190000000  0.5033890000000 1.0
C      1  0.4825290000000  0.4986470000000  0.4454650000000 1.0
C      1  0.5067330000000  0.5501290000000  0.4775570000000 1.0
C      1  0.4990370000000  0.5203190000000  0.4402540000000 1.0
C      1  0.4722340000000  0.4958750000000  0.4731920000000 1.0
C      1  0.4771400000000  0.4449400000000  0.5371220000000 1.0
C      1  0.4986600000000  0.4285200000000  0.4974670000000 1.0
C      1  0.5362610000000  0.4965570000000  0.5132480000000 1.0
C      1  0.5280710000000  0.5147040000000  0.5566250000000 1.0
C      1  0.5527780000000  0.5210670000000  0.5160300000000 1.0
C      1  0.5562230000000  0.5576480000000  0.4778000000000 1.0
C      1  0.5269810000000  0.5178500000000  0.4466400000000 1.0
C      1  0.5481300000000  0.4974370000000  0.4517000000000 1.0
C      1  0.4755310000000  0.5432380000000  0.5409730000000 1.0
C      1  0.5213140000000  0.5521800000000  0.5476370000000 1.0
C      1  0.5146270000000  0.4970980000000  0.5363750000000 1.0
C      1  0.5182950000000  0.4302860000000  0.5183140000000 1.0
C      1  0.5435030000000  0.5340130000000  0.5398270000000 1.0
C      1  0.4299240000000  0.5209800000000  0.4891940000000 1.0
C      1  0.4392530000000  0.5414370000000  0.4720510000000 1.0
C      1  0.5104680000000  0.5332160000000  0.5689660000000 1.0
C      1  0.4485860000000  0.5132660000000  0.5106480000000 1.0
C      1  0.5624780000000  0.5302650000000  0.4896610000000 1.0
C      1  0.5209020000000  0.4683180000000  0.5432230000000 1.0
C      1  0.5188000000000  0.5220520000000  0.4736700000000 1.0
C      1  0.4817950000000  0.5298390000000  0.5649950000000 1.0
C      1  0.4724730000000  0.4343920000000  0.5099360000000 1.0
C      1  0.4878670000000  0.5438610000000  0.4550670000000 1.0
C      1  0.5429850000000  0.4687870000000  0.5246350000000 1.0
C      1  0.4985630000000  0.5583000000000  0.5309050000000 1.0
C      1  0.5055250000000  0.4446180000000  0.5406170000000 1.0
C      1  0.5311340000000  0.4764680000000  0.4653590000000 1.0
C      1  0.4607240000000  0.4944780000000  0.5339750000000 1.0
C      1  0.4636010000000  0.4656000000000  0.4634010000000 1.0
C      1  0.5329380000000  0.5664450000000  0.4723230000000 1.0
C      1  0.4606920000000  0.5469270000000  0.4595320000000 1.0
END
