TITL C-21713-8264-4 1462.28230837465 125000 -540.123209238946 0 0 77 (C1) n - 1
REM
REM in /rds/project/t2_vol4/rds-t2-cs072/BORA/CARBON/from-Arr/AIRSS/Generating-Clusters/GAP-ML-2020/Only-C1/SD-CG/HFTN-CG
REM
REM
REM
REM
REM
REM ./C.cell (11c1c37f851c82e70ff6c80c92926a4b)
REM AIRSS Version 0.9.1 bugfix July 2018 build 013d7b7c2542+ Fri, 06 Jul 2018 19:26:36 +0100
REM compiler GCC version 9.3.0
REM options -cpp -mtune=generic -march=x86-64 -g -O0
REM seed 1412632962 1768244849 1330080821 727693614 -1343559967 200158614 -1971512086 1469144366 1065624228 1043379738 -1410416343 -176584503 573860101 -579454715 -1471942360 -2086081406 1751263285 1480868123 958081947 -1287797852 -209237063 1797703557 408026509 876206416 1043007778 2103645173 -8973591 1192279188 -964131910 521760672 -941082570 1771850233 883544471
REM
CELL 1.54180   50.00000   50.00000   50.00000   90.00000   90.00000   90.00000
LATT -1
SFAC C  
C      1  0.5360790000000  0.5380840000000  0.5673180000000 1.0
C      1  0.5512180000000  0.5452740000000  0.5443440000000 1.0
C      1  0.5642990000000  0.4827780000000  0.5481370000000 1.0
C      1  0.4836680000000  0.4744990000000  0.4779120000000 1.0
C      1  0.5479330000000  0.4720150000000  0.4432220000000 1.0
C      1  0.4625410000000  0.4353940000000  0.5252730000000 1.0
C      1  0.4270250000000  0.5336200000000  0.5293350000000 1.0
C      1  0.4534430000000  0.5407360000000  0.5417760000000 1.0
C      1  0.5525840000000  0.5212450000000  0.4512120000000 1.0
C      1  0.5098960000000  0.5681660000000  0.5416220000000 1.0
C      1  0.4626990000000  0.5264780000000  0.5661550000000 1.0
C      1  0.5226450000000  0.4854730000000  0.5069290000000 1.0
C      1  0.4691160000000  0.5213480000000  0.5179250000000 1.0
C      1  0.5141270000000  0.4365950000000  0.4483320000000 1.0
C      1  0.4566480000000  0.5071190000000  0.4965470000000 1.0
C      1  0.4215760000000  0.4899980000000  0.4711470000000 1.0
C      1  0.5171310000000  0.5655030000000  0.4861410000000 1.0
C      1  0.5763650000000  0.5034650000000  0.5297540000000 1.0
C      1  0.5260990000000  0.5042560000000  0.4171690000000 1.0
C      1  0.5514170000000  0.4451590000000  0.4828950000000 1.0
C      1  0.4720350000000  0.5159220000000  0.4722170000000 1.0
C      1  0.4249310000000  0.5048640000000  0.5243590000000 1.0
C      1  0.5119740000000  0.5002610000000  0.5279740000000 1.0
C      1  0.4626950000000  0.4755920000000  0.4994730000000 1.0
C      1  0.5489680000000  0.4989800000000  0.4338410000000 1.0
C      1  0.5225210000000  0.4324980000000  0.5183940000000 1.0
C      1  0.5656050000000  0.4629770000000  0.5252590000000 1.0
C      1  0.4685330000000  0.4916170000000  0.4549710000000 1.0
C      1  0.4902850000000  0.5301410000000  0.5749580000000 1.0
C      1  0.4277680000000  0.5003800000000  0.4954700000000 1.0
C      1  0.5022660000000  0.4876070000000  0.5537980000000 1.0
C      1  0.4412010000000  0.4789490000000  0.4555910000000 1.0
C      1  0.5076910000000  0.4837630000000  0.4219400000000 1.0
C      1  0.4489330000000  0.4502710000000  0.4865070000000 1.0
C      1  0.4806750000000  0.5422400000000  0.4584680000000 1.0
C      1  0.4917980000000  0.5742960000000  0.4961400000000 1.0
C      1  0.5355820000000  0.5639410000000  0.5295300000000 1.0
C      1  0.5095500000000  0.5501380000000  0.5651920000000 1.0
C      1  0.4798780000000  0.4216450000000  0.5411200000000 1.0
C      1  0.4463360000000  0.4503830000000  0.4579070000000 1.0
C      1  0.4701930000000  0.5643860000000  0.4763690000000 1.0
C      1  0.5296390000000  0.4305370000000  0.4718290000000 1.0
C      1  0.5491340000000  0.4442030000000  0.5120160000000 1.0
C      1  0.4965660000000  0.5197890000000  0.5141420000000 1.0
C      1  0.5401780000000  0.5598160000000  0.5017980000000 1.0
C      1  0.5060530000000  0.5055100000000  0.5762430000000 1.0
C      1  0.5021640000000  0.4390500000000  0.5389940000000 1.0
C      1  0.4867170000000  0.4269740000000  0.4551080000000 1.0
C      1  0.4827860000000  0.4991820000000  0.4298470000000 1.0
C      1  0.4536480000000  0.5004400000000  0.5626870000000 1.0
C      1  0.4858380000000  0.4203370000000  0.4835680000000 1.0
C      1  0.4436930000000  0.4879170000000  0.5407410000000 1.0
C      1  0.5592780000000  0.5370190000000  0.4988970000000 1.0
C      1  0.4441040000000  0.5661250000000  0.4867900000000 1.0
C      1  0.5124380000000  0.4226290000000  0.4934920000000 1.0
C      1  0.5664800000000  0.5294080000000  0.5256170000000 1.0
C      1  0.4888410000000  0.4645070000000  0.5465520000000 1.0
C      1  0.4628820000000  0.4667680000000  0.5291190000000 1.0
C      1  0.5227060000000  0.4602740000000  0.4340530000000 1.0
C      1  0.4613480000000  0.4323210000000  0.4442150000000 1.0
C      1  0.5297010000000  0.5386330000000  0.4452830000000 1.0
C      1  0.5344760000000  0.5111790000000  0.5771900000000 1.0
C      1  0.4870420000000  0.5283180000000  0.4296960000000 1.0
C      1  0.4248850000000  0.5533640000000  0.5077640000000 1.0
C      1  0.4608650000000  0.5677870000000  0.5322750000000 1.0
C      1  0.4415060000000  0.5748610000000  0.5129080000000 1.0
C      1  0.5609810000000  0.4674200000000  0.4681130000000 1.0
C      1  0.5081190000000  0.4876550000000  0.4842950000000 1.0
C      1  0.5713010000000  0.4901700000000  0.4824310000000 1.0
C      1  0.5644120000000  0.5182590000000  0.4769590000000 1.0
C      1  0.5147170000000  0.5300410000000  0.4224120000000 1.0
C      1  0.5006570000000  0.5166740000000  0.4842110000000 1.0
C      1  0.5113720000000  0.5456650000000  0.4661870000000 1.0
C      1  0.4874930000000  0.5749420000000  0.5249680000000 1.0
C      1  0.4625650000000  0.4288010000000  0.4982070000000 1.0
C      1  0.5775600000000  0.4841150000000  0.5087710000000 1.0
C      1  0.5519310000000  0.4912500000000  0.5699990000000 1.0
END
