TITL C-21082-1295-10 90.8685074488558 125000 -954.850090949613 0 0 137 (C1) n - 1
REM
REM in /rds/project/t2_vol4/rds-t2-cs072/BORA/CARBON/from-Arr/AIRSS/Generating-Clusters/GAP-ML-2020/Only-C1/SD-CG/HFTN-CG
REM
REM
REM
REM
REM
REM ./C.cell (11c1c37f851c82e70ff6c80c92926a4b)
REM AIRSS Version 0.9.1 bugfix July 2018 build 013d7b7c2542+ Fri, 06 Jul 2018 19:26:36 +0100
REM compiler GCC version 9.3.0
REM options -cpp -mtune=generic -march=x86-64 -g -O0
REM seed -560447307 850126920 263589454 236515514 86572774 708421173 -52367445 405954461 1855778062 289492355 -62200726 381608821 -653895716 1622796306 -1356759954 2023694279 858961776 152563052 -493634730 -619431632 314407492 134744121 -947048824 -641954190 -835878766 -889351706 710958112 -1171895892 1177424951 -1880969364 278846674 -1247882768 -1198891061
REM
CELL 1.54180   50.00000   50.00000   50.00000   90.00000   90.00000   90.00000
LATT -1
SFAC C  
C      1  0.5495930000000  0.5300520000000  0.4952590000000 1.0
C      1  0.4719560000000  0.4961240000000  0.5975260000000 1.0
C      1  0.5761240000000  0.5384850000000  0.4473210000000 1.0
C      1  0.5375430000000  0.5325200000000  0.4687780000000 1.0
C      1  0.4659840000000  0.5319930000000  0.4761530000000 1.0
C      1  0.5161260000000  0.4313800000000  0.5823190000000 1.0
C      1  0.5180980000000  0.4187800000000  0.5352330000000 1.0
C      1  0.5137240000000  0.5981450000000  0.4981600000000 1.0
C      1  0.4340040000000  0.4608670000000  0.5062760000000 1.0
C      1  0.4647430000000  0.5313980000000  0.5043650000000 1.0
C      1  0.4345530000000  0.5762340000000  0.5243030000000 1.0
C      1  0.5844080000000  0.4772350000000  0.5365430000000 1.0
C      1  0.4507490000000  0.5646820000000  0.5663990000000 1.0
C      1  0.4503060000000  0.4971720000000  0.4191410000000 1.0
C      1  0.5113650000000  0.5374590000000  0.4210340000000 1.0
C      1  0.5108530000000  0.5444510000000  0.4742430000000 1.0
C      1  0.5611910000000  0.4928630000000  0.5703590000000 1.0
C      1  0.5929920000000  0.5148620000000  0.5139780000000 1.0
C      1  0.4572450000000  0.5415620000000  0.5836900000000 1.0
C      1  0.5662020000000  0.5518960000000  0.5076640000000 1.0
C      1  0.5574070000000  0.4437330000000  0.5614640000000 1.0
C      1  0.5631380000000  0.5217860000000  0.4280800000000 1.0
C      1  0.5885280000000  0.5230770000000  0.4674820000000 1.0
C      1  0.5078070000000  0.5527940000000  0.5016540000000 1.0
C      1  0.4029520000000  0.4853570000000  0.5283270000000 1.0
C      1  0.5316430000000  0.4139630000000  0.4607780000000 1.0
C      1  0.5038290000000  0.4523310000000  0.5934500000000 1.0
C      1  0.4530790000000  0.4622250000000  0.5715730000000 1.0
C      1  0.4228080000000  0.4992900000000  0.4346650000000 1.0
C      1  0.4982950000000  0.5266750000000  0.5409040000000 1.0
C      1  0.5231570000000  0.5330760000000  0.5603050000000 1.0
C      1  0.5172850000000  0.4951370000000  0.5793550000000 1.0
C      1  0.5529640000000  0.4444620000000  0.4324050000000 1.0
C      1  0.5047710000000  0.5876770000000  0.5495340000000 1.0
C      1  0.4794250000000  0.4796230000000  0.4946510000000 1.0
C      1  0.4296840000000  0.5607770000000  0.4768000000000 1.0
C      1  0.5304660000000  0.4953110000000  0.5293310000000 1.0
C      1  0.5595650000000  0.4262970000000  0.5046040000000 1.0
C      1  0.4829990000000  0.4829440000000  0.5238980000000 1.0
C      1  0.4885300000000  0.5401950000000  0.5176900000000 1.0
C      1  0.4816370000000  0.4535600000000  0.4814430000000 1.0
C      1  0.5772780000000  0.4709250000000  0.4869630000000 1.0
C      1  0.5063990000000  0.4526020000000  0.4093610000000 1.0
C      1  0.4653610000000  0.4833960000000  0.3965920000000 1.0
C      1  0.5319370000000  0.4265750000000  0.5599860000000 1.0
C      1  0.4511340000000  0.4854150000000  0.4926430000000 1.0
C      1  0.5772450000000  0.4893330000000  0.5102400000000 1.0
C      1  0.5369160000000  0.5051780000000  0.5588360000000 1.0
C      1  0.5401340000000  0.5355400000000  0.4183580000000 1.0
C      1  0.4811880000000  0.4301030000000  0.4993510000000 1.0
C      1  0.4306820000000  0.5298130000000  0.5768300000000 1.0
C      1  0.4800330000000  0.5102960000000  0.5567200000000 1.0
C      1  0.4241940000000  0.5529870000000  0.5614780000000 1.0
C      1  0.5406520000000  0.5623480000000  0.4293240000000 1.0
C      1  0.4294320000000  0.4330820000000  0.4664340000000 1.0
C      1  0.4215860000000  0.5066750000000  0.5643070000000 1.0
C      1  0.5269570000000  0.4699550000000  0.5909140000000 1.0
C      1  0.4253720000000  0.4658070000000  0.5350230000000 1.0
C      1  0.5219590000000  0.5911440000000  0.4717440000000 1.0
C      1  0.5838940000000  0.5235010000000  0.5397490000000 1.0
C      1  0.3985550000000  0.4911160000000  0.5012830000000 1.0
C      1  0.5554950000000  0.5594030000000  0.4538830000000 1.0
C      1  0.4561540000000  0.5810470000000  0.5433040000000 1.0
C      1  0.4908510000000  0.4771190000000  0.4030200000000 1.0
C      1  0.5540550000000  0.4488800000000  0.4845570000000 1.0
C      1  0.4900030000000  0.4325420000000  0.5296310000000 1.0
C      1  0.4393540000000  0.5796510000000  0.4964600000000 1.0
C      1  0.4033450000000  0.5100200000000  0.5425270000000 1.0
C      1  0.5024260000000  0.5742590000000  0.4567410000000 1.0
C      1  0.4662430000000  0.4794290000000  0.4381180000000 1.0
C      1  0.4209580000000  0.5261060000000  0.4463050000000 1.0
C      1  0.5420400000000  0.5547580000000  0.5513170000000 1.0
C      1  0.4625360000000  0.5230030000000  0.4242550000000 1.0
C      1  0.5487920000000  0.5808420000000  0.4726350000000 1.0
C      1  0.5664510000000  0.5461230000000  0.5370260000000 1.0
C      1  0.5015200000000  0.5011800000000  0.4891010000000 1.0
C      1  0.4864860000000  0.5977200000000  0.5071140000000 1.0
C      1  0.4593010000000  0.4283700000000  0.5347350000000 1.0
C      1  0.5222340000000  0.4063850000000  0.4872490000000 1.0
C      1  0.4324970000000  0.4175210000000  0.4881700000000 1.0
C      1  0.4031890000000  0.5324790000000  0.5238370000000 1.0
C      1  0.4124830000000  0.5366220000000  0.4732200000000 1.0
C      1  0.5975330000000  0.4500090000000  0.4950990000000 1.0
C      1  0.5039760000000  0.5057020000000  0.5206430000000 1.0
C      1  0.4477210000000  0.4773010000000  0.4621560000000 1.0
C      1  0.5859240000000  0.4924210000000  0.4619190000000 1.0
C      1  0.4660180000000  0.5895470000000  0.4886630000000 1.0
C      1  0.4778190000000  0.4698810000000  0.5861370000000 1.0
C      1  0.4793080000000  0.5222920000000  0.5865670000000 1.0
C      1  0.4500620000000  0.4295130000000  0.5070470000000 1.0
C      1  0.5619230000000  0.4943340000000  0.4401130000000 1.0
C      1  0.4538130000000  0.5560350000000  0.4599600000000 1.0
C      1  0.5529040000000  0.4327240000000  0.4585440000000 1.0
C      1  0.5272150000000  0.4620060000000  0.4917050000000 1.0
C      1  0.5347440000000  0.4550000000000  0.4136390000000 1.0
C      1  0.4443670000000  0.5397070000000  0.4375740000000 1.0
C      1  0.5058330000000  0.4261770000000  0.4537100000000 1.0
C      1  0.5573400000000  0.4701020000000  0.4225890000000 1.0
C      1  0.4565790000000  0.4475620000000  0.4624020000000 1.0
C      1  0.5354710000000  0.5900960000000  0.5157880000000 1.0
C      1  0.5127360000000  0.5650680000000  0.4311390000000 1.0
C      1  0.4956590000000  0.4127960000000  0.4798420000000 1.0
C      1  0.4817920000000  0.5923940000000  0.5355590000000 1.0
C      1  0.4986020000000  0.4630360000000  0.5379510000000 1.0
C      1  0.5831280000000  0.4352270000000  0.5166540000000 1.0
C      1  0.4000800000000  0.5217460000000  0.4964190000000 1.0
C      1  0.4430500000000  0.4441080000000  0.5518150000000 1.0
C      1  0.5835160000000  0.4989210000000  0.5550590000000 1.0
C      1  0.5874950000000  0.5335970000000  0.4940300000000 1.0
C      1  0.5092510000000  0.5235910000000  0.5859370000000 1.0
C      1  0.5076250000000  0.4556250000000  0.4677920000000 1.0
C      1  0.6166180000000  0.4569040000000  0.4775290000000 1.0
C      1  0.4510920000000  0.5088190000000  0.5124590000000 1.0
C      1  0.5240890000000  0.4670600000000  0.5243530000000 1.0
C      1  0.5139770000000  0.4794200000000  0.4485240000000 1.0
C      1  0.4925460000000  0.4369590000000  0.4295040000000 1.0
C      1  0.4605130000000  0.4981130000000  0.5380840000000 1.0
C      1  0.4918930000000  0.5228840000000  0.4678560000000 1.0
C      1  0.5525110000000  0.4662160000000  0.5783140000000 1.0
C      1  0.5294200000000  0.5795440000000  0.5419880000000 1.0
C      1  0.5347890000000  0.4124560000000  0.5119540000000 1.0
C      1  0.5359270000000  0.4993340000000  0.4575920000000 1.0
C      1  0.5481660000000  0.5033020000000  0.5067810000000 1.0
C      1  0.4739940000000  0.5773930000000  0.4643450000000 1.0
C      1  0.4207860000000  0.4764500000000  0.4507680000000 1.0
C      1  0.4164260000000  0.5557100000000  0.5345820000000 1.0
C      1  0.5303890000000  0.4910300000000  0.4851880000000 1.0
C      1  0.4681940000000  0.4491290000000  0.4360090000000 1.0
C      1  0.4937670000000  0.4903920000000  0.4314150000000 1.0
C      1  0.4083490000000  0.4669010000000  0.4896350000000 1.0
C      1  0.5779180000000  0.4497710000000  0.5408500000000 1.0
C      1  0.6116270000000  0.4767920000000  0.4611450000000 1.0
C      1  0.5560210000000  0.5782750000000  0.4998730000000 1.0
C      1  0.4911240000000  0.5197510000000  0.4334600000000 1.0
C      1  0.4399650000000  0.4842090000000  0.5557700000000 1.0
C      1  0.4942220000000  0.4841770000000  0.5648410000000 1.0
C      1  0.4091440000000  0.4547900000000  0.4642550000000 1.0
END
