TITL C-21771-2067-8 -0.189425971957736 125000 -551.104573770814 0 0 79 (C1) n - 1
REM
REM in /rds/project/t2_vol4/rds-t2-cs072/BORA/CARBON/from-Arr/AIRSS/Generating-Clusters/GAP-ML-2020/Only-C1/SD-CG/HFTN-CG
REM
REM
REM
REM
REM
REM ./C.cell (11c1c37f851c82e70ff6c80c92926a4b)
REM AIRSS Version 0.9.1 bugfix July 2018 build 013d7b7c2542+ Fri, 06 Jul 2018 19:26:36 +0100
REM compiler GCC version 9.3.0
REM options -cpp -mtune=generic -march=x86-64 -g -O0
REM seed -326884037 -1667264594 109542801 65636434 -578642617 -798058267 -1678175404 1354596048 998224144 -2137754474 1184193368 -1388484086 231517518 -425063543 2139066883 1044543016 356339549 541497712 1354716979 2003598745 2030613196 -1472556977 -1292273675 -850356938 -284163181 -674060716 -1684598207 487959203 -1043277407 -1085517417 990108054 2134716636 -1009370390
REM
CELL 1.54180   50.00000   50.00000   50.00000   90.00000   90.00000   90.00000
LATT -1
SFAC C  
C      1  0.4397180000000  0.5471850000000  0.5177510000000 1.0
C      1  0.5534410000000  0.5513150000000  0.5334480000000 1.0
C      1  0.4891590000000  0.4795240000000  0.4832960000000 1.0
C      1  0.5416430000000  0.5082550000000  0.5731770000000 1.0
C      1  0.4496570000000  0.4603130000000  0.5151170000000 1.0
C      1  0.4927770000000  0.4752120000000  0.4206800000000 1.0
C      1  0.4960460000000  0.5314750000000  0.5715040000000 1.0
C      1  0.4785000000000  0.5734420000000  0.5126620000000 1.0
C      1  0.5251600000000  0.4243890000000  0.4810210000000 1.0
C      1  0.5757360000000  0.5185970000000  0.5096690000000 1.0
C      1  0.4782820000000  0.5625140000000  0.5392620000000 1.0
C      1  0.4515960000000  0.5579530000000  0.4741820000000 1.0
C      1  0.4695160000000  0.4452460000000  0.5649260000000 1.0
C      1  0.5121010000000  0.5145800000000  0.4642500000000 1.0
C      1  0.5208320000000  0.4949600000000  0.5266560000000 1.0
C      1  0.4318770000000  0.5202800000000  0.5122930000000 1.0
C      1  0.5169390000000  0.4860370000000  0.4759550000000 1.0
C      1  0.5394570000000  0.4864660000000  0.5508980000000 1.0
C      1  0.5556660000000  0.4441060000000  0.5105460000000 1.0
C      1  0.4269020000000  0.4851480000000  0.4452640000000 1.0
C      1  0.5146040000000  0.5113290000000  0.5799720000000 1.0
C      1  0.5257820000000  0.5712100000000  0.5110440000000 1.0
C      1  0.4749260000000  0.4430930000000  0.5180850000000 1.0
C      1  0.4581470000000  0.4700720000000  0.5620960000000 1.0
C      1  0.4752810000000  0.4953070000000  0.4302240000000 1.0
C      1  0.4979810000000  0.4223790000000  0.4758450000000 1.0
C      1  0.5277100000000  0.5171880000000  0.5092490000000 1.0
C      1  0.4536470000000  0.5484960000000  0.5422140000000 1.0
C      1  0.4536910000000  0.5650360000000  0.5007080000000 1.0
C      1  0.4709840000000  0.5167590000000  0.5713250000000 1.0
C      1  0.5728970000000  0.4792870000000  0.4791190000000 1.0
C      1  0.5260580000000  0.5611640000000  0.5384670000000 1.0
C      1  0.4424400000000  0.4598220000000  0.4869060000000 1.0
C      1  0.5620170000000  0.4532160000000  0.4837100000000 1.0
C      1  0.5670010000000  0.5378170000000  0.4897370000000 1.0
C      1  0.5337280000000  0.5358310000000  0.4553990000000 1.0
C      1  0.5616750000000  0.5073290000000  0.5555440000000 1.0
C      1  0.5012670000000  0.4553610000000  0.4404000000000 1.0
C      1  0.4748620000000  0.5619610000000  0.4580390000000 1.0
C      1  0.5349590000000  0.4247170000000  0.5081410000000 1.0
C      1  0.4367800000000  0.5051760000000  0.5365830000000 1.0
C      1  0.5520990000000  0.5585200000000  0.5051370000000 1.0
C      1  0.4744920000000  0.4890020000000  0.5759760000000 1.0
C      1  0.5368730000000  0.4381780000000  0.5320810000000 1.0
C      1  0.4368470000000  0.5339590000000  0.4664460000000 1.0
C      1  0.5154060000000  0.4818530000000  0.4048360000000 1.0
C      1  0.4870470000000  0.4384370000000  0.5456320000000 1.0
C      1  0.4370220000000  0.5102730000000  0.4844970000000 1.0
C      1  0.4719540000000  0.5385580000000  0.4416340000000 1.0
C      1  0.4429080000000  0.4772080000000  0.5383390000000 1.0
C      1  0.5402920000000  0.4833400000000  0.4114940000000 1.0
C      1  0.4454590000000  0.5279470000000  0.4406190000000 1.0
C      1  0.4837300000000  0.5144380000000  0.5040090000000 1.0
C      1  0.5003210000000  0.5704040000000  0.4683300000000 1.0
C      1  0.4600960000000  0.4400950000000  0.4742390000000 1.0
C      1  0.5347000000000  0.4900830000000  0.5008030000000 1.0
C      1  0.5214070000000  0.4677660000000  0.5661390000000 1.0
C      1  0.5026920000000  0.4849780000000  0.5792210000000 1.0
C      1  0.4299390000000  0.4827090000000  0.4726710000000 1.0
C      1  0.4918080000000  0.4932210000000  0.5235170000000 1.0
C      1  0.5682650000000  0.5267570000000  0.5358920000000 1.0
C      1  0.5160090000000  0.4444180000000  0.5507040000000 1.0
C      1  0.5018140000000  0.5539910000000  0.5533820000000 1.0
C      1  0.4467050000000  0.5002310000000  0.4335530000000 1.0
C      1  0.4754890000000  0.4263420000000  0.4939630000000 1.0
C      1  0.4493740000000  0.5239770000000  0.5552830000000 1.0
C      1  0.5593000000000  0.5257250000000  0.4643310000000 1.0
C      1  0.5270890000000  0.4646130000000  0.4538630000000 1.0
C      1  0.4845260000000  0.4378460000000  0.4552290000000 1.0
C      1  0.5633890000000  0.4971370000000  0.4577120000000 1.0
C      1  0.4714340000000  0.5039420000000  0.4793210000000 1.0
C      1  0.5231870000000  0.5604520000000  0.4566820000000 1.0
C      1  0.5678030000000  0.4921960000000  0.5030330000000 1.0
C      1  0.4866360000000  0.4692130000000  0.5094560000000 1.0
C      1  0.5417720000000  0.4430490000000  0.4668740000000 1.0
C      1  0.5019560000000  0.5776730000000  0.4969410000000 1.0
C      1  0.5066510000000  0.5254940000000  0.4927860000000 1.0
C      1  0.4853860000000  0.5141260000000  0.4514070000000 1.0
C      1  0.5466820000000  0.4823010000000  0.4386020000000 1.0
END
