TITL C-211907-516-6 90.1778272045632 125000 -328.438100382826 0 0 50 (C1) n - 1
REM
REM in /rds/project/t2_vol4/rds-t2-cs072/BORA/CARBON/from-Arr/AIRSS/Generating-Clusters/GAP-ML-2020/Only-C1/SD-CG/HFTN-CG
REM
REM
REM
REM
REM
REM ./C.cell (11c1c37f851c82e70ff6c80c92926a4b)
REM AIRSS Version 0.9.1 bugfix July 2018 build 013d7b7c2542+ Fri, 06 Jul 2018 19:26:36 +0100
REM compiler GCC version 9.3.0
REM options -cpp -mtune=generic -march=x86-64 -g -O0
REM seed -238833184 1568502638 1637589351 -1720708238 2136503002 -1232101082 -2016715372 1227529153 1659954819 -196133889 -645158277 -1397015440 -1047630672 1686681451 -794414083 -1229934808 -1841889132 -33484106 222268031 1380967215 -538875767 1037424307 1753352365 1621429975 1686654693 -1955366083 -842125060 -1466841292 1152147746 -472228348 -867046929 -1805100132 262373274
REM
CELL 1.54180   50.00000   50.00000   50.00000   90.00000   90.00000   90.00000
LATT -1
SFAC C  
C      1  0.5234000000000  0.5561020000000  0.5183450000000 1.0
C      1  0.4860820000000  0.5256670000000  0.4392210000000 1.0
C      1  0.5398950000000  0.5140580000000  0.5434230000000 1.0
C      1  0.5124380000000  0.4492300000000  0.5266050000000 1.0
C      1  0.5327500000000  0.4880270000000  0.5522680000000 1.0
C      1  0.4854650000000  0.4473350000000  0.5350660000000 1.0
C      1  0.4687940000000  0.4432660000000  0.5123150000000 1.0
C      1  0.5313290000000  0.5049730000000  0.4998720000000 1.0
C      1  0.5078300000000  0.4641200000000  0.5001400000000 1.0
C      1  0.4457570000000  0.5130510000000  0.5132480000000 1.0
C      1  0.4706540000000  0.5521680000000  0.4711190000000 1.0
C      1  0.4686630000000  0.5321790000000  0.5104340000000 1.0
C      1  0.4663350000000  0.4946800000000  0.5591980000000 1.0
C      1  0.4747380000000  0.5571650000000  0.4989950000000 1.0
C      1  0.5622640000000  0.5075700000000  0.4998650000000 1.0
C      1  0.5507880000000  0.4650760000000  0.4814290000000 1.0
C      1  0.4690230000000  0.5236290000000  0.4629460000000 1.0
C      1  0.4589900000000  0.4687270000000  0.4993530000000 1.0
C      1  0.5344640000000  0.4666740000000  0.5328730000000 1.0
C      1  0.4797230000000  0.4357980000000  0.4842850000000 1.0
C      1  0.4983450000000  0.5597400000000  0.4682320000000 1.0
C      1  0.5221860000000  0.4981560000000  0.4361100000000 1.0
C      1  0.4426840000000  0.4934550000000  0.4934890000000 1.0
C      1  0.5157470000000  0.5365570000000  0.5397980000000 1.0
C      1  0.4510420000000  0.5002970000000  0.4664330000000 1.0
C      1  0.4853540000000  0.4733730000000  0.5498050000000 1.0
C      1  0.5235750000000  0.5214070000000  0.4532600000000 1.0
C      1  0.4506970000000  0.5120100000000  0.5423620000000 1.0
C      1  0.4872840000000  0.5110620000000  0.4872540000000 1.0
C      1  0.4625930000000  0.4553910000000  0.4725980000000 1.0
C      1  0.4638530000000  0.4763990000000  0.4547560000000 1.0
C      1  0.5077930000000  0.5439720000000  0.4465710000000 1.0
C      1  0.4902130000000  0.5092570000000  0.5708300000000 1.0
C      1  0.5600130000000  0.5239540000000  0.5231630000000 1.0
C      1  0.5036180000000  0.5633790000000  0.4971750000000 1.0
C      1  0.5346260000000  0.4754480000000  0.5037200000000 1.0
C      1  0.5065440000000  0.4429740000000  0.4809080000000 1.0
C      1  0.5706220000000  0.4836930000000  0.4870520000000 1.0
C      1  0.4856910000000  0.4842520000000  0.5005620000000 1.0
C      1  0.4871470000000  0.4773570000000  0.4386560000000 1.0
C      1  0.5143300000000  0.5141990000000  0.4796050000000 1.0
C      1  0.4923010000000  0.5331360000000  0.5565390000000 1.0
C      1  0.5165120000000  0.5109510000000  0.5248750000000 1.0
C      1  0.5152620000000  0.4708260000000  0.4461320000000 1.0
C      1  0.4949880000000  0.5025410000000  0.4262170000000 1.0
C      1  0.4932120000000  0.4931610000000  0.5263470000000 1.0
C      1  0.5500200000000  0.5491480000000  0.5159510000000 1.0
C      1  0.5275400000000  0.4536190000000  0.4640610000000 1.0
C      1  0.5076820000000  0.4863380000000  0.5664360000000 1.0
C      1  0.4691450000000  0.5344520000000  0.5401040000000 1.0
END
