TITL C-21911-1882-6 0.10055918140062 125000 -201.809093555715 0 0 31 (C1) n - 1
REM
REM in /rds/project/t2_vol4/rds-t2-cs072/BORA/CARBON/from-Arr/AIRSS/Generating-Clusters/GAP-ML-2020/Only-C1/SD-CG/HFTN-CG
REM
REM
REM
REM
REM
REM ./C.cell (11c1c37f851c82e70ff6c80c92926a4b)
REM AIRSS Version 0.9.1 bugfix July 2018 build 013d7b7c2542+ Fri, 06 Jul 2018 19:26:36 +0100
REM compiler GCC version 9.3.0
REM options -cpp -mtune=generic -march=x86-64 -g -O0
REM seed 1498192083 1725953321 -1833401178 -1829959451 700181541 1099366001 1378562615 -2065747086 843704748 1713043499 -2106508020 -1754938630 -1919829934 -490969623 171988267 2134235419 183394358 298716126 -2070215796 -1418618303 -2127136102 -2038469281 1178318064 724161827 1061495159 -1110589514 -162360866 -606431272 -308368360 -79075607 -1580239577 1291492687 -1685910408
REM
CELL 1.54180   50.00000   50.00000   50.00000   90.00000   90.00000   90.00000
LATT -1
SFAC C  
C      1  0.5004600000000  0.5566300000000  0.5285310000000 1.0
C      1  0.4632710000000  0.4806300000000  0.4856580000000 1.0
C      1  0.5094070000000  0.4775870000000  0.4902550000000 1.0
C      1  0.4679640000000  0.4803090000000  0.5156560000000 1.0
C      1  0.5306080000000  0.4919070000000  0.5529990000000 1.0
C      1  0.4728360000000  0.4595670000000  0.5335450000000 1.0
C      1  0.4921000000000  0.4589530000000  0.5504970000000 1.0
C      1  0.5349000000000  0.5311200000000  0.4550310000000 1.0
C      1  0.5365370000000  0.4499750000000  0.4618490000000 1.0
C      1  0.4908280000000  0.5519580000000  0.4519440000000 1.0
C      1  0.4876930000000  0.4754190000000  0.4720430000000 1.0
C      1  0.5074820000000  0.5302270000000  0.4425180000000 1.0
C      1  0.4918780000000  0.5190830000000  0.5046150000000 1.0
C      1  0.5215370000000  0.4601000000000  0.4430100000000 1.0
C      1  0.5002610000000  0.5054800000000  0.4327810000000 1.0
C      1  0.4773460000000  0.5050730000000  0.5243740000000 1.0
C      1  0.5459460000000  0.4806720000000  0.5329870000000 1.0
C      1  0.5478330000000  0.4681340000000  0.5111930000000 1.0
C      1  0.4788400000000  0.5162670000000  0.5508220000000 1.0
C      1  0.5187580000000  0.5182580000000  0.5609130000000 1.0
C      1  0.5310270000000  0.5176940000000  0.4760250000000 1.0
C      1  0.5015100000000  0.5377250000000  0.5480010000000 1.0
C      1  0.5068560000000  0.4769480000000  0.5648890000000 1.0
C      1  0.5119620000000  0.5059600000000  0.4916020000000 1.0
C      1  0.4945070000000  0.5026370000000  0.5707590000000 1.0
C      1  0.4876880000000  0.5559630000000  0.4767980000000 1.0
C      1  0.4918350000000  0.5473810000000  0.5032870000000 1.0
C      1  0.4232950000000  0.5043300000000  0.4608290000000 1.0
C      1  0.5005060000000  0.4803620000000  0.4447910000000 1.0
C      1  0.4412700000000  0.4919740000000  0.4738090000000 1.0
C      1  0.5330610000000  0.4616730000000  0.4879890000000 1.0
END
