TITL C-21844-7974-7 0.0956423069592535 125000 -638.077722033842 0 0 92 (C1) n - 1
REM
REM in /rds/project/t2_vol4/rds-t2-cs072/BORA/CARBON/from-Arr/AIRSS/Generating-Clusters/GAP-ML-2020/Only-C1/SD-CG/HFTN-CG
REM
REM
REM
REM
REM
REM ./C.cell (11c1c37f851c82e70ff6c80c92926a4b)
REM AIRSS Version 0.9.1 bugfix July 2018 build 013d7b7c2542+ Fri, 06 Jul 2018 19:26:36 +0100
REM compiler GCC version 9.3.0
REM options -cpp -mtune=generic -march=x86-64 -g -O0
REM seed 1165793897 -545578057 1188676571 -1115827421 1756604729 1271980724 -116653115 842078478 -1124101262 -507680262 -1360078994 1001334414 -2059498056 1610322860 -1193755055 1548377564 1650552128 1973883612 -1100592815 -1462947905 1379671241 1921414315 -1181450200 408806081 -138436093 1309007496 1849369794 -1192735281 -465286661 486601523 1960497147 -1162786656 1090843277
REM
CELL 1.54180   50.00000   50.00000   50.00000   90.00000   90.00000   90.00000
LATT -1
SFAC C  
C      1  0.5317960000000  0.4996110000000  0.5148120000000 1.0
C      1  0.4578770000000  0.5172120000000  0.4301050000000 1.0
C      1  0.5263360000000  0.4715720000000  0.4760860000000 1.0
C      1  0.4566490000000  0.4849270000000  0.5698720000000 1.0
C      1  0.5146400000000  0.4261080000000  0.5031760000000 1.0
C      1  0.4298780000000  0.4506690000000  0.5381930000000 1.0
C      1  0.4770810000000  0.5333460000000  0.5535040000000 1.0
C      1  0.5329320000000  0.4220290000000  0.4577980000000 1.0
C      1  0.5075130000000  0.5656290000000  0.5374140000000 1.0
C      1  0.4339210000000  0.5330820000000  0.5280390000000 1.0
C      1  0.4664860000000  0.4909190000000  0.4239020000000 1.0
C      1  0.5253770000000  0.5023860000000  0.5590360000000 1.0
C      1  0.5940200000000  0.5239280000000  0.4690380000000 1.0
C      1  0.5004080000000  0.5468050000000  0.4437100000000 1.0
C      1  0.5612850000000  0.5590740000000  0.4947770000000 1.0
C      1  0.4854300000000  0.4346810000000  0.4608250000000 1.0
C      1  0.4974510000000  0.4277020000000  0.5261690000000 1.0
C      1  0.5429220000000  0.4855090000000  0.5405630000000 1.0
C      1  0.4689320000000  0.4745680000000  0.4850610000000 1.0
C      1  0.5547580000000  0.5549040000000  0.5221310000000 1.0
C      1  0.4286670000000  0.4471230000000  0.5094290000000 1.0
C      1  0.4144150000000  0.4656570000000  0.5550250000000 1.0
C      1  0.4613970000000  0.4652070000000  0.4341120000000 1.0
C      1  0.4976980000000  0.5004500000000  0.4237570000000 1.0
C      1  0.4917870000000  0.5658000000000  0.4631860000000 1.0
C      1  0.4686410000000  0.4283800000000  0.5249060000000 1.0
C      1  0.5738950000000  0.5388800000000  0.5362970000000 1.0
C      1  0.5158090000000  0.5443010000000  0.4970910000000 1.0
C      1  0.4687760000000  0.4587100000000  0.5657760000000 1.0
C      1  0.4368930000000  0.5245820000000  0.4480720000000 1.0
C      1  0.5270600000000  0.5237720000000  0.4773130000000 1.0
C      1  0.5497750000000  0.5092670000000  0.4916240000000 1.0
C      1  0.5730940000000  0.4928290000000  0.5447430000000 1.0
C      1  0.4999370000000  0.5513560000000  0.5616660000000 1.0
C      1  0.4412860000000  0.5501070000000  0.4603140000000 1.0
C      1  0.4432950000000  0.4572910000000  0.4544620000000 1.0
C      1  0.4196700000000  0.4690420000000  0.4938860000000 1.0
C      1  0.5221760000000  0.5423360000000  0.5756280000000 1.0
C      1  0.4704190000000  0.4957380000000  0.5249710000000 1.0
C      1  0.4847840000000  0.5276690000000  0.4295520000000 1.0
C      1  0.5905270000000  0.4989530000000  0.5215640000000 1.0
C      1  0.4319210000000  0.4870850000000  0.5553080000000 1.0
C      1  0.5255810000000  0.5073840000000  0.4339430000000 1.0
C      1  0.4994500000000  0.5082170000000  0.4821800000000 1.0
C      1  0.4147050000000  0.5138700000000  0.4894170000000 1.0
C      1  0.5633250000000  0.4811520000000  0.4862460000000 1.0
C      1  0.4878460000000  0.5193210000000  0.5274590000000 1.0
C      1  0.5760940000000  0.5333700000000  0.4894480000000 1.0
C      1  0.5914420000000  0.4853020000000  0.4971790000000 1.0
C      1  0.4294920000000  0.5579870000000  0.4857810000000 1.0
C      1  0.5445010000000  0.5563080000000  0.4558710000000 1.0
C      1  0.5400730000000  0.5707540000000  0.4785680000000 1.0
C      1  0.5012950000000  0.4901880000000  0.5691250000000 1.0
C      1  0.4967840000000  0.4618030000000  0.5644150000000 1.0
C      1  0.4215540000000  0.5048180000000  0.4631350000000 1.0
C      1  0.4864450000000  0.4530310000000  0.4385150000000 1.0
C      1  0.5059430000000  0.4722240000000  0.4314830000000 1.0
C      1  0.5178090000000  0.5187520000000  0.5323890000000 1.0
C      1  0.5113910000000  0.4438270000000  0.5467450000000 1.0
C      1  0.4514820000000  0.4326590000000  0.5011900000000 1.0
C      1  0.4931740000000  0.5762770000000  0.5163500000000 1.0
C      1  0.5607380000000  0.4643740000000  0.5473410000000 1.0
C      1  0.5487140000000  0.4550180000000  0.4866620000000 1.0
C      1  0.5091890000000  0.4242020000000  0.4738870000000 1.0
C      1  0.5098860000000  0.5710650000000  0.4870030000000 1.0
C      1  0.5269680000000  0.5348230000000  0.4484590000000 1.0
C      1  0.4247880000000  0.4754570000000  0.4660190000000 1.0
C      1  0.5583830000000  0.4651290000000  0.4436670000000 1.0
C      1  0.5751910000000  0.4810300000000  0.4582990000000 1.0
C      1  0.4364180000000  0.5031290000000  0.5301010000000 1.0
C      1  0.5667740000000  0.5203480000000  0.5568400000000 1.0
C      1  0.5312600000000  0.4793730000000  0.4453630000000 1.0
C      1  0.5418430000000  0.5233190000000  0.5722800000000 1.0
C      1  0.4179820000000  0.4934930000000  0.5078910000000 1.0
C      1  0.4559670000000  0.4412840000000  0.5469420000000 1.0
C      1  0.5387140000000  0.4394900000000  0.5098320000000 1.0
C      1  0.5965250000000  0.4966540000000  0.4699130000000 1.0
C      1  0.4841240000000  0.4772250000000  0.5087670000000 1.0
C      1  0.5113080000000  0.4855520000000  0.4980460000000 1.0
C      1  0.4208330000000  0.5383320000000  0.5027750000000 1.0
C      1  0.4604910000000  0.4415710000000  0.4744340000000 1.0
C      1  0.5266920000000  0.5474320000000  0.5249380000000 1.0
C      1  0.5387520000000  0.4493090000000  0.5370580000000 1.0
C      1  0.4765600000000  0.5053930000000  0.5694740000000 1.0
C      1  0.4644070000000  0.5673520000000  0.4672650000000 1.0
C      1  0.4894880000000  0.5292220000000  0.5002970000000 1.0
C      1  0.5886280000000  0.5262690000000  0.5161440000000 1.0
C      1  0.5520880000000  0.4404420000000  0.4603910000000 1.0
C      1  0.4526370000000  0.5732200000000  0.4933270000000 1.0
C      1  0.4776270000000  0.4949560000000  0.4688430000000 1.0
C      1  0.4554060000000  0.5488290000000  0.5374170000000 1.0
C      1  0.4656220000000  0.5702660000000  0.5179930000000 1.0
END
