TITL C-21847-6187-4 0.270400678523494 125000 -605.399908282519 0 0 88 (C1) n - 1
REM
REM in /rds/project/t2_vol4/rds-t2-cs072/BORA/CARBON/from-Arr/AIRSS/Generating-Clusters/GAP-ML-2020/Only-C1/SD-CG/HFTN-CG
REM
REM
REM
REM
REM
REM ./C.cell (11c1c37f851c82e70ff6c80c92926a4b)
REM AIRSS Version 0.9.1 bugfix July 2018 build 013d7b7c2542+ Fri, 06 Jul 2018 19:26:36 +0100
REM compiler GCC version 9.3.0
REM options -cpp -mtune=generic -march=x86-64 -g -O0
REM seed -1245242767 -594042645 -793615728 1509233254 -915177051 724940040 172059383 604746749 1483084077 -2019461011 -506702946 589002007 24599246 1274696427 -1600829762 1994716935 24779350 379425383 730411641 1153950020 -506576208 1008518865 163548478 269848360 -1012008953 915104474 1392348542 -1891963832 1158850049 1949707479 -1664142234 -1823617666 -750316746
REM
CELL 1.54180   50.00000   50.00000   50.00000   90.00000   90.00000   90.00000
LATT -1
SFAC C  
C      1  0.5201340000000  0.4390680000000  0.5402330000000 1.0
C      1  0.4734990000000  0.4226240000000  0.5539350000000 1.0
C      1  0.4849700000000  0.4230170000000  0.5114630000000 1.0
C      1  0.5145360000000  0.5391210000000  0.4388200000000 1.0
C      1  0.5605640000000  0.4806880000000  0.5401740000000 1.0
C      1  0.4858490000000  0.4903140000000  0.5130240000000 1.0
C      1  0.5026020000000  0.4899720000000  0.4045090000000 1.0
C      1  0.4954170000000  0.5752880000000  0.4651830000000 1.0
C      1  0.4358820000000  0.4718530000000  0.4637420000000 1.0
C      1  0.5017230000000  0.5369840000000  0.5602160000000 1.0
C      1  0.5172200000000  0.5664150000000  0.4497340000000 1.0
C      1  0.5038740000000  0.5624380000000  0.5448000000000 1.0
C      1  0.5413740000000  0.5045080000000  0.5692210000000 1.0
C      1  0.5272880000000  0.5710110000000  0.5323130000000 1.0
C      1  0.5448680000000  0.5607640000000  0.4538040000000 1.0
C      1  0.4776290000000  0.4899960000000  0.5798850000000 1.0
C      1  0.5213180000000  0.4776840000000  0.4206730000000 1.0
C      1  0.4263070000000  0.4921680000000  0.5049710000000 1.0
C      1  0.4394710000000  0.5094910000000  0.5527500000000 1.0
C      1  0.5663460000000  0.4548910000000  0.5270750000000 1.0
C      1  0.4678230000000  0.4852660000000  0.5353370000000 1.0
C      1  0.5037340000000  0.4971870000000  0.5865500000000 1.0
C      1  0.4800700000000  0.4422880000000  0.4498920000000 1.0
C      1  0.4384730000000  0.5117460000000  0.4348860000000 1.0
C      1  0.5101890000000  0.4651630000000  0.5511080000000 1.0
C      1  0.4400490000000  0.4481010000000  0.5080890000000 1.0
C      1  0.4289480000000  0.4678170000000  0.4908480000000 1.0
C      1  0.5243220000000  0.5810080000000  0.5055570000000 1.0
C      1  0.4962150000000  0.4227700000000  0.5372300000000 1.0
C      1  0.5611380000000  0.5580670000000  0.4771390000000 1.0
C      1  0.5318090000000  0.5165580000000  0.5180580000000 1.0
C      1  0.5561840000000  0.4614440000000  0.4545660000000 1.0
C      1  0.4930450000000  0.5253810000000  0.4547430000000 1.0
C      1  0.4282160000000  0.5139850000000  0.4856160000000 1.0
C      1  0.5598420000000  0.5281790000000  0.5266990000000 1.0
C      1  0.5104730000000  0.4815680000000  0.4498520000000 1.0
C      1  0.5719340000000  0.5314790000000  0.4783580000000 1.0
C      1  0.4817500000000  0.5021690000000  0.4173960000000 1.0
C      1  0.5428390000000  0.4324920000000  0.4931590000000 1.0
C      1  0.4601150000000  0.5231370000000  0.4225160000000 1.0
C      1  0.5344600000000  0.4554810000000  0.4349730000000 1.0
C      1  0.4718380000000  0.5410990000000  0.4430210000000 1.0
C      1  0.5542970000000  0.4884950000000  0.4678030000000 1.0
C      1  0.5646440000000  0.4891770000000  0.4966370000000 1.0
C      1  0.4722860000000  0.4811790000000  0.4638700000000 1.0
C      1  0.4351210000000  0.5418070000000  0.4937070000000 1.0
C      1  0.4741080000000  0.5738790000000  0.5062870000000 1.0
C      1  0.4377010000000  0.4871830000000  0.5333480000000 1.0
C      1  0.4603270000000  0.5119970000000  0.5728420000000 1.0
C      1  0.4883210000000  0.5188800000000  0.5080840000000 1.0
C      1  0.4561270000000  0.5617440000000  0.4862790000000 1.0
C      1  0.4310230000000  0.5008720000000  0.4588710000000 1.0
C      1  0.5623070000000  0.5073180000000  0.5503620000000 1.0
C      1  0.5601510000000  0.5163070000000  0.4566650000000 1.0
C      1  0.5000950000000  0.5284470000000  0.4839130000000 1.0
C      1  0.4788220000000  0.4696190000000  0.5584440000000 1.0
C      1  0.4720930000000  0.4286330000000  0.4717770000000 1.0
C      1  0.5132990000000  0.4750740000000  0.5211140000000 1.0
C      1  0.4694380000000  0.5634990000000  0.4603840000000 1.0
C      1  0.5100580000000  0.4491320000000  0.4525830000000 1.0
C      1  0.5750010000000  0.4621280000000  0.5002460000000 1.0
C      1  0.4590870000000  0.5519500000000  0.5491920000000 1.0
C      1  0.5740420000000  0.5167460000000  0.5025030000000 1.0
C      1  0.5632110000000  0.4462710000000  0.4787820000000 1.0
C      1  0.4874140000000  0.4977610000000  0.4465300000000 1.0
C      1  0.5399910000000  0.4883620000000  0.5198110000000 1.0
C      1  0.4950880000000  0.4180650000000  0.4857680000000 1.0
C      1  0.5437400000000  0.5342890000000  0.4416030000000 1.0
C      1  0.4816210000000  0.4711290000000  0.4895720000000 1.0
C      1  0.5062280000000  0.5250830000000  0.5302220000000 1.0
C      1  0.5164440000000  0.4368500000000  0.4800400000000 1.0
C      1  0.4986520000000  0.5813870000000  0.4928200000000 1.0
C      1  0.5534410000000  0.5576450000000  0.5263440000000 1.0
C      1  0.4599560000000  0.4460160000000  0.5540500000000 1.0
C      1  0.4361360000000  0.5364600000000  0.5420870000000 1.0
C      1  0.4733450000000  0.5362970000000  0.5676740000000 1.0
C      1  0.5233510000000  0.5147010000000  0.4892700000000 1.0
C      1  0.5511600000000  0.5694460000000  0.5004840000000 1.0
C      1  0.4664960000000  0.4430240000000  0.4976780000000 1.0
C      1  0.4580820000000  0.4602680000000  0.4503850000000 1.0
C      1  0.5182440000000  0.5205610000000  0.5786760000000 1.0
C      1  0.4254470000000  0.5447480000000  0.5192190000000 1.0
C      1  0.5237720000000  0.4812020000000  0.5726720000000 1.0
C      1  0.5109810000000  0.4653530000000  0.4917950000000 1.0
C      1  0.4396300000000  0.4570050000000  0.5350880000000 1.0
C      1  0.4769030000000  0.5682040000000  0.5341720000000 1.0
C      1  0.5242880000000  0.4876220000000  0.4755620000000 1.0
C      1  0.5436900000000  0.4375070000000  0.5226680000000 1.0
END
