TITL C-214945-2893-2 -107.319109809023 125000 -690.456098784826 0 0 101 (C1) n - 1
REM
REM in /rds/project/t2_vol4/rds-t2-cs072/BORA/CARBON/from-Arr/AIRSS/Generating-Clusters/GAP-ML-2020/Only-C1/SD-CG/HFTN-CG
REM
REM
REM
REM
REM
REM ./C.cell (11c1c37f851c82e70ff6c80c92926a4b)
REM AIRSS Version 0.9.1 bugfix July 2018 build 013d7b7c2542+ Fri, 06 Jul 2018 19:26:36 +0100
REM compiler GCC version 9.3.0
REM options -cpp -mtune=generic -march=x86-64 -g -O0
REM seed 2068921913 1031494290 -489788321 -505063759 273234640 -62317851 -30951396 -462635199 -1001372560 -1091939011 -978271375 -1095396360 -1069959464 1757611559 -19975887 -1526546234 1458969850 -1275355493 -59520580 -332099676 123839349 -1013927801 1498613119 1451573764 1730372208 630515358 -1312976348 2056941520 -1377388432 -1220654678 979132052 2127715170 1074012408
REM
CELL 1.54180   50.00000   50.00000   50.00000   90.00000   90.00000   90.00000
LATT -1
SFAC C  
C      1  0.4542310000000  0.5552170000000  0.5484810000000 1.0
C      1  0.5168330000000  0.4447310000000  0.4753280000000 1.0
C      1  0.4801390000000  0.5481690000000  0.4137280000000 1.0
C      1  0.5630200000000  0.4979950000000  0.4470800000000 1.0
C      1  0.5303970000000  0.5208750000000  0.4992030000000 1.0
C      1  0.5623820000000  0.4844850000000  0.5714140000000 1.0
C      1  0.5064860000000  0.4496250000000  0.4493910000000 1.0
C      1  0.5087790000000  0.5461490000000  0.4180930000000 1.0
C      1  0.5140350000000  0.5391690000000  0.5827920000000 1.0
C      1  0.4861890000000  0.5501430000000  0.5141770000000 1.0
C      1  0.5239730000000  0.5013130000000  0.4778480000000 1.0
C      1  0.5292460000000  0.4411240000000  0.5315420000000 1.0
C      1  0.4977060000000  0.4758540000000  0.5071980000000 1.0
C      1  0.4720330000000  0.4841320000000  0.5159210000000 1.0
C      1  0.4977940000000  0.5768920000000  0.5220820000000 1.0
C      1  0.4775370000000  0.5025830000000  0.4051050000000 1.0
C      1  0.4896760000000  0.5404070000000  0.4863290000000 1.0
C      1  0.5472270000000  0.4757830000000  0.5055090000000 1.0
C      1  0.5037120000000  0.4451210000000  0.5188820000000 1.0
C      1  0.4824080000000  0.4318160000000  0.4444340000000 1.0
C      1  0.4838280000000  0.5951660000000  0.4809490000000 1.0
C      1  0.4995090000000  0.5048780000000  0.4396620000000 1.0
C      1  0.5036350000000  0.5618000000000  0.4421890000000 1.0
C      1  0.4619760000000  0.5648100000000  0.5225340000000 1.0
C      1  0.5766080000000  0.5016860000000  0.5563130000000 1.0
C      1  0.5114780000000  0.4805090000000  0.5508200000000 1.0
C      1  0.4527540000000  0.5681300000000  0.4536070000000 1.0
C      1  0.5751760000000  0.4349570000000  0.5109990000000 1.0
C      1  0.4219810000000  0.4789080000000  0.4980830000000 1.0
C      1  0.4304110000000  0.5042510000000  0.4836470000000 1.0
C      1  0.5216940000000  0.4881120000000  0.5236860000000 1.0
C      1  0.5203920000000  0.4752080000000  0.4133310000000 1.0
C      1  0.5010750000000  0.5142320000000  0.5902640000000 1.0
C      1  0.4948450000000  0.5287260000000  0.5323900000000 1.0
C      1  0.5532280000000  0.4562810000000  0.5687040000000 1.0
C      1  0.5514890000000  0.4495240000000  0.5158060000000 1.0
C      1  0.5267970000000  0.5711210000000  0.4875320000000 1.0
C      1  0.5009870000000  0.4304720000000  0.4946720000000 1.0
C      1  0.5172920000000  0.4935830000000  0.5780270000000 1.0
C      1  0.4817790000000  0.4399380000000  0.5423220000000 1.0
C      1  0.5739270000000  0.5206480000000  0.5123510000000 1.0
C      1  0.4972990000000  0.4445890000000  0.5675010000000 1.0
C      1  0.5717610000000  0.4468580000000  0.4625900000000 1.0
C      1  0.4595560000000  0.5831980000000  0.4777980000000 1.0
C      1  0.5715100000000  0.4390270000000  0.5565430000000 1.0
C      1  0.4737890000000  0.5139600000000  0.5445250000000 1.0
C      1  0.4629080000000  0.4272960000000  0.5242110000000 1.0
C      1  0.4473630000000  0.5265550000000  0.5455850000000 1.0
C      1  0.4231390000000  0.5257210000000  0.5026630000000 1.0
C      1  0.4250470000000  0.4861890000000  0.5267940000000 1.0
C      1  0.4573320000000  0.4894730000000  0.4216490000000 1.0
C      1  0.5260380000000  0.5242610000000  0.4128630000000 1.0
C      1  0.5810540000000  0.4336260000000  0.4825580000000 1.0
C      1  0.5410360000000  0.5323160000000  0.5752080000000 1.0
C      1  0.4435330000000  0.5131770000000  0.4303070000000 1.0
C      1  0.4629600000000  0.5266070000000  0.4110180000000 1.0
C      1  0.5727150000000  0.5237030000000  0.5405310000000 1.0
C      1  0.4794770000000  0.5145920000000  0.4824560000000 1.0
C      1  0.4315230000000  0.5194660000000  0.4554740000000 1.0
C      1  0.5851090000000  0.4282100000000  0.5374510000000 1.0
C      1  0.5728050000000  0.4957780000000  0.4972460000000 1.0
C      1  0.4632670000000  0.4650560000000  0.5560850000000 1.0
C      1  0.5546330000000  0.5369310000000  0.4994700000000 1.0
C      1  0.5755840000000  0.5018760000000  0.4705950000000 1.0
C      1  0.4793730000000  0.4864070000000  0.5442420000000 1.0
C      1  0.5449760000000  0.5625440000000  0.5072860000000 1.0
C      1  0.4796040000000  0.4651080000000  0.5812300000000 1.0
C      1  0.5412490000000  0.5634540000000  0.5366020000000 1.0
C      1  0.5129150000000  0.5494620000000  0.4674650000000 1.0
C      1  0.4591660000000  0.5027360000000  0.4966530000000 1.0
C      1  0.4277400000000  0.5146630000000  0.5294110000000 1.0
C      1  0.4455060000000  0.5718490000000  0.5005470000000 1.0
C      1  0.5545450000000  0.5435670000000  0.5523700000000 1.0
C      1  0.4750750000000  0.5654430000000  0.4361750000000 1.0
C      1  0.5049370000000  0.5884100000000  0.4963460000000 1.0
C      1  0.4915890000000  0.4788960000000  0.4526900000000 1.0
C      1  0.4745370000000  0.5605780000000  0.5650260000000 1.0
C      1  0.5069210000000  0.5000220000000  0.4102860000000 1.0
C      1  0.5524250000000  0.4672270000000  0.4527150000000 1.0
C      1  0.4970480000000  0.4903490000000  0.4802430000000 1.0
C      1  0.4657060000000  0.4724440000000  0.4412230000000 1.0
C      1  0.5351370000000  0.4710560000000  0.4788100000000 1.0
C      1  0.4431810000000  0.4379490000000  0.4729240000000 1.0
C      1  0.5154730000000  0.5725990000000  0.5445990000000 1.0
C      1  0.5218620000000  0.5193950000000  0.4547750000000 1.0
C      1  0.5184400000000  0.5159050000000  0.5242740000000 1.0
C      1  0.4573360000000  0.4477250000000  0.4499630000000 1.0
C      1  0.4903750000000  0.4883890000000  0.5935820000000 1.0
C      1  0.4302610000000  0.4515780000000  0.4948890000000 1.0
C      1  0.5250690000000  0.4520600000000  0.5579840000000 1.0
C      1  0.4336050000000  0.5472520000000  0.4624900000000 1.0
C      1  0.5013510000000  0.5612960000000  0.5685310000000 1.0
C      1  0.5434720000000  0.5166030000000  0.4356930000000 1.0
C      1  0.4287710000000  0.5506860000000  0.4907210000000 1.0
C      1  0.4588640000000  0.4133080000000  0.4775500000000 1.0
C      1  0.5294140000000  0.4596070000000  0.4330990000000 1.0
C      1  0.4368700000000  0.4644340000000  0.5412100000000 1.0
C      1  0.4753750000000  0.4186980000000  0.4993660000000 1.0
C      1  0.4386530000000  0.4429070000000  0.5216150000000 1.0
C      1  0.5439360000000  0.5042250000000  0.5801670000000 1.0
C      1  0.4751430000000  0.4081760000000  0.4537040000000 1.0
END
