TITL C-214945-2893-1 -1.16000357561439 125000 -66.1031238101417 0 0 11 (C1) n - 1
REM
REM in /rds/project/t2_vol4/rds-t2-cs072/BORA/CARBON/from-Arr/AIRSS/Generating-Clusters/GAP-ML-2020/Only-C1/SD-CG/HFTN-CG
REM
REM
REM
REM
REM
REM ./C.cell (11c1c37f851c82e70ff6c80c92926a4b)
REM AIRSS Version 0.9.1 bugfix July 2018 build 013d7b7c2542+ Fri, 06 Jul 2018 19:26:36 +0100
REM compiler GCC version 9.3.0
REM options -cpp -mtune=generic -march=x86-64 -g -O0
REM seed 1128374734 1911522319 44413691 1680774339 -1850330587 -2129593496 -1982964988 1712032451 1591734117 1282709919 140424644 1442413970 105181086 2048478143 1771908109 2130529441 825519688 1624048437 -1982251912 129321188 1704984721 -820923615 80479763 1016076408 2104744875 697088072 1576587360 -1418676438 -846357373 -979105225 716832234 -1643977026 2033761174
REM
CELL 1.54180   50.00000   50.00000   50.00000   90.00000   90.00000   90.00000
LATT -1
SFAC C  
C      1  0.5399300000000  0.5124450000000  0.5132970000000 1.0
C      1  0.4620830000000  0.5124280000000  0.5407610000000 1.0
C      1  0.5140280000000  0.5202830000000  0.4644850000000 1.0
C      1  0.4735800000000  0.5184040000000  0.5181900000000 1.0
C      1  0.4784720000000  0.4660250000000  0.5195130000000 1.0
C      1  0.4874040000000  0.4715200000000  0.4955310000000 1.0
C      1  0.4991870000000  0.4742350000000  0.4725390000000 1.0
C      1  0.5158670000000  0.5430970000000  0.4745620000000 1.0
C      1  0.4768860000000  0.4918730000000  0.5294380000000 1.0
C      1  0.5348570000000  0.4944310000000  0.4968570000000 1.0
C      1  0.5177060000000  0.4952590000000  0.4748260000000 1.0
END
