TITL C-211911-555-3 -140.90280162218 125000 -861.748844130298 0 0 124 (C1) n - 1
REM
REM in /rds/project/t2_vol4/rds-t2-cs072/BORA/CARBON/from-Arr/AIRSS/Generating-Clusters/GAP-ML-2020/Only-C1/SD-CG/HFTN-CG
REM
REM
REM
REM
REM
REM ./C.cell (11c1c37f851c82e70ff6c80c92926a4b)
REM AIRSS Version 0.9.1 bugfix July 2018 build 013d7b7c2542+ Fri, 06 Jul 2018 19:26:36 +0100
REM compiler GCC version 9.3.0
REM options -cpp -mtune=generic -march=x86-64 -g -O0
REM seed 227961984 -802078872 1185815138 2055725805 -1283189312 -781868443 -161153897 -1781465247 -2062056612 -98933706 -1606626871 1845459321 1034545076 -1497348164 1207922293 280692859 540367319 -1731278737 1515876942 -1931985546 -2005439986 1575377122 -344388489 485650001 2106827274 44540789 -675605354 -1631719025 1800862157 2100872701 -918518181 1953331154 1289908417
REM
CELL 1.54180   50.00000   50.00000   50.00000   90.00000   90.00000   90.00000
LATT -1
SFAC C  
C      1  0.4883740000000  0.4313780000000  0.4260660000000 1.0
C      1  0.4910410000000  0.4921710000000  0.5993460000000 1.0
C      1  0.5612960000000  0.5720060000000  0.5137970000000 1.0
C      1  0.4749720000000  0.5489700000000  0.4251340000000 1.0
C      1  0.5365430000000  0.5331840000000  0.4593780000000 1.0
C      1  0.5871700000000  0.5411740000000  0.4864760000000 1.0
C      1  0.5980750000000  0.4974170000000  0.5111450000000 1.0
C      1  0.5045590000000  0.5078180000000  0.4327160000000 1.0
C      1  0.5040870000000  0.5504720000000  0.5024430000000 1.0
C      1  0.5010620000000  0.5431230000000  0.5481430000000 1.0
C      1  0.4819810000000  0.4600290000000  0.5676640000000 1.0
C      1  0.4745180000000  0.4216040000000  0.5356550000000 1.0
C      1  0.4503680000000  0.5676730000000  0.5147250000000 1.0
C      1  0.5057950000000  0.4849840000000  0.4762780000000 1.0
C      1  0.5667390000000  0.4519650000000  0.5625280000000 1.0
C      1  0.5398660000000  0.5895860000000  0.5186110000000 1.0
C      1  0.4642590000000  0.4043110000000  0.4886150000000 1.0
C      1  0.5023740000000  0.5740180000000  0.5437820000000 1.0
C      1  0.5325120000000  0.4962260000000  0.4320900000000 1.0
C      1  0.5202040000000  0.4368370000000  0.5606220000000 1.0
C      1  0.5944020000000  0.4883210000000  0.5394290000000 1.0
C      1  0.5070850000000  0.4750000000000  0.5805360000000 1.0
C      1  0.4531860000000  0.4839150000000  0.4974560000000 1.0
C      1  0.5678210000000  0.5624930000000  0.4880540000000 1.0
C      1  0.5722040000000  0.5381990000000  0.4373700000000 1.0
C      1  0.5228250000000  0.5422950000000  0.5704900000000 1.0
C      1  0.5537320000000  0.4522990000000  0.5877200000000 1.0
C      1  0.4664560000000  0.4785310000000  0.5889100000000 1.0
C      1  0.4783520000000  0.5812460000000  0.5592430000000 1.0
C      1  0.4684360000000  0.5738560000000  0.4632670000000 1.0
C      1  0.4745010000000  0.5269680000000  0.5535110000000 1.0
C      1  0.4234450000000  0.4820390000000  0.5052070000000 1.0
C      1  0.5426300000000  0.4479950000000  0.5435990000000 1.0
C      1  0.5863140000000  0.5351610000000  0.5360670000000 1.0
C      1  0.4303920000000  0.4286260000000  0.4616710000000 1.0
C      1  0.4860940000000  0.5113740000000  0.4876330000000 1.0
C      1  0.4175470000000  0.4553570000000  0.4951710000000 1.0
C      1  0.4979660000000  0.5773080000000  0.4569530000000 1.0
C      1  0.5043940000000  0.4059910000000  0.4694210000000 1.0
C      1  0.4691740000000  0.5819570000000  0.5297090000000 1.0
C      1  0.4157540000000  0.5240870000000  0.4440810000000 1.0
C      1  0.5181950000000  0.5914320000000  0.5001680000000 1.0
C      1  0.5812300000000  0.5115270000000  0.5508970000000 1.0
C      1  0.5263700000000  0.4528730000000  0.5849150000000 1.0
C      1  0.5020310000000  0.5562520000000  0.4355190000000 1.0
C      1  0.5395600000000  0.4348410000000  0.4715030000000 1.0
C      1  0.5449240000000  0.5267990000000  0.4304180000000 1.0
C      1  0.5357160000000  0.4236800000000  0.4980830000000 1.0
C      1  0.5769490000000  0.5011100000000  0.4688970000000 1.0
C      1  0.4629050000000  0.4875870000000  0.4530300000000 1.0
C      1  0.5316420000000  0.5153710000000  0.5695140000000 1.0
C      1  0.4822220000000  0.5675640000000  0.5823920000000 1.0
C      1  0.4160840000000  0.5015200000000  0.4591730000000 1.0
C      1  0.4911900000000  0.4339470000000  0.5567390000000 1.0
C      1  0.4995050000000  0.4463610000000  0.4478110000000 1.0
C      1  0.4201870000000  0.4540150000000  0.4670150000000 1.0
C      1  0.5963610000000  0.5273700000000  0.5104580000000 1.0
C      1  0.4444700000000  0.4314740000000  0.4374370000000 1.0
C      1  0.5433370000000  0.5611090000000  0.5569110000000 1.0
C      1  0.4291340000000  0.5521970000000  0.4782010000000 1.0
C      1  0.4445610000000  0.4588300000000  0.4275170000000 1.0
C      1  0.5495340000000  0.4407670000000  0.5154860000000 1.0
C      1  0.5180060000000  0.4263250000000  0.4557910000000 1.0
C      1  0.4220970000000  0.5331930000000  0.4978760000000 1.0
C      1  0.4842580000000  0.4666250000000  0.4661600000000 1.0
C      1  0.5098400000000  0.4083900000000  0.4974050000000 1.0
C      1  0.4324390000000  0.5071820000000  0.5582540000000 1.0
C      1  0.4462220000000  0.5288280000000  0.5439600000000 1.0
C      1  0.5460930000000  0.5092100000000  0.5037630000000 1.0
C      1  0.5225340000000  0.5434430000000  0.4161760000000 1.0
C      1  0.5522590000000  0.5080180000000  0.5514670000000 1.0
C      1  0.5017870000000  0.5473720000000  0.5907310000000 1.0
C      1  0.4308230000000  0.4324920000000  0.5078530000000 1.0
C      1  0.5152710000000  0.4618370000000  0.4004740000000 1.0
C      1  0.4954480000000  0.5782080000000  0.5143960000000 1.0
C      1  0.5047740000000  0.5241730000000  0.4071960000000 1.0
C      1  0.4385770000000  0.4157530000000  0.4864120000000 1.0
C      1  0.5379530000000  0.4811900000000  0.5424630000000 1.0
C      1  0.5386270000000  0.4834080000000  0.5131300000000 1.0
C      1  0.5136770000000  0.4934120000000  0.5582430000000 1.0
C      1  0.4499120000000  0.4999530000000  0.5800770000000 1.0
C      1  0.4770430000000  0.4037840000000  0.4632220000000 1.0
C      1  0.4093290000000  0.4924380000000  0.5534770000000 1.0
C      1  0.4862130000000  0.5005350000000  0.5430400000000 1.0
C      1  0.4878480000000  0.4639720000000  0.5151650000000 1.0
C      1  0.4227810000000  0.4774980000000  0.5346950000000 1.0
C      1  0.5131570000000  0.5319930000000  0.5229780000000 1.0
C      1  0.4737280000000  0.4724400000000  0.5414940000000 1.0
C      1  0.4899750000000  0.5211900000000  0.5986850000000 1.0
C      1  0.5335570000000  0.4778380000000  0.4079900000000 1.0
C      1  0.4477700000000  0.4345170000000  0.5313060000000 1.0
C      1  0.4459280000000  0.4605240000000  0.5409620000000 1.0
C      1  0.5589300000000  0.4651910000000  0.4988280000000 1.0
C      1  0.5210280000000  0.5819600000000  0.4728210000000 1.0
C      1  0.5615760000000  0.5517510000000  0.5354840000000 1.0
C      1  0.4500470000000  0.5697670000000  0.4862140000000 1.0
C      1  0.4365340000000  0.5431510000000  0.5214010000000 1.0
C      1  0.4555010000000  0.5591780000000  0.4423180000000 1.0
C      1  0.4834860000000  0.4078150000000  0.5109600000000 1.0
C      1  0.5634100000000  0.5643000000000  0.4414910000000 1.0
C      1  0.5427590000000  0.5262450000000  0.5259660000000 1.0
C      1  0.5477140000000  0.5094400000000  0.4745290000000 1.0
C      1  0.4671380000000  0.5225920000000  0.5822040000000 1.0
C      1  0.4892560000000  0.4519620000000  0.4071260000000 1.0
C      1  0.5840680000000  0.4837680000000  0.4911040000000 1.0
C      1  0.5295130000000  0.5825480000000  0.5451270000000 1.0
C      1  0.4708880000000  0.4618990000000  0.4924050000000 1.0
C      1  0.4685500000000  0.4166310000000  0.4385670000000 1.0
C      1  0.5073290000000  0.5318130000000  0.4539570000000 1.0
C      1  0.4301710000000  0.5466880000000  0.4506450000000 1.0
C      1  0.4934330000000  0.5368180000000  0.4795480000000 1.0
C      1  0.4743980000000  0.4964990000000  0.4260050000000 1.0
C      1  0.5491840000000  0.4610150000000  0.4717260000000 1.0
C      1  0.4671640000000  0.4702010000000  0.4132620000000 1.0
C      1  0.5463660000000  0.5634330000000  0.4664570000000 1.0
C      1  0.4149310000000  0.5065720000000  0.4887690000000 1.0
C      1  0.5858610000000  0.5265150000000  0.4612520000000 1.0
C      1  0.5337660000000  0.4859670000000  0.4620420000000 1.0
C      1  0.4610270000000  0.5036620000000  0.4779770000000 1.0
C      1  0.4966240000000  0.5070070000000  0.5165490000000 1.0
C      1  0.4321880000000  0.4756270000000  0.4500560000000 1.0
C      1  0.4768460000000  0.5241600000000  0.4116190000000 1.0
C      1  0.5881700000000  0.4641450000000  0.5500440000000 1.0
C      1  0.5096080000000  0.4813510000000  0.5059140000000 1.0
END
