TITL C-21931-1633-5 -0.0265571772364024 125000 -395.600778243137 0 0 57 (C1) n - 1
REM
REM in /rds/project/t2_vol4/rds-t2-cs072/BORA/CARBON/from-Arr/AIRSS/Generating-Clusters/GAP-ML-2020/Only-C1/SD-CG/HFTN-CG
REM
REM
REM
REM
REM
REM ./C.cell (11c1c37f851c82e70ff6c80c92926a4b)
REM AIRSS Version 0.9.1 bugfix July 2018 build 013d7b7c2542+ Fri, 06 Jul 2018 19:26:36 +0100
REM compiler GCC version 9.3.0
REM options -cpp -mtune=generic -march=x86-64 -g -O0
REM seed -1375496185 -284993682 -1738506616 1796326230 -1029635917 -2084651839 -1094034522 605021371 1935366489 -1887174714 1434228157 86900906 -119802425 1922964396 739402883 428244500 1736381926 1427680633 -1533605359 -1929498734 -461767067 392490914 -627287555 1351847619 1413963612 -1981330263 -292466469 -1559429689 207725204 1389612811 -2071844154 -1380523927 2086084872
REM
CELL 1.54180   50.00000   50.00000   50.00000   90.00000   90.00000   90.00000
LATT -1
SFAC C  
C      1  0.4288910000000  0.4871350000000  0.4675600000000 1.0
C      1  0.4948860000000  0.4749430000000  0.4962140000000 1.0
C      1  0.5240420000000  0.4462150000000  0.5234820000000 1.0
C      1  0.4472700000000  0.5186420000000  0.5037470000000 1.0
C      1  0.5759350000000  0.5048580000000  0.5090640000000 1.0
C      1  0.4545590000000  0.5149110000000  0.5329000000000 1.0
C      1  0.5155060000000  0.4972980000000  0.4353780000000 1.0
C      1  0.4458890000000  0.5362660000000  0.5526360000000 1.0
C      1  0.5060180000000  0.5231800000000  0.4409990000000 1.0
C      1  0.4946010000000  0.5703520000000  0.4952830000000 1.0
C      1  0.5069810000000  0.5671710000000  0.5212430000000 1.0
C      1  0.5365410000000  0.4771970000000  0.5553040000000 1.0
C      1  0.5657170000000  0.5308400000000  0.5138910000000 1.0
C      1  0.5401130000000  0.4624810000000  0.4605790000000 1.0
C      1  0.4621200000000  0.5568840000000  0.5566510000000 1.0
C      1  0.5490270000000  0.4565290000000  0.5132320000000 1.0
C      1  0.5446490000000  0.5225850000000  0.5599000000000 1.0
C      1  0.5201920000000  0.4452650000000  0.4511720000000 1.0
C      1  0.5261310000000  0.5448680000000  0.5176420000000 1.0
C      1  0.5477250000000  0.5432630000000  0.4957430000000 1.0
C      1  0.4813110000000  0.5562500000000  0.5348570000000 1.0
C      1  0.4703140000000  0.5611560000000  0.5069770000000 1.0
C      1  0.4727130000000  0.4770450000000  0.4807450000000 1.0
C      1  0.4709880000000  0.4526220000000  0.4609800000000 1.0
C      1  0.5191810000000  0.5420230000000  0.4574710000000 1.0
C      1  0.4728950000000  0.5417830000000  0.4655390000000 1.0
C      1  0.5668430000000  0.4922500000000  0.4850370000000 1.0
C      1  0.4800170000000  0.4841670000000  0.5584440000000 1.0
C      1  0.4563860000000  0.4870230000000  0.5421720000000 1.0
C      1  0.5058510000000  0.4991230000000  0.5000160000000 1.0
C      1  0.4863920000000  0.5242630000000  0.5368750000000 1.0
C      1  0.4582040000000  0.5416510000000  0.4910780000000 1.0
C      1  0.4510930000000  0.4624690000000  0.5267050000000 1.0
C      1  0.4906610000000  0.4584400000000  0.5542500000000 1.0
C      1  0.5042730000000  0.5218400000000  0.5139420000000 1.0
C      1  0.4975910000000  0.4483940000000  0.5111610000000 1.0
C      1  0.4776110000000  0.5221520000000  0.4450990000000 1.0
C      1  0.4770680000000  0.4477370000000  0.5316600000000 1.0
C      1  0.5253180000000  0.5029870000000  0.5629320000000 1.0
C      1  0.4439400000000  0.4815050000000  0.4433650000000 1.0
C      1  0.5189170000000  0.4563740000000  0.5497310000000 1.0
C      1  0.4281630000000  0.4601940000000  0.4788460000000 1.0
C      1  0.5579420000000  0.4742580000000  0.5349000000000 1.0
C      1  0.4353280000000  0.4576110000000  0.5050270000000 1.0
C      1  0.5444710000000  0.5342990000000  0.4692420000000 1.0
C      1  0.4949490000000  0.4537390000000  0.4443200000000 1.0
C      1  0.5540280000000  0.5075290000000  0.4643480000000 1.0
C      1  0.5389400000000  0.4890790000000  0.4488520000000 1.0
C      1  0.5556820000000  0.4655400000000  0.4860440000000 1.0
C      1  0.4444360000000  0.4540980000000  0.4526370000000 1.0
C      1  0.5480230000000  0.5352620000000  0.5368960000000 1.0
C      1  0.4965030000000  0.5071630000000  0.5587560000000 1.0
C      1  0.4481660000000  0.4973570000000  0.4858140000000 1.0
C      1  0.5800260000000  0.4894120000000  0.5323170000000 1.0
C      1  0.4929020000000  0.4802610000000  0.4330640000000 1.0
C      1  0.4683340000000  0.4956830000000  0.4369130000000 1.0
C      1  0.4977500000000  0.5563790000000  0.4703630000000 1.0
END
