TITL C-215720-9309-7 -0.0898369677190477 125000 -230.974592962789 0 0 35 (C1) n - 1
REM
REM in /rds/project/t2_vol4/rds-t2-cs072/BORA/CARBON/from-Arr/AIRSS/Generating-Clusters/GAP-ML-2020/Only-C1/SD-CG/HFTN-CG
REM
REM
REM
REM
REM
REM ./C.cell (11c1c37f851c82e70ff6c80c92926a4b)
REM AIRSS Version 0.9.1 bugfix July 2018 build 013d7b7c2542+ Fri, 06 Jul 2018 19:26:36 +0100
REM compiler GCC version 9.3.0
REM options -cpp -mtune=generic -march=x86-64 -g -O0
REM seed 24506266 -1632058847 -1655381189 -285841670 -1723544949 1776834255 -565664587 1523760363 -1718615647 -244695608 -1396775575 -259137922 -1760034368 2017913853 1617668158 848911389 -573360977 -1572276553 -1923337059 -2111426992 -1512809698 908854288 -232477533 1914778657 -409844657 1650837928 1813561871 -970476213 814747199 1990525401 1411144613 313329574 1854218981
REM
CELL 1.54180   50.00000   50.00000   50.00000   90.00000   90.00000   90.00000
LATT -1
SFAC C  
C      1  0.5161890000000  0.4988360000000  0.5243550000000 1.0
C      1  0.5193520000000  0.5089560000000  0.4971340000000 1.0
C      1  0.4806450000000  0.4470110000000  0.4886000000000 1.0
C      1  0.5147590000000  0.5444890000000  0.4408810000000 1.0
C      1  0.5164430000000  0.5473100000000  0.5195270000000 1.0
C      1  0.4954390000000  0.5425840000000  0.5382460000000 1.0
C      1  0.4690690000000  0.5110390000000  0.4794040000000 1.0
C      1  0.5290910000000  0.5161830000000  0.5437940000000 1.0
C      1  0.4903730000000  0.5002470000000  0.4608490000000 1.0
C      1  0.4597390000000  0.4984390000000  0.5329650000000 1.0
C      1  0.4674450000000  0.4853410000000  0.5082650000000 1.0
C      1  0.4904080000000  0.5036180000000  0.5683510000000 1.0
C      1  0.5483150000000  0.5166320000000  0.5041850000000 1.0
C      1  0.5504920000000  0.4719270000000  0.5014780000000 1.0
C      1  0.5061760000000  0.5243920000000  0.5591270000000 1.0
C      1  0.4796980000000  0.4820290000000  0.4422390000000 1.0
C      1  0.5394850000000  0.4586680000000  0.5233290000000 1.0
C      1  0.5297910000000  0.4714510000000  0.4690100000000 1.0
C      1  0.4716150000000  0.5352510000000  0.5231670000000 1.0
C      1  0.5156150000000  0.4712010000000  0.5205080000000 1.0
C      1  0.5157390000000  0.5417850000000  0.4677080000000 1.0
C      1  0.4481410000000  0.5245250000000  0.5322640000000 1.0
C      1  0.5064760000000  0.5212790000000  0.4504910000000 1.0
C      1  0.4929920000000  0.4703380000000  0.5000200000000 1.0
C      1  0.4580430000000  0.4684840000000  0.4396260000000 1.0
C      1  0.5640790000000  0.4954560000000  0.5066320000000 1.0
C      1  0.4545810000000  0.4672100000000  0.4672730000000 1.0
C      1  0.5524920000000  0.4615760000000  0.4751210000000 1.0
C      1  0.4784060000000  0.5315940000000  0.4958300000000 1.0
C      1  0.5084850000000  0.4878940000000  0.4800910000000 1.0
C      1  0.4520510000000  0.4900070000000  0.4853910000000 1.0
C      1  0.5412530000000  0.5355100000000  0.5262260000000 1.0
C      1  0.4719690000000  0.4905500000000  0.5570930000000 1.0
C      1  0.5065990000000  0.5365880000000  0.4939620000000 1.0
C      1  0.4585560000000  0.4416000000000  0.4768590000000 1.0
END
