TITL C-21687-8268-6 -804.801769126997 125000 -406.698192047763 0 0 59 (C1) n - 1
REM
REM in /rds/project/t2_vol4/rds-t2-cs072/BORA/CARBON/from-Arr/AIRSS/Generating-Clusters/GAP-ML-2020/Only-C1/SD-CG/HFTN-CG
REM
REM
REM
REM
REM
REM ./C.cell (11c1c37f851c82e70ff6c80c92926a4b)
REM AIRSS Version 0.9.1 bugfix July 2018 build 013d7b7c2542+ Fri, 06 Jul 2018 19:26:36 +0100
REM compiler GCC version 9.3.0
REM options -cpp -mtune=generic -march=x86-64 -g -O0
REM seed 323260953 2131464393 -36748125 -1246891746 813653503 -123942754 -797030354 -247161961 1174624021 -1545526270 -825886701 -1262503606 267464524 -1896863437 888729444 1965834515 256287876 -890331373 1583317714 -498971745 -1619914712 -1435464727 -1001763925 -1448508014 274489779 369550734 2091832431 -96396244 321090405 -1594435321 -1044471703 -140656411 -315732415
REM
CELL 1.54180   50.00000   50.00000   50.00000   90.00000   90.00000   90.00000
LATT -1
SFAC C  
C      1  0.5395900000000  0.5245220000000  0.4407110000000 1.0
C      1  0.5183830000000  0.4577760000000  0.4730980000000 1.0
C      1  0.5253600000000  0.5578070000000  0.5147560000000 1.0
C      1  0.4410760000000  0.4820680000000  0.4321350000000 1.0
C      1  0.5106580000000  0.4977300000000  0.4113310000000 1.0
C      1  0.5029370000000  0.4725430000000  0.4940230000000 1.0
C      1  0.5676060000000  0.5020630000000  0.5189290000000 1.0
C      1  0.4620030000000  0.5321020000000  0.5033970000000 1.0
C      1  0.4790370000000  0.4357330000000  0.4983370000000 1.0
C      1  0.4880520000000  0.5031280000000  0.4554490000000 1.0
C      1  0.4675680000000  0.4714150000000  0.4268740000000 1.0
C      1  0.5322530000000  0.5093930000000  0.4186940000000 1.0
C      1  0.4787950000000  0.5548680000000  0.4973650000000 1.0
C      1  0.5351950000000  0.5564130000000  0.4877800000000 1.0
C      1  0.4898230000000  0.5340480000000  0.4509460000000 1.0
C      1  0.5461380000000  0.4627250000000  0.4737500000000 1.0
C      1  0.4765450000000  0.5063450000000  0.5087040000000 1.0
C      1  0.5172800000000  0.5604100000000  0.4668020000000 1.0
C      1  0.5434050000000  0.4628380000000  0.5280410000000 1.0
C      1  0.5421940000000  0.5414800000000  0.5309000000000 1.0
C      1  0.4308270000000  0.5102420000000  0.5290520000000 1.0
C      1  0.4888850000000  0.5499460000000  0.5453200000000 1.0
C      1  0.4427820000000  0.4976370000000  0.5521890000000 1.0
C      1  0.5100500000000  0.5067220000000  0.4746890000000 1.0
C      1  0.4242190000000  0.4922400000000  0.4813900000000 1.0
C      1  0.4998340000000  0.4436960000000  0.4572850000000 1.0
C      1  0.5568440000000  0.5175930000000  0.4635030000000 1.0
C      1  0.4644090000000  0.4555320000000  0.5128800000000 1.0
C      1  0.4620360000000  0.5399040000000  0.5485210000000 1.0
C      1  0.4398420000000  0.4883330000000  0.4590590000000 1.0
C      1  0.4473790000000  0.4711450000000  0.5543810000000 1.0
C      1  0.4742950000000  0.4572850000000  0.4529890000000 1.0
C      1  0.5558370000000  0.4609400000000  0.5018290000000 1.0
C      1  0.5166910000000  0.4513090000000  0.5332980000000 1.0
C      1  0.4684600000000  0.4590400000000  0.5416820000000 1.0
C      1  0.5557270000000  0.5362100000000  0.4857170000000 1.0
C      1  0.4891720000000  0.4913660000000  0.4276550000000 1.0
C      1  0.4683800000000  0.4836140000000  0.4686850000000 1.0
C      1  0.4974150000000  0.5600310000000  0.5200590000000 1.0
C      1  0.5611330000000  0.4894880000000  0.4707070000000 1.0
C      1  0.5044030000000  0.5027450000000  0.5015710000000 1.0
C      1  0.4896710000000  0.5100810000000  0.5700440000000 1.0
C      1  0.4775670000000  0.4340660000000  0.4707840000000 1.0
C      1  0.5056990000000  0.4433330000000  0.5079670000000 1.0
C      1  0.4729020000000  0.4794200000000  0.4970610000000 1.0
C      1  0.5330860000000  0.5287820000000  0.5545680000000 1.0
C      1  0.5606300000000  0.5286790000000  0.5129340000000 1.0
C      1  0.5288110000000  0.4866440000000  0.5795860000000 1.0
C      1  0.5539970000000  0.4873660000000  0.5392440000000 1.0
C      1  0.5707600000000  0.4852560000000  0.4968540000000 1.0
C      1  0.4886170000000  0.5554930000000  0.4715030000000 1.0
C      1  0.4963520000000  0.4615430000000  0.5514510000000 1.0
C      1  0.5426390000000  0.5018170000000  0.5610230000000 1.0
C      1  0.4453320000000  0.5350740000000  0.5262100000000 1.0
C      1  0.5177300000000  0.5422450000000  0.4453930000000 1.0
C      1  0.5027760000000  0.4837290000000  0.5706780000000 1.0
C      1  0.4626780000000  0.5159260000000  0.5635210000000 1.0
C      1  0.4225610000000  0.4975180000000  0.5058980000000 1.0
C      1  0.5056770000000  0.5326030000000  0.5607980000000 1.0
END
