TITL C-21803-2742-8 0.0205391205404178 125000 -279.57811874188 0 0 42 (C1) n - 1
REM
REM in /rds/project/t2_vol4/rds-t2-cs072/BORA/CARBON/from-Arr/AIRSS/Generating-Clusters/GAP-ML-2020/Only-C1/SD-CG/HFTN-CG
REM
REM
REM
REM
REM
REM ./C.cell (11c1c37f851c82e70ff6c80c92926a4b)
REM AIRSS Version 0.9.1 bugfix July 2018 build 013d7b7c2542+ Fri, 06 Jul 2018 19:26:36 +0100
REM compiler GCC version 9.3.0
REM options -cpp -mtune=generic -march=x86-64 -g -O0
REM seed 1629756117 390193798 375096969 1672911129 1220792873 -1091995175 1282863123 -770533454 -1536935802 -1942124741 80487164 -843922773 867545571 -654680342 -1778392599 -240876228 614369272 -1489035561 -1909784375 1338093144 -1395336254 -2137112815 -1403633647 -1086727702 1550161952 -1943941603 1911862113 173562671 2016440563 -16179871 -837313168 2102495927 697806912
REM
CELL 1.54180   50.00000   50.00000   50.00000   90.00000   90.00000   90.00000
LATT -1
SFAC C  
C      1  0.5428600000000  0.5412840000000  0.4893070000000 1.0
C      1  0.4866540000000  0.4339990000000  0.4725460000000 1.0
C      1  0.5386510000000  0.5521100000000  0.5151090000000 1.0
C      1  0.4978100000000  0.4378400000000  0.4971830000000 1.0
C      1  0.4991860000000  0.5065660000000  0.5328810000000 1.0
C      1  0.5506000000000  0.4757430000000  0.4622910000000 1.0
C      1  0.5434850000000  0.5193320000000  0.4384320000000 1.0
C      1  0.4991400000000  0.5328250000000  0.5463180000000 1.0
C      1  0.5242010000000  0.4507830000000  0.5029870000000 1.0
C      1  0.4911500000000  0.5537890000000  0.5286800000000 1.0
C      1  0.5207930000000  0.5464380000000  0.4724680000000 1.0
C      1  0.4763060000000  0.5477830000000  0.5034000000000 1.0
C      1  0.4630630000000  0.4749570000000  0.4506290000000 1.0
C      1  0.5018520000000  0.5077760000000  0.4580880000000 1.0
C      1  0.4940530000000  0.4600240000000  0.5380140000000 1.0
C      1  0.4790490000000  0.4454530000000  0.5188270000000 1.0
C      1  0.4999870000000  0.5569190000000  0.4888400000000 1.0
C      1  0.5531570000000  0.5152330000000  0.4860060000000 1.0
C      1  0.4578530000000  0.4918720000000  0.5454220000000 1.0
C      1  0.4487950000000  0.5080600000000  0.5232630000000 1.0
C      1  0.5130010000000  0.5645690000000  0.5144120000000 1.0
C      1  0.5269510000000  0.4938680000000  0.5277740000000 1.0
C      1  0.4628290000000  0.5218360000000  0.5006580000000 1.0
C      1  0.5081120000000  0.5026260000000  0.4854710000000 1.0
C      1  0.5450080000000  0.5378130000000  0.5386250000000 1.0
C      1  0.5514000000000  0.5041990000000  0.4595980000000 1.0
C      1  0.4848190000000  0.4854880000000  0.5474720000000 1.0
C      1  0.4548130000000  0.5086670000000  0.4748660000000 1.0
C      1  0.4872930000000  0.4827520000000  0.4947450000000 1.0
C      1  0.4751670000000  0.4998220000000  0.4534170000000 1.0
C      1  0.4528440000000  0.4560630000000  0.5117030000000 1.0
C      1  0.4447380000000  0.4801900000000  0.5245780000000 1.0
C      1  0.5399440000000  0.4688580000000  0.4860600000000 1.0
C      1  0.5253940000000  0.5332050000000  0.5576070000000 1.0
C      1  0.5420440000000  0.5108210000000  0.5473750000000 1.0
C      1  0.4424420000000  0.4840020000000  0.4729520000000 1.0
C      1  0.5202330000000  0.4645200000000  0.5279610000000 1.0
C      1  0.4880970000000  0.5086390000000  0.5063560000000 1.0
C      1  0.5339140000000  0.4971870000000  0.4985810000000 1.0
C      1  0.4464170000000  0.4580440000000  0.4845720000000 1.0
C      1  0.5195550000000  0.5278550000000  0.4494800000000 1.0
C      1  0.4663430000000  0.4501890000000  0.4650460000000 1.0
END
