TITL C-215713-9171-13 -0.853091772442348 125000 -482.745415335302 0 0 70 (C1) n - 1
REM
REM in /rds/project/t2_vol4/rds-t2-cs072/BORA/CARBON/from-Arr/AIRSS/Generating-Clusters/GAP-ML-2020/Only-C1/SD-CG/HFTN-CG
REM
REM
REM
REM
REM
REM ./C.cell (11c1c37f851c82e70ff6c80c92926a4b)
REM AIRSS Version 0.9.1 bugfix July 2018 build 013d7b7c2542+ Fri, 06 Jul 2018 19:26:36 +0100
REM compiler GCC version 9.3.0
REM options -cpp -mtune=generic -march=x86-64 -g -O0
REM seed -1513520508 1533803759 68463601 -647250558 1421492938 526318388 1693465526 512283861 -295156610 1952273071 280522491 972507832 -387383848 -106084413 140409042 -27517272 2078637473 -767525147 -1148237433 1489590415 -169244181 218391983 484535809 149600617 2016932824 -1719474540 -665974696 1106163004 -1606092347 585942709 -1052659522 -655898309 1920213102
REM
CELL 1.54180   50.00000   50.00000   50.00000   90.00000   90.00000   90.00000
LATT -1
SFAC C  
C      1  0.4304030000000  0.5161830000000  0.4772580000000 1.0
C      1  0.4506520000000  0.5273230000000  0.4588090000000 1.0
C      1  0.5058410000000  0.5112010000000  0.5722550000000 1.0
C      1  0.4496500000000  0.4861790000000  0.5608380000000 1.0
C      1  0.5112330000000  0.5069210000000  0.5266910000000 1.0
C      1  0.5267210000000  0.5730380000000  0.4986060000000 1.0
C      1  0.4955140000000  0.5613610000000  0.4597350000000 1.0
C      1  0.5169980000000  0.5074010000000  0.5003690000000 1.0
C      1  0.5310270000000  0.4611510000000  0.4711730000000 1.0
C      1  0.4994700000000  0.5381300000000  0.5631400000000 1.0
C      1  0.4867610000000  0.5057100000000  0.4290510000000 1.0
C      1  0.5236700000000  0.4639580000000  0.5485080000000 1.0
C      1  0.4641760000000  0.5210070000000  0.5375500000000 1.0
C      1  0.5037290000000  0.4271790000000  0.5276920000000 1.0
C      1  0.4979040000000  0.4619630000000  0.5595810000000 1.0
C      1  0.5634980000000  0.5317640000000  0.5313790000000 1.0
C      1  0.4575840000000  0.5245080000000  0.5084730000000 1.0
C      1  0.5031910000000  0.5746580000000  0.4834110000000 1.0
C      1  0.4870530000000  0.4994500000000  0.4760570000000 1.0
C      1  0.5067530000000  0.4450460000000  0.4628850000000 1.0
C      1  0.4956320000000  0.4156300000000  0.5044100000000 1.0
C      1  0.5719190000000  0.5195570000000  0.4863930000000 1.0
C      1  0.4390570000000  0.5099630000000  0.5490290000000 1.0
C      1  0.5772160000000  0.4963250000000  0.5024840000000 1.0
C      1  0.4598880000000  0.5069270000000  0.4403680000000 1.0
C      1  0.4600870000000  0.4464180000000  0.4772450000000 1.0
C      1  0.5219240000000  0.4513920000000  0.5205230000000 1.0
C      1  0.4378280000000  0.4592520000000  0.4911470000000 1.0
C      1  0.4491800000000  0.4825720000000  0.4506100000000 1.0
C      1  0.4388430000000  0.4868860000000  0.4772550000000 1.0
C      1  0.5756680000000  0.5061610000000  0.5299950000000 1.0
C      1  0.5602970000000  0.5231240000000  0.4599910000000 1.0
C      1  0.5642790000000  0.4705680000000  0.5107070000000 1.0
C      1  0.5643270000000  0.4815390000000  0.5386490000000 1.0
C      1  0.4628190000000  0.4535830000000  0.5309450000000 1.0
C      1  0.4891960000000  0.4380510000000  0.4862780000000 1.0
C      1  0.5536000000000  0.5018240000000  0.4431460000000 1.0
C      1  0.4897390000000  0.4566770000000  0.4429920000000 1.0
C      1  0.4849050000000  0.4415880000000  0.5454260000000 1.0
C      1  0.5104440000000  0.5239990000000  0.4299890000000 1.0
C      1  0.4765810000000  0.4776060000000  0.5166120000000 1.0
C      1  0.4652710000000  0.4959710000000  0.4952330000000 1.0
C      1  0.5475950000000  0.5584800000000  0.4864680000000 1.0
C      1  0.4852230000000  0.4977190000000  0.5356060000000 1.0
C      1  0.5434900000000  0.4552180000000  0.4994220000000 1.0
C      1  0.5430840000000  0.4734990000000  0.4466700000000 1.0
C      1  0.5435070000000  0.5469020000000  0.4601060000000 1.0
C      1  0.4847900000000  0.4882380000000  0.5641570000000 1.0
C      1  0.5333760000000  0.5090720000000  0.5658320000000 1.0
C      1  0.4748030000000  0.5412170000000  0.5539960000000 1.0
C      1  0.5642710000000  0.5413220000000  0.5031350000000 1.0
C      1  0.4991180000000  0.5241360000000  0.4854030000000 1.0
C      1  0.4977370000000  0.4787860000000  0.4274770000000 1.0
C      1  0.4351330000000  0.4541590000000  0.5197800000000 1.0
C      1  0.5429850000000  0.4828540000000  0.5566100000000 1.0
C      1  0.5325520000000  0.5073740000000  0.4246460000000 1.0
C      1  0.5430730000000  0.5339950000000  0.5517880000000 1.0
C      1  0.4750510000000  0.5437150000000  0.4953960000000 1.0
C      1  0.5133340000000  0.5663870000000  0.5245690000000 1.0
C      1  0.5171060000000  0.5475440000000  0.4460340000000 1.0
C      1  0.4273380000000  0.5267910000000  0.5049930000000 1.0
C      1  0.4984750000000  0.4634300000000  0.5036900000000 1.0
C      1  0.5251870000000  0.4791160000000  0.4250070000000 1.0
C      1  0.5098330000000  0.4825190000000  0.4847690000000 1.0
C      1  0.4406630000000  0.4639140000000  0.5461710000000 1.0
C      1  0.4633920000000  0.4584930000000  0.4519580000000 1.0
C      1  0.4193230000000  0.5193390000000  0.5304350000000 1.0
C      1  0.4693440000000  0.5479520000000  0.4665900000000 1.0
C      1  0.4891340000000  0.5663580000000  0.5075780000000 1.0
C      1  0.5205610000000  0.5517250000000  0.5488230000000 1.0
END
