TITL C-2114532-4476-27 105.930534300291 125000 -332.950302503823 0 0 48 (C1) n - 1
REM
REM in /nfs/bkarasulu/CARBON/AIRSS/Generating-Clusters/GAP-ML-2020/Only-C1/SD-CG/HFTN-CG
REM
REM
REM
REM
REM
REM ./C.cell (11c1c37f851c82e70ff6c80c92926a4b)
REM
REM compiler GCC version 9.2.1 20190827 (Red Hat 9.2.1-1)
REM options -cpp -mtune=generic -march=x86-64 -g -O0 -fpre-include=/usr/include/finclude/math-vector-fortran.h
REM seed -177036212 -195331763 1146427916 1872406118 -1727586145 -853541960 1658502726 -1586987489 1541042338 -417456069 -1142303260 446031980 793471871 -670108023 1280004966 -927871986 -1750340419 -356110290 -438932661 -181575610 -1162864932 -1906498023 -1101819669 -1479969923 573500100 -1399649583 -395435849 -1577233048 170545341 405380733 -996386326 1520043346 -1303626382
REM
CELL 1.54180   50.00000   50.00000   50.00000   90.00000   90.00000   90.00000
LATT -1
SFAC C  
C      1  0.5534320000000  0.5242950000000  0.4667480000000 1.0
C      1  0.5425220000000  0.5218190000000  0.5346400000000 1.0
C      1  0.4633630000000  0.4842210000000  0.5162460000000 1.0
C      1  0.4738640000000  0.4715150000000  0.5736700000000 1.0
C      1  0.4746450000000  0.5240430000000  0.5563060000000 1.0
C      1  0.5368790000000  0.5421140000000  0.4505860000000 1.0
C      1  0.4671910000000  0.5388180000000  0.4860160000000 1.0
C      1  0.5030880000000  0.5631550000000  0.4630630000000 1.0
C      1  0.5318530000000  0.5662660000000  0.4661780000000 1.0
C      1  0.4605990000000  0.5329890000000  0.5356790000000 1.0
C      1  0.4950160000000  0.4440490000000  0.5392170000000 1.0
C      1  0.5116610000000  0.5066710000000  0.5645400000000 1.0
C      1  0.5576530000000  0.5382860000000  0.4920430000000 1.0
C      1  0.4353410000000  0.4824290000000  0.4756660000000 1.0
C      1  0.4501780000000  0.4976390000000  0.4565030000000 1.0
C      1  0.5075990000000  0.5404810000000  0.4444790000000 1.0
C      1  0.5598310000000  0.5188850000000  0.5125620000000 1.0
C      1  0.5076280000000  0.4430640000000  0.4897170000000 1.0
C      1  0.4675370000000  0.4786930000000  0.4429500000000 1.0
C      1  0.4875800000000  0.4418270000000  0.5107130000000 1.0
C      1  0.5539670000000  0.4956240000000  0.4724780000000 1.0
C      1  0.5089010000000  0.4964700000000  0.5037460000000 1.0
C      1  0.5129760000000  0.4697970000000  0.4501740000000 1.0
C      1  0.4529510000000  0.5297170000000  0.5098310000000 1.0
C      1  0.5198240000000  0.4532580000000  0.5453780000000 1.0
C      1  0.5349350000000  0.4988360000000  0.5495990000000 1.0
C      1  0.4900590000000  0.5189740000000  0.4452910000000 1.0
C      1  0.5609030000000  0.4928370000000  0.5004270000000 1.0
C      1  0.4205640000000  0.4921650000000  0.4963870000000 1.0
C      1  0.5339360000000  0.4564910000000  0.4901150000000 1.0
C      1  0.5149310000000  0.5555950000000  0.5084190000000 1.0
C      1  0.5483760000000  0.4700230000000  0.5114900000000 1.0
C      1  0.4887660000000  0.4966440000000  0.5188360000000 1.0
C      1  0.5377460000000  0.4719090000000  0.5381870000000 1.0
C      1  0.4917800000000  0.5549780000000  0.4883350000000 1.0
C      1  0.4692020000000  0.4542090000000  0.4579730000000 1.0
C      1  0.5393190000000  0.5606910000000  0.4929700000000 1.0
C      1  0.4760730000000  0.4488980000000  0.5612570000000 1.0
C      1  0.5198860000000  0.5417750000000  0.5336340000000 1.0
C      1  0.4935840000000  0.4899850000000  0.4397860000000 1.0
C      1  0.4843810000000  0.4967020000000  0.5677580000000 1.0
C      1  0.4509180000000  0.4571060000000  0.4797180000000 1.0
C      1  0.4633480000000  0.4572060000000  0.5051110000000 1.0
C      1  0.5029510000000  0.5330770000000  0.5545500000000 1.0
C      1  0.4970910000000  0.4490460000000  0.4632180000000 1.0
C      1  0.4658780000000  0.5217970000000  0.4620730000000 1.0
C      1  0.4420180000000  0.5023290000000  0.5097970000000 1.0
C      1  0.5372790000000  0.4726070000000  0.4659400000000 1.0
END
