TITL C-211902-557-8 -0.478742825048817 125000 -790.7668312775 0 0 113 (C1) n - 1
REM
REM in /rds/project/t2_vol4/rds-t2-cs072/BORA/CARBON/from-Arr/AIRSS/Generating-Clusters/GAP-ML-2020/Only-C1/SD-CG/HFTN-CG
REM
REM
REM
REM
REM
REM ./C.cell (11c1c37f851c82e70ff6c80c92926a4b)
REM AIRSS Version 0.9.1 bugfix July 2018 build 013d7b7c2542+ Fri, 06 Jul 2018 19:26:36 +0100
REM compiler GCC version 9.3.0
REM options -cpp -mtune=generic -march=x86-64 -g -O0
REM seed 1164703166 -938548211 -351429824 -792706593 245122251 -292409661 -1719924182 -585563512 -830827008 -1079821120 -1777623103 -1393399515 -2013706814 66620799 -547291868 -277561719 895182946 1524660367 703635687 -2100234013 1118349371 -368408210 -214198079 -1869293479 -1243533328 2075260547 -1397513 -792525492 373497896 -976024702 751424887 2114477113 -1751704443
REM
CELL 1.54180   50.00000   50.00000   50.00000   90.00000   90.00000   90.00000
LATT -1
SFAC C  
C      1  0.5548010000000  0.4701140000000  0.4539060000000 1.0
C      1  0.4277270000000  0.5634480000000  0.5065930000000 1.0
C      1  0.5027160000000  0.4469980000000  0.4843010000000 1.0
C      1  0.4586380000000  0.5567710000000  0.4384830000000 1.0
C      1  0.5451820000000  0.5725140000000  0.5250530000000 1.0
C      1  0.5071870000000  0.4050510000000  0.4707550000000 1.0
C      1  0.4820170000000  0.5014510000000  0.5656910000000 1.0
C      1  0.4476690000000  0.4840160000000  0.4356430000000 1.0
C      1  0.5878200000000  0.5015310000000  0.5048720000000 1.0
C      1  0.4728780000000  0.5829170000000  0.5012200000000 1.0
C      1  0.4491980000000  0.4550790000000  0.4613770000000 1.0
C      1  0.5085540000000  0.5806430000000  0.5542180000000 1.0
C      1  0.5304960000000  0.4409450000000  0.4944930000000 1.0
C      1  0.5037350000000  0.4107410000000  0.5220580000000 1.0
C      1  0.4134450000000  0.5373510000000  0.5093380000000 1.0
C      1  0.5855970000000  0.4512230000000  0.4907700000000 1.0
C      1  0.5350180000000  0.4278540000000  0.4343920000000 1.0
C      1  0.5223090000000  0.5224350000000  0.5026810000000 1.0
C      1  0.5336900000000  0.4833350000000  0.4739650000000 1.0
C      1  0.4998760000000  0.5402280000000  0.4233070000000 1.0
C      1  0.4257260000000  0.5144400000000  0.5524860000000 1.0
C      1  0.4275570000000  0.5603280000000  0.4779210000000 1.0
C      1  0.4829400000000  0.4545270000000  0.4285920000000 1.0
C      1  0.5112980000000  0.5007410000000  0.5200270000000 1.0
C      1  0.4588520000000  0.4547950000000  0.5647640000000 1.0
C      1  0.5278100000000  0.4779710000000  0.5226630000000 1.0
C      1  0.5089300000000  0.4666700000000  0.4368640000000 1.0
C      1  0.5447790000000  0.5573900000000  0.4551830000000 1.0
C      1  0.4867300000000  0.4971580000000  0.4104380000000 1.0
C      1  0.5042660000000  0.3985950000000  0.4976040000000 1.0
C      1  0.5736880000000  0.5384340000000  0.5287980000000 1.0
C      1  0.4597980000000  0.4827660000000  0.5702840000000 1.0
C      1  0.5288380000000  0.4896760000000  0.5797320000000 1.0
C      1  0.5401260000000  0.4696710000000  0.4990740000000 1.0
C      1  0.4319540000000  0.4605170000000  0.5553280000000 1.0
C      1  0.4812810000000  0.4378890000000  0.5600910000000 1.0
C      1  0.4200290000000  0.4520580000000  0.5306520000000 1.0
C      1  0.4987420000000  0.5135160000000  0.5419910000000 1.0
C      1  0.4883240000000  0.4573750000000  0.5105070000000 1.0
C      1  0.4901400000000  0.5388760000000  0.5323360000000 1.0
C      1  0.5403740000000  0.4790340000000  0.4109470000000 1.0
C      1  0.4183380000000  0.4862090000000  0.4847780000000 1.0
C      1  0.4117680000000  0.5159370000000  0.5268610000000 1.0
C      1  0.4365030000000  0.5094030000000  0.4411340000000 1.0
C      1  0.5643780000000  0.4928290000000  0.4144920000000 1.0
C      1  0.5806000000000  0.5118420000000  0.5320230000000 1.0
C      1  0.4588140000000  0.4819570000000  0.4625030000000 1.0
C      1  0.5707410000000  0.4929340000000  0.4418380000000 1.0
C      1  0.5800890000000  0.5227030000000  0.4844400000000 1.0
C      1  0.5369180000000  0.5398690000000  0.5639470000000 1.0
C      1  0.4383580000000  0.4458890000000  0.5093610000000 1.0
C      1  0.5053270000000  0.4558360000000  0.5630290000000 1.0
C      1  0.5717710000000  0.4286360000000  0.5024530000000 1.0
C      1  0.4072370000000  0.4914350000000  0.5112700000000 1.0
C      1  0.5536880000000  0.5520270000000  0.5436060000000 1.0
C      1  0.4778720000000  0.5231300000000  0.4155810000000 1.0
C      1  0.4653630000000  0.4387020000000  0.5162070000000 1.0
C      1  0.5338290000000  0.4132630000000  0.4575210000000 1.0
C      1  0.4886480000000  0.4265730000000  0.4677110000000 1.0
C      1  0.4835430000000  0.5923320000000  0.5522120000000 1.0
C      1  0.5563290000000  0.5681030000000  0.4989550000000 1.0
C      1  0.4684450000000  0.5847180000000  0.4734420000000 1.0
C      1  0.5014400000000  0.4832710000000  0.5760000000000 1.0
C      1  0.4847550000000  0.5490670000000  0.5787050000000 1.0
C      1  0.5071110000000  0.4704800000000  0.4667220000000 1.0
C      1  0.4617090000000  0.5357930000000  0.5283200000000 1.0
C      1  0.4613510000000  0.5785310000000  0.5468150000000 1.0
C      1  0.5255360000000  0.5134910000000  0.4749730000000 1.0
C      1  0.4798710000000  0.5309070000000  0.4877060000000 1.0
C      1  0.5148050000000  0.4943480000000  0.4197300000000 1.0
C      1  0.4828230000000  0.4886370000000  0.5057290000000 1.0
C      1  0.5142990000000  0.5833170000000  0.4780090000000 1.0
C      1  0.5512930000000  0.4275620000000  0.4778860000000 1.0
C      1  0.5372240000000  0.4565020000000  0.4316820000000 1.0
C      1  0.4798340000000  0.4222580000000  0.5351550000000 1.0
C      1  0.5698270000000  0.5171490000000  0.4579650000000 1.0
C      1  0.5200890000000  0.5833610000000  0.5283020000000 1.0
C      1  0.4486000000000  0.5331520000000  0.5567950000000 1.0
C      1  0.5127290000000  0.4553660000000  0.5329790000000 1.0
C      1  0.4699940000000  0.4390350000000  0.4498450000000 1.0
C      1  0.5414390000000  0.5747580000000  0.4752520000000 1.0
C      1  0.4869090000000  0.5629710000000  0.4363750000000 1.0
C      1  0.5738080000000  0.5457480000000  0.5007520000000 1.0
C      1  0.4605670000000  0.5596300000000  0.5672780000000 1.0
C      1  0.4683180000000  0.4762460000000  0.4178310000000 1.0
C      1  0.5123920000000  0.5563790000000  0.5705720000000 1.0
C      1  0.5423510000000  0.5295590000000  0.4519270000000 1.0
C      1  0.5017480000000  0.5438680000000  0.5055920000000 1.0
C      1  0.4852290000000  0.4888650000000  0.4737580000000 1.0
C      1  0.5455380000000  0.5115440000000  0.5689300000000 1.0
C      1  0.5269560000000  0.4304450000000  0.5229630000000 1.0
C      1  0.4146980000000  0.5339350000000  0.4802700000000 1.0
C      1  0.3990470000000  0.4679480000000  0.5226820000000 1.0
C      1  0.4330830000000  0.4887870000000  0.5619130000000 1.0
C      1  0.4208730000000  0.5094390000000  0.4668720000000 1.0
C      1  0.4702270000000  0.5247510000000  0.5769340000000 1.0
C      1  0.4467660000000  0.5712230000000  0.4604640000000 1.0
C      1  0.5935520000000  0.4753120000000  0.5004280000000 1.0
C      1  0.5024610000000  0.5782090000000  0.5043600000000 1.0
C      1  0.4650000000000  0.5141110000000  0.5068490000000 1.0
C      1  0.5324890000000  0.4608890000000  0.5771010000000 1.0
C      1  0.5694460000000  0.4485590000000  0.4669460000000 1.0
C      1  0.4537610000000  0.5689390000000  0.5189340000000 1.0
C      1  0.5224630000000  0.5229890000000  0.4281200000000 1.0
C      1  0.4321930000000  0.4595770000000  0.4842400000000 1.0
C      1  0.4950380000000  0.5150730000000  0.4690130000000 1.0
C      1  0.5684190000000  0.4443370000000  0.5475620000000 1.0
C      1  0.5577560000000  0.4520010000000  0.5725320000000 1.0
C      1  0.4530250000000  0.5300730000000  0.4286360000000 1.0
C      1  0.5678190000000  0.4988560000000  0.5544490000000 1.0
C      1  0.5577340000000  0.4292370000000  0.5268500000000 1.0
C      1  0.5732610000000  0.4711670000000  0.5585170000000 1.0
C      1  0.4930550000000  0.5809520000000  0.4590180000000 1.0
END
