TITL C-21074-1303-3 -0.0703258053538203 125000 -841.312515674037 0 0 122 (C1) n - 1
REM
REM in /rds/project/t2_vol4/rds-t2-cs072/BORA/CARBON/from-Arr/AIRSS/Generating-Clusters/GAP-ML-2020/Only-C1/SD-CG/HFTN-CG
REM
REM
REM
REM
REM
REM ./C.cell (11c1c37f851c82e70ff6c80c92926a4b)
REM AIRSS Version 0.9.1 bugfix July 2018 build 013d7b7c2542+ Fri, 06 Jul 2018 19:26:36 +0100
REM compiler GCC version 9.3.0
REM options -cpp -mtune=generic -march=x86-64 -g -O0
REM seed 1135791192 -1075060338 1352870146 -406043272 -54373830 -2061491606 -759566989 79393256 748864087 -1293978118 -1578400813 -96489106 588874720 1256562861 1100342303 1816763211 254496226 -1356591375 41074950 -1923552894 1243220249 -1757465164 -324380368 -912385368 393096399 1828241225 252784214 -1823277149 -1155086551 -865237579 1935335173 1793780921 1429557060
REM
CELL 1.54180   50.00000   50.00000   50.00000   90.00000   90.00000   90.00000
LATT -1
SFAC C  
C      1  0.5355640000000  0.5800440000000  0.5239820000000 1.0
C      1  0.4314570000000  0.4424030000000  0.5041410000000 1.0
C      1  0.4235550000000  0.4607410000000  0.4624620000000 1.0
C      1  0.4594200000000  0.4962310000000  0.4055430000000 1.0
C      1  0.4620390000000  0.5466870000000  0.5576170000000 1.0
C      1  0.5541930000000  0.5435160000000  0.4379470000000 1.0
C      1  0.5052630000000  0.4528800000000  0.5203790000000 1.0
C      1  0.5408880000000  0.4994880000000  0.5586980000000 1.0
C      1  0.4413170000000  0.5243420000000  0.5622620000000 1.0
C      1  0.4937420000000  0.4617540000000  0.5783360000000 1.0
C      1  0.4381290000000  0.4523630000000  0.5666220000000 1.0
C      1  0.4746500000000  0.4134550000000  0.5231210000000 1.0
C      1  0.4587630000000  0.5853520000000  0.5269420000000 1.0
C      1  0.4937930000000  0.4651170000000  0.4952430000000 1.0
C      1  0.4464300000000  0.4467760000000  0.5931660000000 1.0
C      1  0.4959620000000  0.4227690000000  0.4532560000000 1.0
C      1  0.4966050000000  0.5036130000000  0.5353170000000 1.0
C      1  0.4965340000000  0.5826080000000  0.5519400000000 1.0
C      1  0.5050930000000  0.5467640000000  0.5188290000000 1.0
C      1  0.4685980000000  0.5759770000000  0.5529230000000 1.0
C      1  0.6042730000000  0.4434760000000  0.5047120000000 1.0
C      1  0.4574870000000  0.5030890000000  0.5716220000000 1.0
C      1  0.5583110000000  0.4221430000000  0.4963850000000 1.0
C      1  0.4186700000000  0.4692910000000  0.5070970000000 1.0
C      1  0.5642660000000  0.5548000000000  0.4844170000000 1.0
C      1  0.4803240000000  0.5365500000000  0.5075380000000 1.0
C      1  0.5383060000000  0.4885240000000  0.4379570000000 1.0
C      1  0.5054500000000  0.5801900000000  0.5231760000000 1.0
C      1  0.5332770000000  0.4347530000000  0.4840290000000 1.0
C      1  0.5066730000000  0.5306500000000  0.5445920000000 1.0
C      1  0.5028460000000  0.4917880000000  0.4874560000000 1.0
C      1  0.4398040000000  0.4935890000000  0.4267020000000 1.0
C      1  0.5247480000000  0.4917920000000  0.5342080000000 1.0
C      1  0.4484590000000  0.5665050000000  0.4848900000000 1.0
C      1  0.4580880000000  0.5435780000000  0.5266170000000 1.0
C      1  0.4636510000000  0.5406040000000  0.4827240000000 1.0
C      1  0.4690700000000  0.4630750000000  0.4525100000000 1.0
C      1  0.4427540000000  0.5661540000000  0.5135910000000 1.0
C      1  0.5820790000000  0.5335820000000  0.4756470000000 1.0
C      1  0.4944310000000  0.4753950000000  0.4118060000000 1.0
C      1  0.5963350000000  0.4451890000000  0.5318230000000 1.0
C      1  0.4812470000000  0.5475900000000  0.4587510000000 1.0
C      1  0.5284860000000  0.5353670000000  0.5031010000000 1.0
C      1  0.4712180000000  0.4350000000000  0.4452720000000 1.0
C      1  0.5918560000000  0.5073920000000  0.4886200000000 1.0
C      1  0.5106170000000  0.5512410000000  0.5847120000000 1.0
C      1  0.4885890000000  0.4096140000000  0.4990070000000 1.0
C      1  0.4713640000000  0.4933470000000  0.5482500000000 1.0
C      1  0.5823990000000  0.4863160000000  0.4716430000000 1.0
C      1  0.4819320000000  0.5101140000000  0.5842370000000 1.0
C      1  0.5702660000000  0.4370860000000  0.5401590000000 1.0
C      1  0.5111560000000  0.5514170000000  0.4149430000000 1.0
C      1  0.4937370000000  0.4765260000000  0.4417670000000 1.0
C      1  0.5664100000000  0.4867350000000  0.5536580000000 1.0
C      1  0.5677730000000  0.4988250000000  0.4506350000000 1.0
C      1  0.5300610000000  0.5062930000000  0.4160070000000 1.0
C      1  0.5813400000000  0.4378540000000  0.4888990000000 1.0
C      1  0.5330670000000  0.4645150000000  0.5250560000000 1.0
C      1  0.4211560000000  0.5099110000000  0.4715430000000 1.0
C      1  0.4537640000000  0.4796140000000  0.5303960000000 1.0
C      1  0.4106320000000  0.5381630000000  0.4749490000000 1.0
C      1  0.4234310000000  0.4840790000000  0.5345240000000 1.0
C      1  0.5346410000000  0.5343650000000  0.4190730000000 1.0
C      1  0.6061510000000  0.4691490000000  0.5182750000000 1.0
C      1  0.5319990000000  0.4904590000000  0.4874600000000 1.0
C      1  0.4173940000000  0.4669110000000  0.5568860000000 1.0
C      1  0.4345940000000  0.5291800000000  0.5174420000000 1.0
C      1  0.5405140000000  0.5047520000000  0.4638090000000 1.0
C      1  0.5986960000000  0.4969980000000  0.5159880000000 1.0
C      1  0.5136140000000  0.4238460000000  0.5043760000000 1.0
C      1  0.4923730000000  0.5746630000000  0.4641010000000 1.0
C      1  0.4254340000000  0.5149310000000  0.5396930000000 1.0
C      1  0.4928410000000  0.5010710000000  0.4605980000000 1.0
C      1  0.5572270000000  0.5476880000000  0.5422910000000 1.0
C      1  0.5300170000000  0.5310430000000  0.5846390000000 1.0
C      1  0.4141880000000  0.4807780000000  0.4806520000000 1.0
C      1  0.4784500000000  0.4099150000000  0.4733420000000 1.0
C      1  0.5064860000000  0.4992440000000  0.4023610000000 1.0
C      1  0.5502400000000  0.5565580000000  0.5109700000000 1.0
C      1  0.5246510000000  0.4135710000000  0.5295080000000 1.0
C      1  0.5525400000000  0.4183430000000  0.5252000000000 1.0
C      1  0.5419650000000  0.5732050000000  0.5507810000000 1.0
C      1  0.4657130000000  0.5476240000000  0.4333160000000 1.0
C      1  0.5573380000000  0.4613560000000  0.5432420000000 1.0
C      1  0.4418910000000  0.4691060000000  0.4418070000000 1.0
C      1  0.4283790000000  0.5562340000000  0.4647820000000 1.0
C      1  0.4811100000000  0.5914270000000  0.5091510000000 1.0
C      1  0.5205710000000  0.4640880000000  0.4430430000000 1.0
C      1  0.5182030000000  0.5729330000000  0.5676150000000 1.0
C      1  0.5743120000000  0.5264860000000  0.4488650000000 1.0
C      1  0.4715860000000  0.4534670000000  0.5929630000000 1.0
C      1  0.5702260000000  0.4623610000000  0.4817600000000 1.0
C      1  0.4592920000000  0.4511400000000  0.5418980000000 1.0
C      1  0.4903080000000  0.4471070000000  0.5486800000000 1.0
C      1  0.5262020000000  0.5024300000000  0.5849270000000 1.0
C      1  0.5429430000000  0.4632310000000  0.4936360000000 1.0
C      1  0.4392790000000  0.5416180000000  0.4409320000000 1.0
C      1  0.4821950000000  0.5156140000000  0.4007770000000 1.0
C      1  0.4698970000000  0.4710130000000  0.3995470000000 1.0
C      1  0.4975020000000  0.4186980000000  0.5436090000000 1.0
C      1  0.4598680000000  0.4918760000000  0.5016840000000 1.0
C      1  0.4302240000000  0.5145720000000  0.4429610000000 1.0
C      1  0.5274940000000  0.5321510000000  0.4714340000000 1.0
C      1  0.4858010000000  0.5071240000000  0.5077720000000 1.0
C      1  0.4683690000000  0.4671480000000  0.4845530000000 1.0
C      1  0.4740490000000  0.5855070000000  0.4827080000000 1.0
C      1  0.4535420000000  0.4220120000000  0.4642420000000 1.0
C      1  0.5857130000000  0.5062240000000  0.5416890000000 1.0
C      1  0.5802900000000  0.5321640000000  0.5492710000000 1.0
C      1  0.5021910000000  0.5275320000000  0.4579170000000 1.0
C      1  0.4837560000000  0.5410970000000  0.4117320000000 1.0
C      1  0.4879840000000  0.5359440000000  0.5717220000000 1.0
C      1  0.5206510000000  0.4376230000000  0.4563840000000 1.0
C      1  0.5195880000000  0.5772370000000  0.4531880000000 1.0
C      1  0.4326050000000  0.4370180000000  0.4759700000000 1.0
C      1  0.5425320000000  0.5570750000000  0.4614510000000 1.0
C      1  0.4430100000000  0.5173500000000  0.4910930000000 1.0
C      1  0.4513250000000  0.4310020000000  0.5224650000000 1.0
C      1  0.5369320000000  0.5294890000000  0.5551370000000 1.0
C      1  0.5015930000000  0.4895520000000  0.5869180000000 1.0
C      1  0.5352500000000  0.5072020000000  0.5108080000000 1.0
C      1  0.5144690000000  0.5759000000000  0.4265520000000 1.0
END
