TITL C-2114530-5398-3 0.330228926005222 125000 -1141.73465368431 0 0 162 (C1) n - 1
REM
REM in /nfs/bkarasulu/CARBON/AIRSS/Generating-Clusters/GAP-ML-2020/Only-C1/SD-CG/HFTN-CG
REM
REM
REM
REM
REM
REM ./C.cell (11c1c37f851c82e70ff6c80c92926a4b)
REM
REM compiler GCC version 9.2.1 20190827 (Red Hat 9.2.1-1)
REM options -cpp -mtune=generic -march=x86-64 -g -O0 -fpre-include=/usr/include/finclude/math-vector-fortran.h
REM seed 580171948 502778519 -51135172 -1127135996 1100029815 -89236610 615523065 457289053 983791079 -1440380689 -1893886555 -1914086681 -1256228655 971535046 507537426 1629321706 1739143009 927507215 2025869506 1802159735 -654764863 -1480470258 -1554338183 -429855769 -860348579 -13104395 1180672539 1349991897 1976926599 592843813 -470935929 -390508648 1250921380
REM
CELL 1.54180   50.00000   50.00000   50.00000   90.00000   90.00000   90.00000
LATT -1
SFAC C  
C      1  0.5363020000000  0.4577580000000  0.4983530000000 1.0
C      1  0.4717370000000  0.5667540000000  0.4959740000000 1.0
C      1  0.4839020000000  0.4255270000000  0.4359810000000 1.0
C      1  0.5534340000000  0.5754070000000  0.4441460000000 1.0
C      1  0.5374790000000  0.5407300000000  0.5147240000000 1.0
C      1  0.5264180000000  0.5180070000000  0.5335050000000 1.0
C      1  0.4110600000000  0.5366400000000  0.4700850000000 1.0
C      1  0.5051820000000  0.4816370000000  0.6012900000000 1.0
C      1  0.4962400000000  0.4473160000000  0.5568140000000 1.0
C      1  0.5344330000000  0.4839220000000  0.4584140000000 1.0
C      1  0.5535340000000  0.4244540000000  0.5423770000000 1.0
C      1  0.5245870000000  0.5901240000000  0.5087610000000 1.0
C      1  0.4981110000000  0.5216100000000  0.5210250000000 1.0
C      1  0.4873490000000  0.5060250000000  0.5966470000000 1.0
C      1  0.4169370000000  0.5222360000000  0.4457410000000 1.0
C      1  0.4299860000000  0.4882450000000  0.5263910000000 1.0
C      1  0.4644950000000  0.5570070000000  0.5726520000000 1.0
C      1  0.5638800000000  0.4773280000000  0.5451100000000 1.0
C      1  0.4034220000000  0.5161200000000  0.4908420000000 1.0
C      1  0.4943190000000  0.4732180000000  0.5071440000000 1.0
C      1  0.4490900000000  0.4237130000000  0.4821940000000 1.0
C      1  0.4390830000000  0.5018210000000  0.5751530000000 1.0
C      1  0.5861940000000  0.4365700000000  0.4796190000000 1.0
C      1  0.4675160000000  0.3968710000000  0.5177150000000 1.0
C      1  0.4903990000000  0.4947150000000  0.3990490000000 1.0
C      1  0.4450710000000  0.4575690000000  0.5683860000000 1.0
C      1  0.4430090000000  0.5196680000000  0.4314030000000 1.0
C      1  0.5401380000000  0.5373730000000  0.4660730000000 1.0
C      1  0.5539280000000  0.5345160000000  0.4144010000000 1.0
C      1  0.4720770000000  0.4048010000000  0.4745840000000 1.0
C      1  0.5171970000000  0.5565090000000  0.5552760000000 1.0
C      1  0.5819600000000  0.4457120000000  0.4521300000000 1.0
C      1  0.4563440000000  0.4790670000000  0.4787260000000 1.0
C      1  0.5864110000000  0.5086210000000  0.5097880000000 1.0
C      1  0.4726520000000  0.4650290000000  0.4315010000000 1.0
C      1  0.4063670000000  0.4969770000000  0.4481630000000 1.0
C      1  0.5290520000000  0.3975180000000  0.5142640000000 1.0
C      1  0.4381580000000  0.4337550000000  0.4555720000000 1.0
C      1  0.5035510000000  0.6001660000000  0.4591800000000 1.0
C      1  0.4997520000000  0.4504400000000  0.4328770000000 1.0
C      1  0.5577120000000  0.4362050000000  0.4410580000000 1.0
C      1  0.4678830000000  0.5577670000000  0.5242700000000 1.0
C      1  0.4983030000000  0.4372500000000  0.5838080000000 1.0
C      1  0.5920490000000  0.4873420000000  0.5318650000000 1.0
C      1  0.4920710000000  0.5678310000000  0.4230470000000 1.0
C      1  0.4254100000000  0.5616520000000  0.4673060000000 1.0
C      1  0.4776510000000  0.5476250000000  0.4093470000000 1.0
C      1  0.5158800000000  0.5614300000000  0.5118780000000 1.0
C      1  0.4435400000000  0.4118040000000  0.5104880000000 1.0
C      1  0.5097690000000  0.4705390000000  0.5485040000000 1.0
C      1  0.5246640000000  0.4291280000000  0.5796230000000 1.0
C      1  0.4104670000000  0.4670420000000  0.4804840000000 1.0
C      1  0.5720790000000  0.4899930000000  0.5717250000000 1.0
C      1  0.5472390000000  0.4524270000000  0.4198000000000 1.0
C      1  0.5311400000000  0.4135230000000  0.5565090000000 1.0
C      1  0.4819360000000  0.4964960000000  0.5244970000000 1.0
C      1  0.4609810000000  0.4658150000000  0.5919670000000 1.0
C      1  0.4897070000000  0.5141250000000  0.5675730000000 1.0
C      1  0.4069120000000  0.5103460000000  0.5209370000000 1.0
C      1  0.6038640000000  0.4794310000000  0.4732360000000 1.0
C      1  0.4155860000000  0.5617760000000  0.5350880000000 1.0
C      1  0.5243820000000  0.5365440000000  0.6048590000000 1.0
C      1  0.4850230000000  0.5931930000000  0.5549190000000 1.0
C      1  0.5140800000000  0.4784710000000  0.3971970000000 1.0
C      1  0.5917960000000  0.4726190000000  0.4476570000000 1.0
C      1  0.5615510000000  0.5421210000000  0.5662390000000 1.0
C      1  0.5489240000000  0.5598010000000  0.5488270000000 1.0
C      1  0.5249620000000  0.5119020000000  0.4534810000000 1.0
C      1  0.5396580000000  0.5225220000000  0.4913650000000 1.0
C      1  0.5195220000000  0.4550520000000  0.4120080000000 1.0
C      1  0.4893800000000  0.4901700000000  0.5509190000000 1.0
C      1  0.4334640000000  0.5827060000000  0.5417880000000 1.0
C      1  0.5440820000000  0.5898130000000  0.4881330000000 1.0
C      1  0.4211230000000  0.5332170000000  0.5382770000000 1.0
C      1  0.4206140000000  0.4557680000000  0.4551760000000 1.0
C      1  0.4521070000000  0.5461730000000  0.4224100000000 1.0
C      1  0.4611790000000  0.5898650000000  0.4803450000000 1.0
C      1  0.5756440000000  0.5200530000000  0.4290490000000 1.0
C      1  0.4861790000000  0.5587580000000  0.5904950000000 1.0
C      1  0.6043450000000  0.5060640000000  0.4843320000000 1.0
C      1  0.4665420000000  0.4824900000000  0.4089880000000 1.0
C      1  0.4619230000000  0.5311480000000  0.5612440000000 1.0
C      1  0.5188650000000  0.4047900000000  0.4668240000000 1.0
C      1  0.4339070000000  0.5800000000000  0.4884290000000 1.0
C      1  0.4843230000000  0.3916500000000  0.4958210000000 1.0
C      1  0.5012740000000  0.5745620000000  0.5720890000000 1.0
C      1  0.5925660000000  0.5029820000000  0.5579900000000 1.0
C      1  0.4885590000000  0.6055260000000  0.4829750000000 1.0
C      1  0.4489890000000  0.4357280000000  0.5508860000000 1.0
C      1  0.5178070000000  0.5270790000000  0.5616490000000 1.0
C      1  0.5384260000000  0.4931770000000  0.3981700000000 1.0
C      1  0.6052610000000  0.5257270000000  0.4661430000000 1.0
C      1  0.4849370000000  0.5902340000000  0.4389960000000 1.0
C      1  0.5124750000000  0.5083980000000  0.4798900000000 1.0
C      1  0.5332500000000  0.4769540000000  0.5931830000000 1.0
C      1  0.4604970000000  0.5765230000000  0.5507150000000 1.0
C      1  0.5214400000000  0.4703900000000  0.5202720000000 1.0
C      1  0.4522830000000  0.5327260000000  0.5314920000000 1.0
C      1  0.4528110000000  0.5044150000000  0.4909270000000 1.0
C      1  0.5651580000000  0.4194190000000  0.4883210000000 1.0
C      1  0.4935740000000  0.5272770000000  0.4908070000000 1.0
C      1  0.5066380000000  0.5508680000000  0.4396250000000 1.0
C      1  0.6045150000000  0.4662330000000  0.5187220000000 1.0
C      1  0.4541000000000  0.5050480000000  0.5192230000000 1.0
C      1  0.4529730000000  0.4537110000000  0.4958270000000 1.0
C      1  0.5836540000000  0.5344650000000  0.5253690000000 1.0
C      1  0.4586360000000  0.4383670000000  0.4366750000000 1.0
C      1  0.4251980000000  0.4631230000000  0.5067810000000 1.0
C      1  0.5308320000000  0.5863300000000  0.4620280000000 1.0
C      1  0.4965920000000  0.5508050000000  0.5314290000000 1.0
C      1  0.4935140000000  0.6078790000000  0.5343930000000 1.0
C      1  0.5434720000000  0.4219740000000  0.4652960000000 1.0
C      1  0.4094220000000  0.4454350000000  0.5246740000000 1.0
C      1  0.4921640000000  0.4074990000000  0.4550800000000 1.0
C      1  0.4769770000000  0.4348900000000  0.5400000000000 1.0
C      1  0.5515140000000  0.4981500000000  0.5887480000000 1.0
C      1  0.5245290000000  0.4417290000000  0.4777210000000 1.0
C      1  0.4219250000000  0.4772650000000  0.4350460000000 1.0
C      1  0.5009960000000  0.5227460000000  0.4376650000000 1.0
C      1  0.5564780000000  0.5000960000000  0.5004120000000 1.0
C      1  0.4329780000000  0.5263530000000  0.5652120000000 1.0
C      1  0.5129710000000  0.4616950000000  0.4600450000000 1.0
C      1  0.6016800000000  0.4579000000000  0.4928150000000 1.0
C      1  0.5494090000000  0.4783710000000  0.4827640000000 1.0
C      1  0.4592010000000  0.4934950000000  0.5944920000000 1.0
C      1  0.5417390000000  0.4924150000000  0.5270190000000 1.0
C      1  0.5415340000000  0.5258410000000  0.5841130000000 1.0
C      1  0.5022590000000  0.6079420000000  0.5088140000000 1.0
C      1  0.4962320000000  0.4800970000000  0.4768750000000 1.0
C      1  0.4298940000000  0.4266350000000  0.5317850000000 1.0
C      1  0.4882830000000  0.4587410000000  0.5987130000000 1.0
C      1  0.5838800000000  0.5297770000000  0.5532260000000 1.0
C      1  0.5184390000000  0.5582920000000  0.4640710000000 1.0
C      1  0.4604360000000  0.5859720000000  0.4513290000000 1.0
C      1  0.5534410000000  0.4128550000000  0.5146220000000 1.0
C      1  0.4334270000000  0.4808600000000  0.5568610000000 1.0
C      1  0.4677500000000  0.5240060000000  0.4776260000000 1.0
C      1  0.4995080000000  0.5554730000000  0.4875680000000 1.0
C      1  0.3855590000000  0.4895370000000  0.5292950000000 1.0
C      1  0.4414090000000  0.4922230000000  0.4191900000000 1.0
C      1  0.4995940000000  0.5216580000000  0.4070570000000 1.0
C      1  0.5857570000000  0.5367500000000  0.4510400000000 1.0
C      1  0.4766470000000  0.4513020000000  0.5128370000000 1.0
C      1  0.5423120000000  0.4513570000000  0.5805980000000 1.0
C      1  0.5583670000000  0.4502060000000  0.5560760000000 1.0
C      1  0.4969670000000  0.5357780000000  0.6046180000000 1.0
C      1  0.5792270000000  0.4905820000000  0.4280810000000 1.0
C      1  0.5136150000000  0.4011630000000  0.5381230000000 1.0
C      1  0.5632040000000  0.5551620000000  0.5195170000000 1.0
C      1  0.5660090000000  0.5562150000000  0.4636870000000 1.0
C      1  0.5591120000000  0.4777440000000  0.4123250000000 1.0
C      1  0.4736980000000  0.4838580000000  0.4571580000000 1.0
C      1  0.5130700000000  0.3923310000000  0.4918930000000 1.0
C      1  0.5319940000000  0.5200320000000  0.4015110000000 1.0
C      1  0.4237970000000  0.5804280000000  0.5152010000000 1.0
C      1  0.4004180000000  0.4923500000000  0.4753610000000 1.0
C      1  0.5637720000000  0.5704260000000  0.4918540000000 1.0
C      1  0.5509160000000  0.5608600000000  0.4216990000000 1.0
C      1  0.4852830000000  0.4063590000000  0.5373160000000 1.0
C      1  0.3885430000000  0.4638850000000  0.5304480000000 1.0
C      1  0.4427550000000  0.5655200000000  0.4436830000000 1.0
C      1  0.4723090000000  0.5139110000000  0.4504420000000 1.0
END
