TITL C-21804-3096-1 -69.3975239525519 125000 -547.128218329736 0 0 80 (C1) n - 1
REM
REM in /rds/project/t2_vol4/rds-t2-cs072/BORA/CARBON/from-Arr/AIRSS/Generating-Clusters/GAP-ML-2020/Only-C1/SD-CG/HFTN-CG
REM
REM
REM
REM
REM
REM ./C.cell (11c1c37f851c82e70ff6c80c92926a4b)
REM AIRSS Version 0.9.1 bugfix July 2018 build 013d7b7c2542+ Fri, 06 Jul 2018 19:26:36 +0100
REM compiler GCC version 9.3.0
REM options -cpp -mtune=generic -march=x86-64 -g -O0
REM seed -131950676 1695385040 -732360323 983850880 1699742788 2027708874 717810633 -468574444 -1785340539 556240543 726168358 -1981158610 -563131480 1876675290 -83140169 -1398322738 1383961627 1563279339 -1211714702 1626074024 -659407617 -569576475 751493455 1794168777 597375400 776559228 1658600017 1998488429 -1278718909 -1112660224 450060910 1000324096 2143979119
REM
CELL 1.54180   50.00000   50.00000   50.00000   90.00000   90.00000   90.00000
LATT -1
SFAC C  
C      1  0.4442810000000  0.4816720000000  0.4656790000000 1.0
C      1  0.5418340000000  0.5446630000000  0.4449810000000 1.0
C      1  0.4869480000000  0.5610700000000  0.4780030000000 1.0
C      1  0.4908630000000  0.4505520000000  0.5441010000000 1.0
C      1  0.4716860000000  0.4449570000000  0.4787990000000 1.0
C      1  0.5468850000000  0.5724060000000  0.5128450000000 1.0
C      1  0.4242700000000  0.5073410000000  0.5149590000000 1.0
C      1  0.4824490000000  0.4774490000000  0.4346230000000 1.0
C      1  0.4576120000000  0.5226500000000  0.5445560000000 1.0
C      1  0.5623510000000  0.4744960000000  0.4639870000000 1.0
C      1  0.4708610000000  0.4446830000000  0.4497500000000 1.0
C      1  0.5123630000000  0.5321580000000  0.4105090000000 1.0
C      1  0.5183290000000  0.5521040000000  0.5416320000000 1.0
C      1  0.4685880000000  0.4756380000000  0.4839900000000 1.0
C      1  0.4289480000000  0.5137390000000  0.5428140000000 1.0
C      1  0.4493470000000  0.5095760000000  0.4699790000000 1.0
C      1  0.4944300000000  0.5004570000000  0.4475050000000 1.0
C      1  0.4944850000000  0.4392960000000  0.4971690000000 1.0
C      1  0.5435120000000  0.5281080000000  0.5005820000000 1.0
C      1  0.4661330000000  0.5214280000000  0.5155230000000 1.0
C      1  0.5203980000000  0.5815320000000  0.5056660000000 1.0
C      1  0.5276060000000  0.5501520000000  0.4202120000000 1.0
C      1  0.4977130000000  0.5142720000000  0.5674790000000 1.0
C      1  0.4428710000000  0.5523840000000  0.4892960000000 1.0
C      1  0.4213180000000  0.4949680000000  0.5609870000000 1.0
C      1  0.4459400000000  0.4665050000000  0.5326660000000 1.0
C      1  0.5386800000000  0.4271880000000  0.5088060000000 1.0
C      1  0.5529760000000  0.4331680000000  0.4838770000000 1.0
C      1  0.5366300000000  0.4966960000000  0.4319680000000 1.0
C      1  0.5091050000000  0.4729020000000  0.4948960000000 1.0
C      1  0.5692220000000  0.5204830000000  0.5154570000000 1.0
C      1  0.4565330000000  0.4688160000000  0.4431400000000 1.0
C      1  0.4857050000000  0.4593460000000  0.5726690000000 1.0
C      1  0.5134220000000  0.4684290000000  0.5694570000000 1.0
C      1  0.5591570000000  0.4686460000000  0.5140570000000 1.0
C      1  0.4743690000000  0.5005470000000  0.5581910000000 1.0
C      1  0.5115390000000  0.5074070000000  0.4240390000000 1.0
C      1  0.4799710000000  0.4350970000000  0.5226740000000 1.0
C      1  0.4302970000000  0.4659770000000  0.4867770000000 1.0
C      1  0.5134490000000  0.5742200000000  0.4787250000000 1.0
C      1  0.5477290000000  0.5580590000000  0.5382080000000 1.0
C      1  0.4451670000000  0.4419400000000  0.4923880000000 1.0
C      1  0.5360550000000  0.4727370000000  0.4495500000000 1.0
C      1  0.5163850000000  0.4215620000000  0.4912760000000 1.0
C      1  0.4274700000000  0.4793170000000  0.5115990000000 1.0
C      1  0.5228180000000  0.4467820000000  0.4456230000000 1.0
C      1  0.4385130000000  0.4736180000000  0.5609590000000 1.0
C      1  0.5038150000000  0.5736850000000  0.5271870000000 1.0
C      1  0.4719780000000  0.5490810000000  0.5494860000000 1.0
C      1  0.5162850000000  0.4885160000000  0.4691030000000 1.0
C      1  0.5384220000000  0.5045190000000  0.4847980000000 1.0
C      1  0.4519670000000  0.4405380000000  0.5199480000000 1.0
C      1  0.5732690000000  0.4926690000000  0.5245920000000 1.0
C      1  0.4763460000000  0.4773060000000  0.5331440000000 1.0
C      1  0.4663110000000  0.5669740000000  0.5001420000000 1.0
C      1  0.5199570000000  0.5262490000000  0.5206670000000 1.0
C      1  0.5659680000000  0.4577630000000  0.4863730000000 1.0
C      1  0.4934070000000  0.5300420000000  0.4804320000000 1.0
C      1  0.4860340000000  0.4873050000000  0.5062330000000 1.0
C      1  0.5423630000000  0.4458890000000  0.5295620000000 1.0
C      1  0.5653070000000  0.5360420000000  0.5387600000000 1.0
C      1  0.5376620000000  0.5617550000000  0.4672390000000 1.0
C      1  0.5589340000000  0.5083750000000  0.5438550000000 1.0
C      1  0.4681150000000  0.5514210000000  0.4556650000000 1.0
C      1  0.5337810000000  0.4845550000000  0.5094110000000 1.0
C      1  0.4974560000000  0.5421400000000  0.5604290000000 1.0
C      1  0.4643120000000  0.4777740000000  0.5752940000000 1.0
C      1  0.4746040000000  0.5208700000000  0.4592560000000 1.0
C      1  0.4961120000000  0.4520100000000  0.4375210000000 1.0
C      1  0.5626780000000  0.5024480000000  0.4674510000000 1.0
C      1  0.5174880000000  0.4953530000000  0.5619770000000 1.0
C      1  0.4760670000000  0.5680020000000  0.5268630000000 1.0
C      1  0.5207350000000  0.4510430000000  0.5474870000000 1.0
C      1  0.5519030000000  0.5552330000000  0.4907130000000 1.0
C      1  0.5305130000000  0.5022510000000  0.5363240000000 1.0
C      1  0.4940900000000  0.5168280000000  0.5062470000000 1.0
C      1  0.5303840000000  0.4288810000000  0.4665600000000 1.0
C      1  0.5509400000000  0.5165930000000  0.4462840000000 1.0
C      1  0.4427700000000  0.5576280000000  0.4621610000000 1.0
C      1  0.4428130000000  0.5230660000000  0.4962080000000 1.0
END
