TITL C-21919-1689-11 66.0255211785576 125000 -859.030992738633 0 0 123 (C1) n - 1
REM
REM in /rds/project/t2_vol4/rds-t2-cs072/BORA/CARBON/from-Arr/AIRSS/Generating-Clusters/GAP-ML-2020/Only-C1/SD-CG/HFTN-CG
REM
REM
REM
REM
REM
REM ./C.cell (11c1c37f851c82e70ff6c80c92926a4b)
REM AIRSS Version 0.9.1 bugfix July 2018 build 013d7b7c2542+ Fri, 06 Jul 2018 19:26:36 +0100
REM compiler GCC version 9.3.0
REM options -cpp -mtune=generic -march=x86-64 -g -O0
REM seed 76227973 666519935 481962225 40226116 -981654585 -894203771 453134742 160519150 1168909374 1187395836 -473234532 960148502 -117730517 693584742 1436786031 -585599385 -558928743 -1885878762 1354256985 152853925 1558919342 -1852187894 -1781733262 -1257249876 -1596142166 1386531438 545887786 1027045376 -364151990 303659864 808293792 -1410079291 -1141262994
REM
CELL 1.54180   50.00000   50.00000   50.00000   90.00000   90.00000   90.00000
LATT -1
SFAC C  
C      1  0.4719790000000  0.4832940000000  0.5880270000000 1.0
C      1  0.4383720000000  0.4877310000000  0.4271000000000 1.0
C      1  0.4979800000000  0.5212820000000  0.4634630000000 1.0
C      1  0.5358160000000  0.4606410000000  0.5706320000000 1.0
C      1  0.4847930000000  0.4483860000000  0.4503400000000 1.0
C      1  0.4934900000000  0.4142730000000  0.5022890000000 1.0
C      1  0.5662920000000  0.5620870000000  0.5547970000000 1.0
C      1  0.4245910000000  0.4949770000000  0.5336460000000 1.0
C      1  0.4858570000000  0.5299400000000  0.5781440000000 1.0
C      1  0.5043270000000  0.4273520000000  0.4413950000000 1.0
C      1  0.5119380000000  0.4743200000000  0.4135810000000 1.0
C      1  0.5836950000000  0.5618270000000  0.5057980000000 1.0
C      1  0.4100050000000  0.4785180000000  0.5553590000000 1.0
C      1  0.5016000000000  0.5287980000000  0.5140670000000 1.0
C      1  0.4977600000000  0.5728060000000  0.4916380000000 1.0
C      1  0.5509490000000  0.5124830000000  0.5765920000000 1.0
C      1  0.4114320000000  0.5140870000000  0.5173500000000 1.0
C      1  0.4659600000000  0.4427020000000  0.5528950000000 1.0
C      1  0.4511000000000  0.5604990000000  0.5602870000000 1.0
C      1  0.5119160000000  0.5466550000000  0.5777090000000 1.0
C      1  0.5040220000000  0.4958590000000  0.5438450000000 1.0
C      1  0.4829070000000  0.4699900000000  0.4774630000000 1.0
C      1  0.5375540000000  0.5352950000000  0.4875740000000 1.0
C      1  0.4830390000000  0.4114000000000  0.5280540000000 1.0
C      1  0.5567040000000  0.5752700000000  0.5016360000000 1.0
C      1  0.4724650000000  0.4083110000000  0.4830320000000 1.0
C      1  0.5264580000000  0.5231030000000  0.5878460000000 1.0
C      1  0.4691020000000  0.5498850000000  0.4347540000000 1.0
C      1  0.5691500000000  0.5345330000000  0.4511380000000 1.0
C      1  0.4257180000000  0.5470070000000  0.5525420000000 1.0
C      1  0.5615240000000  0.4548300000000  0.5322540000000 1.0
C      1  0.4562620000000  0.4442690000000  0.4426990000000 1.0
C      1  0.5640770000000  0.5031900000000  0.5210070000000 1.0
C      1  0.5883930000000  0.4689110000000  0.4675870000000 1.0
C      1  0.4712730000000  0.5602460000000  0.4867220000000 1.0
C      1  0.5193340000000  0.5157640000000  0.5320290000000 1.0
C      1  0.4217620000000  0.4515880000000  0.5160220000000 1.0
C      1  0.5895820000000  0.5322960000000  0.5425970000000 1.0
C      1  0.5720830000000  0.4518650000000  0.4509870000000 1.0
C      1  0.5870160000000  0.5591380000000  0.5346480000000 1.0
C      1  0.4715510000000  0.5270270000000  0.4153590000000 1.0
C      1  0.4649110000000  0.4689800000000  0.5405420000000 1.0
C      1  0.5923180000000  0.4954140000000  0.4559620000000 1.0
C      1  0.4875220000000  0.4727400000000  0.4312350000000 1.0
C      1  0.5176630000000  0.4344200000000  0.5035900000000 1.0
C      1  0.5443970000000  0.5481830000000  0.4618570000000 1.0
C      1  0.4733480000000  0.5385520000000  0.4655640000000 1.0
C      1  0.5020180000000  0.4200340000000  0.5478750000000 1.0
C      1  0.5505320000000  0.4351410000000  0.4608570000000 1.0
C      1  0.5275510000000  0.4883500000000  0.4873980000000 1.0
C      1  0.4451200000000  0.5274060000000  0.4662940000000 1.0
C      1  0.5105170000000  0.5467840000000  0.4206820000000 1.0
C      1  0.4915250000000  0.4382360000000  0.5667820000000 1.0
C      1  0.4735300000000  0.5230640000000  0.5240600000000 1.0
C      1  0.5151440000000  0.5834760000000  0.4711440000000 1.0
C      1  0.5056760000000  0.4659180000000  0.4996620000000 1.0
C      1  0.5035440000000  0.5859830000000  0.4460130000000 1.0
C      1  0.5922460000000  0.5348000000000  0.4942110000000 1.0
C      1  0.4160380000000  0.5423420000000  0.5250730000000 1.0
C      1  0.4257010000000  0.4838940000000  0.4525960000000 1.0
C      1  0.4121520000000  0.4974460000000  0.4941510000000 1.0
C      1  0.5397840000000  0.5504760000000  0.5121940000000 1.0
C      1  0.4354660000000  0.5003930000000  0.4750180000000 1.0
C      1  0.4271220000000  0.5513400000000  0.4601190000000 1.0
C      1  0.4580000000000  0.4671100000000  0.4255560000000 1.0
C      1  0.5182830000000  0.5688240000000  0.5606630000000 1.0
C      1  0.4471100000000  0.4221600000000  0.4854780000000 1.0
C      1  0.5096880000000  0.5591930000000  0.5148080000000 1.0
C      1  0.4911240000000  0.4786500000000  0.5241800000000 1.0
C      1  0.5092420000000  0.4568730000000  0.5809130000000 1.0
C      1  0.4195830000000  0.4597090000000  0.4673570000000 1.0
C      1  0.5766710000000  0.4683470000000  0.4926030000000 1.0
C      1  0.5453600000000  0.4322860000000  0.4891940000000 1.0
C      1  0.5021840000000  0.5083120000000  0.5932130000000 1.0
C      1  0.4570500000000  0.5401260000000  0.5801540000000 1.0
C      1  0.4980440000000  0.5698710000000  0.5405300000000 1.0
C      1  0.4385710000000  0.5398970000000  0.4371900000000 1.0
C      1  0.5245010000000  0.4280690000000  0.5342800000000 1.0
C      1  0.4434140000000  0.4742120000000  0.5199590000000 1.0
C      1  0.4975780000000  0.4801330000000  0.5938360000000 1.0
C      1  0.5428510000000  0.5750890000000  0.4747220000000 1.0
C      1  0.4611730000000  0.4898260000000  0.5625320000000 1.0
C      1  0.5330930000000  0.5099020000000  0.4353590000000 1.0
C      1  0.5562970000000  0.4898430000000  0.4965420000000 1.0
C      1  0.4105630000000  0.4679790000000  0.4931200000000 1.0
C      1  0.4948230000000  0.4004530000000  0.4405730000000 1.0
C      1  0.5457780000000  0.5265500000000  0.5314420000000 1.0
C      1  0.5468330000000  0.5898620000000  0.5249270000000 1.0
C      1  0.4988150000000  0.5237740000000  0.4074670000000 1.0
C      1  0.5646120000000  0.4814880000000  0.5414830000000 1.0
C      1  0.4584070000000  0.4232190000000  0.5328750000000 1.0
C      1  0.4460720000000  0.5152420000000  0.4211850000000 1.0
C      1  0.4331110000000  0.5573780000000  0.5084350000000 1.0
C      1  0.4395300000000  0.4279740000000  0.5118810000000 1.0
C      1  0.5769540000000  0.4927240000000  0.4320240000000 1.0
C      1  0.5896950000000  0.5184420000000  0.5179090000000 1.0
C      1  0.5629880000000  0.4673160000000  0.4290610000000 1.0
C      1  0.5161470000000  0.5020110000000  0.4119930000000 1.0
C      1  0.5521630000000  0.4848870000000  0.5668400000000 1.0
C      1  0.4927160000000  0.5683920000000  0.4286690000000 1.0
C      1  0.5440290000000  0.5788720000000  0.5503300000000 1.0
C      1  0.4370120000000  0.4376920000000  0.4628410000000 1.0
C      1  0.5216760000000  0.5348010000000  0.4449610000000 1.0
C      1  0.5426600000000  0.4430910000000  0.5490700000000 1.0
C      1  0.4328140000000  0.4987350000000  0.5626130000000 1.0
C      1  0.4789250000000  0.3948720000000  0.4597440000000 1.0
C      1  0.4078750000000  0.4558590000000  0.5427290000000 1.0
C      1  0.4387890000000  0.5646940000000  0.4814680000000 1.0
C      1  0.4737790000000  0.4988110000000  0.5091280000000 1.0
C      1  0.4573120000000  0.4835840000000  0.4917500000000 1.0
C      1  0.4794090000000  0.5126990000000  0.5533300000000 1.0
C      1  0.4321540000000  0.5262800000000  0.5716760000000 1.0
C      1  0.5357910000000  0.4591610000000  0.4222450000000 1.0
C      1  0.4944000000000  0.4904990000000  0.4565730000000 1.0
C      1  0.5628450000000  0.5320980000000  0.5575570000000 1.0
C      1  0.4614560000000  0.5513950000000  0.5156540000000 1.0
C      1  0.5307890000000  0.4370480000000  0.4397970000000 1.0
C      1  0.5244250000000  0.4870850000000  0.4585630000000 1.0
C      1  0.5650720000000  0.4465270000000  0.5055380000000 1.0
C      1  0.5143690000000  0.5180020000000  0.4887710000000 1.0
C      1  0.5611410000000  0.5156730000000  0.4317740000000 1.0
C      1  0.5903690000000  0.5236430000000  0.4673110000000 1.0
C      1  0.4702350000000  0.5669490000000  0.5398440000000 1.0
END
