TITL C-211922-1629-1 0.0577167759103847 125000 -767.28982687937 0 0 108 (C1) n - 1
REM
REM in /rds/project/t2_vol4/rds-t2-cs072/BORA/CARBON/from-Arr/AIRSS/Generating-Clusters/GAP-ML-2020/Only-C1/SD-CG/HFTN-CG
REM
REM
REM
REM
REM
REM ./C.cell (11c1c37f851c82e70ff6c80c92926a4b)
REM AIRSS Version 0.9.1 bugfix July 2018 build 013d7b7c2542+ Fri, 06 Jul 2018 19:26:36 +0100
REM compiler GCC version 9.3.0
REM options -cpp -mtune=generic -march=x86-64 -g -O0
REM seed 1694550113 702233327 -1888761658 -1032115183 -328382829 2118586491 -715993063 678412734 1627366918 -565274215 1090964836 -1967005839 -667788426 267515588 -270194322 778602616 1403790118 1183959657 -819320591 1486180996 -366539911 -5684572 341687652 309997095 -1781140065 1682812743 -13643096 -1735591771 1593317550 -1756020205 -271525359 -595944956 124370185
REM
CELL 1.54180   50.00000   50.00000   50.00000   90.00000   90.00000   90.00000
LATT -1
SFAC C  
C      1  0.4860690000000  0.5248910000000  0.5149750000000 1.0
C      1  0.5713620000000  0.5513560000000  0.4958140000000 1.0
C      1  0.4267910000000  0.5447410000000  0.5170680000000 1.0
C      1  0.4334710000000  0.4483280000000  0.5037420000000 1.0
C      1  0.5380830000000  0.4498610000000  0.4320710000000 1.0
C      1  0.5141020000000  0.5800340000000  0.5306090000000 1.0
C      1  0.4739310000000  0.4476040000000  0.4234210000000 1.0
C      1  0.5538280000000  0.4421370000000  0.5136670000000 1.0
C      1  0.5316850000000  0.5701300000000  0.4835040000000 1.0
C      1  0.5669420000000  0.4518450000000  0.4677370000000 1.0
C      1  0.4469610000000  0.5447920000000  0.4182810000000 1.0
C      1  0.4766690000000  0.5011680000000  0.4349360000000 1.0
C      1  0.4955320000000  0.4711640000000  0.5217940000000 1.0
C      1  0.4425420000000  0.5630100000000  0.5009970000000 1.0
C      1  0.5473800000000  0.4782220000000  0.4339240000000 1.0
C      1  0.4832810000000  0.5686400000000  0.5558310000000 1.0
C      1  0.4458570000000  0.4768070000000  0.5687690000000 1.0
C      1  0.5779270000000  0.5019770000000  0.5468470000000 1.0
C      1  0.4973160000000  0.4278990000000  0.4651830000000 1.0
C      1  0.5469640000000  0.4852740000000  0.5783030000000 1.0
C      1  0.5775110000000  0.4777990000000  0.5327790000000 1.0
C      1  0.5209630000000  0.4930770000000  0.4437860000000 1.0
C      1  0.4666270000000  0.5489780000000  0.5693620000000 1.0
C      1  0.4429420000000  0.5564380000000  0.4728100000000 1.0
C      1  0.5067200000000  0.5341700000000  0.4977510000000 1.0
C      1  0.5596140000000  0.5633800000000  0.5195300000000 1.0
C      1  0.5253970000000  0.5229760000000  0.4543380000000 1.0
C      1  0.5196440000000  0.5074460000000  0.5363750000000 1.0
C      1  0.4966130000000  0.5192380000000  0.5401460000000 1.0
C      1  0.5047670000000  0.5582730000000  0.4790050000000 1.0
C      1  0.4386840000000  0.4783950000000  0.4421690000000 1.0
C      1  0.5453200000000  0.4369910000000  0.4567390000000 1.0
C      1  0.5239300000000  0.4870610000000  0.5950560000000 1.0
C      1  0.5658650000000  0.5464920000000  0.5420500000000 1.0
C      1  0.5562760000000  0.5036300000000  0.4186610000000 1.0
C      1  0.5021090000000  0.4279370000000  0.5608040000000 1.0
C      1  0.4938460000000  0.4291280000000  0.4362540000000 1.0
C      1  0.4990210000000  0.5379310000000  0.4562610000000 1.0
C      1  0.5722730000000  0.4537290000000  0.4949510000000 1.0
C      1  0.4691710000000  0.4810300000000  0.5197970000000 1.0
C      1  0.5512940000000  0.5380180000000  0.4515700000000 1.0
C      1  0.4383890000000  0.5257210000000  0.4356680000000 1.0
C      1  0.4748710000000  0.4180430000000  0.4868720000000 1.0
C      1  0.4044030000000  0.5349960000000  0.5043390000000 1.0
C      1  0.5212650000000  0.4460320000000  0.5725960000000 1.0
C      1  0.5265910000000  0.5177920000000  0.4858570000000 1.0
C      1  0.4849740000000  0.4188630000000  0.5396070000000 1.0
C      1  0.4639390000000  0.4555570000000  0.5764300000000 1.0
C      1  0.5599970000000  0.4557360000000  0.5393510000000 1.0
C      1  0.4515640000000  0.4347820000000  0.4859490000000 1.0
C      1  0.4950250000000  0.4638590000000  0.4124670000000 1.0
C      1  0.5273400000000  0.5497370000000  0.5746700000000 1.0
C      1  0.5817180000000  0.5252070000000  0.5313660000000 1.0
C      1  0.4918070000000  0.4572170000000  0.4757250000000 1.0
C      1  0.4414850000000  0.4813730000000  0.4720510000000 1.0
C      1  0.5698260000000  0.4750730000000  0.4523220000000 1.0
C      1  0.4828600000000  0.5078260000000  0.4628680000000 1.0
C      1  0.4486110000000  0.4999810000000  0.4288230000000 1.0
C      1  0.4390470000000  0.5215970000000  0.5333980000000 1.0
C      1  0.4208150000000  0.4980630000000  0.5327670000000 1.0
C      1  0.5861320000000  0.5020530000000  0.4886800000000 1.0
C      1  0.5003400000000  0.4920390000000  0.4203800000000 1.0
C      1  0.4511420000000  0.5256130000000  0.5605180000000 1.0
C      1  0.4627730000000  0.5087790000000  0.5089120000000 1.0
C      1  0.4451070000000  0.4626730000000  0.5249320000000 1.0
C      1  0.5546330000000  0.5566420000000  0.4729860000000 1.0
C      1  0.4079150000000  0.4927740000000  0.5073900000000 1.0
C      1  0.4392940000000  0.5295770000000  0.4640130000000 1.0
C      1  0.5237010000000  0.4907320000000  0.4910020000000 1.0
C      1  0.4218560000000  0.4722540000000  0.4920830000000 1.0
C      1  0.5010720000000  0.4478620000000  0.5052410000000 1.0
C      1  0.4614010000000  0.4565320000000  0.4699170000000 1.0
C      1  0.4811550000000  0.5761170000000  0.4811120000000 1.0
C      1  0.4808180000000  0.5547000000000  0.4396620000000 1.0
C      1  0.4667470000000  0.5788730000000  0.5060830000000 1.0
C      1  0.5047340000000  0.4841870000000  0.4691580000000 1.0
C      1  0.5805750000000  0.4996550000000  0.4603910000000 1.0
C      1  0.5691910000000  0.5184710000000  0.4412670000000 1.0
C      1  0.5098940000000  0.4622580000000  0.5932790000000 1.0
C      1  0.5188480000000  0.4867770000000  0.5188350000000 1.0
C      1  0.5126390000000  0.5686140000000  0.5580040000000 1.0
C      1  0.5047990000000  0.5085280000000  0.5979060000000 1.0
C      1  0.4932770000000  0.5347840000000  0.3966650000000 1.0
C      1  0.4824330000000  0.4681100000000  0.5934560000000 1.0
C      1  0.3913700000000  0.5137820000000  0.4972090000000 1.0
C      1  0.5600750000000  0.5082730000000  0.5680530000000 1.0
C      1  0.4561470000000  0.5083250000000  0.4780630000000 1.0
C      1  0.4649610000000  0.5686200000000  0.4596200000000 1.0
C      1  0.5357500000000  0.5773990000000  0.5119020000000 1.0
C      1  0.4744850000000  0.5470850000000  0.4123200000000 1.0
C      1  0.4858000000000  0.4237740000000  0.5116440000000 1.0
C      1  0.4743740000000  0.4318920000000  0.5632770000000 1.0
C      1  0.5078610000000  0.5366590000000  0.5921710000000 1.0
C      1  0.5139230000000  0.4427880000000  0.4212660000000 1.0
C      1  0.4303390000000  0.4751960000000  0.5458140000000 1.0
C      1  0.4542670000000  0.4541600000000  0.4410870000000 1.0
C      1  0.4786370000000  0.4966050000000  0.5943780000000 1.0
C      1  0.5391360000000  0.5127880000000  0.4002530000000 1.0
C      1  0.5832400000000  0.4782210000000  0.5047590000000 1.0
C      1  0.5455420000000  0.4593160000000  0.5636910000000 1.0
C      1  0.5261460000000  0.4260550000000  0.4741530000000 1.0
C      1  0.5110730000000  0.5138420000000  0.3995130000000 1.0
C      1  0.4555360000000  0.5026380000000  0.5774940000000 1.0
C      1  0.5517470000000  0.5370730000000  0.5653300000000 1.0
C      1  0.5841600000000  0.5264640000000  0.5033330000000 1.0
C      1  0.4845020000000  0.5806040000000  0.5289590000000 1.0
C      1  0.4819910000000  0.5462690000000  0.5916790000000 1.0
C      1  0.5286560000000  0.4341130000000  0.5013680000000 1.0
END
