TITL C-2109085-3745-15 -151.578956378609 125000 -1019.46268498211 0 0 143 (C1) n - 1
REM
REM in /nfs/bkarasulu/CARBON/AIRSS/Generating-Clusters/GAP-ML-2020/Only-C1/SD-CG/HFTN-CG
REM
REM
REM
REM
REM
REM ./C.cell (11c1c37f851c82e70ff6c80c92926a4b)
REM
REM compiler GCC version 9.2.1 20190827 (Red Hat 9.2.1-1)
REM options -cpp -mtune=generic -march=x86-64 -g -O0 -fpre-include=/usr/include/finclude/math-vector-fortran.h
REM seed -2004901412 1366671489 1770566104 421570610 1296755983 -2023110271 -1845935048 -226402949 -560332518 1611475085 1240800145 1760724683 1124801883 -1702549809 -2031857369 2113720128 400817126 1156231327 1148626024 -1569887658 1038092115 1927704713 -262295576 -128410878 1819379455 -910641070 -631378942 91357046 -1854764895 1731296533 -670359988 341972515 2053527183
REM
CELL 1.54180   50.00000   50.00000   50.00000   90.00000   90.00000   90.00000
LATT -1
SFAC C  
C      1  0.4098070000000  0.5397200000000  0.5170260000000 1.0
C      1  0.4735520000000  0.5040340000000  0.4663720000000 1.0
C      1  0.4661750000000  0.5193350000000  0.4402060000000 1.0
C      1  0.6006240000000  0.4989670000000  0.5172550000000 1.0
C      1  0.4687050000000  0.5249540000000  0.5878290000000 1.0
C      1  0.4827800000000  0.4580700000000  0.4415940000000 1.0
C      1  0.5478020000000  0.5684140000000  0.5557500000000 1.0
C      1  0.4515900000000  0.4637880000000  0.4827830000000 1.0
C      1  0.4597340000000  0.4593420000000  0.5123960000000 1.0
C      1  0.5098740000000  0.4413950000000  0.5786790000000 1.0
C      1  0.4630700000000  0.5660900000000  0.5597180000000 1.0
C      1  0.5365560000000  0.4805220000000  0.5220800000000 1.0
C      1  0.5037630000000  0.4231690000000  0.5570710000000 1.0
C      1  0.4977700000000  0.5074040000000  0.4015470000000 1.0
C      1  0.5879810000000  0.4837720000000  0.4965220000000 1.0
C      1  0.4973090000000  0.5180400000000  0.4744560000000 1.0
C      1  0.4581660000000  0.4310190000000  0.5607020000000 1.0
C      1  0.5506340000000  0.5206680000000  0.5049520000000 1.0
C      1  0.4444660000000  0.4366680000000  0.4707140000000 1.0
C      1  0.4122350000000  0.5553370000000  0.4918120000000 1.0
C      1  0.4088190000000  0.4415480000000  0.5217740000000 1.0
C      1  0.5345190000000  0.5847100000000  0.5367130000000 1.0
C      1  0.5368000000000  0.4470720000000  0.4306620000000 1.0
C      1  0.4775260000000  0.4729260000000  0.4682750000000 1.0
C      1  0.4980810000000  0.4829160000000  0.5402570000000 1.0
C      1  0.4443060000000  0.5869450000000  0.5142850000000 1.0
C      1  0.4218790000000  0.5095790000000  0.4292700000000 1.0
C      1  0.5274110000000  0.4743340000000  0.4956960000000 1.0
C      1  0.5278060000000  0.4193770000000  0.5430240000000 1.0
C      1  0.4500640000000  0.4170270000000  0.4971530000000 1.0
C      1  0.4789340000000  0.4227610000000  0.5437070000000 1.0
C      1  0.4182210000000  0.5079880000000  0.5517880000000 1.0
C      1  0.5495580000000  0.4341350000000  0.5537600000000 1.0
C      1  0.5068700000000  0.4127410000000  0.4774410000000 1.0
C      1  0.4009540000000  0.4617790000000  0.5048480000000 1.0
C      1  0.5077100000000  0.5530320000000  0.5761890000000 1.0
C      1  0.5541440000000  0.4665450000000  0.4184020000000 1.0
C      1  0.4159460000000  0.4423990000000  0.4593480000000 1.0
C      1  0.4527530000000  0.5093240000000  0.4871900000000 1.0
C      1  0.4657670000000  0.4328280000000  0.4474590000000 1.0
C      1  0.5783450000000  0.5598280000000  0.4519480000000 1.0
C      1  0.4898550000000  0.5849360000000  0.4533970000000 1.0
C      1  0.5635860000000  0.5811820000000  0.4653170000000 1.0
C      1  0.4137210000000  0.4570150000000  0.4354170000000 1.0
C      1  0.4634590000000  0.5000970000000  0.5149480000000 1.0
C      1  0.5836110000000  0.5130510000000  0.4633560000000 1.0
C      1  0.4673800000000  0.5829900000000  0.4714950000000 1.0
C      1  0.5379440000000  0.5330190000000  0.4632020000000 1.0
C      1  0.5381120000000  0.4861610000000  0.4048190000000 1.0
C      1  0.5730690000000  0.4750460000000  0.4373530000000 1.0
C      1  0.4701070000000  0.4979840000000  0.4067290000000 1.0
C      1  0.4097880000000  0.4845670000000  0.4381060000000 1.0
C      1  0.5253580000000  0.4213270000000  0.5159170000000 1.0
C      1  0.4817950000000  0.4048580000000  0.4614130000000 1.0
C      1  0.5184940000000  0.5573990000000  0.4959010000000 1.0
C      1  0.5110470000000  0.5062600000000  0.5953630000000 1.0
C      1  0.5137040000000  0.5551890000000  0.4183520000000 1.0
C      1  0.5776790000000  0.5035510000000  0.4377670000000 1.0
C      1  0.5217000000000  0.4683400000000  0.5428270000000 1.0
C      1  0.4919120000000  0.5711770000000  0.5591040000000 1.0
C      1  0.5388830000000  0.5666170000000  0.4275830000000 1.0
C      1  0.4290730000000  0.4207850000000  0.5196140000000 1.0
C      1  0.5002210000000  0.4329570000000  0.5001830000000 1.0
C      1  0.5152270000000  0.5926580000000  0.4630880000000 1.0
C      1  0.5272200000000  0.4872310000000  0.4530730000000 1.0
C      1  0.4336770000000  0.4282370000000  0.5484480000000 1.0
C      1  0.5985970000000  0.4868140000000  0.5418740000000 1.0
C      1  0.4222270000000  0.5498960000000  0.4635130000000 1.0
C      1  0.4492010000000  0.4762620000000  0.5776980000000 1.0
C      1  0.5714740000000  0.5652760000000  0.5395460000000 1.0
C      1  0.4760940000000  0.5418770000000  0.5090420000000 1.0
C      1  0.4302560000000  0.4795150000000  0.5555690000000 1.0
C      1  0.5769500000000  0.5257860000000  0.5645860000000 1.0
C      1  0.4686900000000  0.5923060000000  0.4993090000000 1.0
C      1  0.5456870000000  0.4797400000000  0.4741320000000 1.0
C      1  0.4635290000000  0.4520210000000  0.5790440000000 1.0
C      1  0.5393860000000  0.5851170000000  0.4496820000000 1.0
C      1  0.5599920000000  0.5829090000000  0.5186560000000 1.0
C      1  0.5715600000000  0.4412880000000  0.5370270000000 1.0
C      1  0.5670560000000  0.4578100000000  0.4631890000000 1.0
C      1  0.4174750000000  0.4513440000000  0.5485050000000 1.0
C      1  0.5963230000000  0.5429900000000  0.4950240000000 1.0
C      1  0.4894530000000  0.4566710000000  0.5902780000000 1.0
C      1  0.5368830000000  0.4187010000000  0.4727800000000 1.0
C      1  0.5645480000000  0.5234880000000  0.4206160000000 1.0
C      1  0.5882030000000  0.5006340000000  0.5650870000000 1.0
C      1  0.4899200000000  0.5639720000000  0.4333140000000 1.0
C      1  0.5054940000000  0.5860980000000  0.5369860000000 1.0
C      1  0.4831230000000  0.4769840000000  0.5153140000000 1.0
C      1  0.4171920000000  0.4864780000000  0.5102160000000 1.0
C      1  0.4087320000000  0.5118540000000  0.5249450000000 1.0
C      1  0.5387120000000  0.5034660000000  0.5889910000000 1.0
C      1  0.4657450000000  0.4964170000000  0.5902520000000 1.0
C      1  0.4417180000000  0.4794590000000  0.5270800000000 1.0
C      1  0.4157400000000  0.5321390000000  0.4447840000000 1.0
C      1  0.5708980000000  0.4372830000000  0.5078910000000 1.0
C      1  0.4547660000000  0.5387710000000  0.4905460000000 1.0
C      1  0.4523400000000  0.5428720000000  0.5734980000000 1.0
C      1  0.5409030000000  0.5415460000000  0.4894550000000 1.0
C      1  0.5752230000000  0.4764990000000  0.5733500000000 1.0
C      1  0.5094090000000  0.4805490000000  0.4075120000000 1.0
C      1  0.4965370000000  0.5408650000000  0.4905790000000 1.0
C      1  0.5660120000000  0.5846050000000  0.4923760000000 1.0
C      1  0.4283340000000  0.5335200000000  0.5601930000000 1.0
C      1  0.3995080000000  0.4589310000000  0.4770710000000 1.0
C      1  0.5638680000000  0.5510160000000  0.4290300000000 1.0
C      1  0.4911820000000  0.4852280000000  0.5965060000000 1.0
C      1  0.4229440000000  0.5797520000000  0.4987270000000 1.0
C      1  0.5477110000000  0.4222770000000  0.4991210000000 1.0
C      1  0.4931800000000  0.3919510000000  0.4959390000000 1.0
C      1  0.4681800000000  0.5474140000000  0.4416150000000 1.0
C      1  0.5913850000000  0.5403420000000  0.4685320000000 1.0
C      1  0.5862270000000  0.5416750000000  0.5422490000000 1.0
C      1  0.5980980000000  0.5286410000000  0.5179050000000 1.0
C      1  0.5851170000000  0.4622930000000  0.5498590000000 1.0
C      1  0.5359710000000  0.5504180000000  0.5733430000000 1.0
C      1  0.4810880000000  0.4717070000000  0.4136940000000 1.0
C      1  0.5000190000000  0.4648910000000  0.4923310000000 1.0
C      1  0.4964090000000  0.5307720000000  0.5899180000000 1.0
C      1  0.5490170000000  0.4354260000000  0.4533860000000 1.0
C      1  0.4227110000000  0.5523180000000  0.5396780000000 1.0
C      1  0.4711170000000  0.4073520000000  0.4365150000000 1.0
C      1  0.5165680000000  0.5288410000000  0.4060570000000 1.0
C      1  0.5515870000000  0.5273600000000  0.5786980000000 1.0
C      1  0.4946960000000  0.5941050000000  0.5106590000000 1.0
C      1  0.5193550000000  0.5131800000000  0.4582650000000 1.0
C      1  0.5421710000000  0.5144100000000  0.4060850000000 1.0
C      1  0.4674170000000  0.3953090000000  0.4867220000000 1.0
C      1  0.4486940000000  0.5097360000000  0.4201460000000 1.0
C      1  0.4526940000000  0.5574390000000  0.4645910000000 1.0
C      1  0.5147660000000  0.5873060000000  0.4913440000000 1.0
C      1  0.5494120000000  0.4768800000000  0.5832050000000 1.0
C      1  0.5821400000000  0.4563700000000  0.4894550000000 1.0
C      1  0.4730580000000  0.4310940000000  0.5142900000000 1.0
C      1  0.5342550000000  0.5090330000000  0.5251760000000 1.0
C      1  0.5669540000000  0.5004700000000  0.4850100000000 1.0
C      1  0.5345430000000  0.4551550000000  0.5700770000000 1.0
C      1  0.5131230000000  0.4640670000000  0.4367320000000 1.0
C      1  0.4307960000000  0.4888910000000  0.4835220000000 1.0
C      1  0.5050900000000  0.5115060000000  0.5365240000000 1.0
C      1  0.4429620000000  0.5729700000000  0.5397380000000 1.0
C      1  0.4794290000000  0.5211420000000  0.5277400000000 1.0
C      1  0.4065510000000  0.4853720000000  0.4666830000000 1.0
END
