TITL C-21800-3045-13 -0.0122477370207902 125000 -142.35542612822 0 0 22 (C1) n - 1
REM
REM in /rds/project/t2_vol4/rds-t2-cs072/BORA/CARBON/from-Arr/AIRSS/Generating-Clusters/GAP-ML-2020/Only-C1/SD-CG/HFTN-CG
REM
REM
REM
REM
REM
REM ./C.cell (11c1c37f851c82e70ff6c80c92926a4b)
REM AIRSS Version 0.9.1 bugfix July 2018 build 013d7b7c2542+ Fri, 06 Jul 2018 19:26:36 +0100
REM compiler GCC version 9.3.0
REM options -cpp -mtune=generic -march=x86-64 -g -O0
REM seed -1700828485 -539915995 -1504908486 -1286072479 848075685 -1048360853 1446074916 -1212236198 -1394103953 752963776 -971724261 1023467702 -1009658477 1589231699 665984856 -31128499 -1720172580 2116877014 -383235209 -1076551336 2075809311 -636179316 1699175791 852503119 300960026 179944549 1906037130 -574000644 -545655579 -40087391 -1531650279 -1803512718 86524293
REM
CELL 1.54180   50.00000   50.00000   50.00000   90.00000   90.00000   90.00000
LATT -1
SFAC C  
C      1  0.4540670000000  0.5119720000000  0.5158460000000 1.0
C      1  0.4991840000000  0.5152590000000  0.5250580000000 1.0
C      1  0.4880990000000  0.5278010000000  0.4597310000000 1.0
C      1  0.5483010000000  0.4604310000000  0.5252550000000 1.0
C      1  0.5099600000000  0.4544470000000  0.4682420000000 1.0
C      1  0.4501450000000  0.5369010000000  0.4784230000000 1.0
C      1  0.5053020000000  0.5389400000000  0.4813780000000 1.0
C      1  0.5258360000000  0.5040500000000  0.5312300000000 1.0
C      1  0.4944650000000  0.5340330000000  0.5060170000000 1.0
C      1  0.5015500000000  0.4589010000000  0.5302730000000 1.0
C      1  0.5048870000000  0.4348370000000  0.5148270000000 1.0
C      1  0.4630570000000  0.5410230000000  0.4568970000000 1.0
C      1  0.5097680000000  0.4412730000000  0.4902980000000 1.0
C      1  0.4780610000000  0.4718930000000  0.5363570000000 1.0
C      1  0.5265390000000  0.4744070000000  0.5328250000000 1.0
C      1  0.5477500000000  0.5164190000000  0.5200070000000 1.0
C      1  0.5326370000000  0.5403990000000  0.4837390000000 1.0
C      1  0.5514750000000  0.5325330000000  0.4998020000000 1.0
C      1  0.4747310000000  0.4987980000000  0.5288320000000 1.0
C      1  0.4395110000000  0.5255100000000  0.5001200000000 1.0
C      1  0.5023070000000  0.4788560000000  0.4601820000000 1.0
C      1  0.4923690000000  0.5013170000000  0.4546640000000 1.0
END
