TITL C-21691-8480-2 -0.153676705362735 125000 -838.58468413111 0 0 120 (C1) n - 1
REM
REM in /rds/project/t2_vol4/rds-t2-cs072/BORA/CARBON/from-Arr/AIRSS/Generating-Clusters/GAP-ML-2020/Only-C1/SD-CG/HFTN-CG
REM
REM
REM
REM
REM
REM ./C.cell (11c1c37f851c82e70ff6c80c92926a4b)
REM AIRSS Version 0.9.1 bugfix July 2018 build 013d7b7c2542+ Fri, 06 Jul 2018 19:26:36 +0100
REM compiler GCC version 9.3.0
REM options -cpp -mtune=generic -march=x86-64 -g -O0
REM seed -2028233461 53350119 629036480 -540726016 670471976 -227607265 -634723305 -1720962082 -365755505 1035847253 -80032064 -1327436209 -276515914 1195310730 1704126561 -1257082475 -898273596 -1567672748 -173315601 866004616 582318061 696485696 1059306793 1686204694 795228323 2044231793 1232069928 1388036796 -1444235446 1566300278 -1373268969 251439353 -1753352545
REM
CELL 1.54180   50.00000   50.00000   50.00000   90.00000   90.00000   90.00000
LATT -1
SFAC C  
C      1  0.5289120000000  0.5445800000000  0.4353270000000 1.0
C      1  0.4236160000000  0.5007890000000  0.4741010000000 1.0
C      1  0.4799600000000  0.4436740000000  0.5010520000000 1.0
C      1  0.4398830000000  0.4408660000000  0.5320700000000 1.0
C      1  0.4932110000000  0.5365630000000  0.5231380000000 1.0
C      1  0.5173890000000  0.4311580000000  0.4651990000000 1.0
C      1  0.5102420000000  0.5973320000000  0.5259430000000 1.0
C      1  0.4990700000000  0.5952170000000  0.4802280000000 1.0
C      1  0.4164900000000  0.4796620000000  0.4921670000000 1.0
C      1  0.4305860000000  0.4921810000000  0.4475250000000 1.0
C      1  0.5058150000000  0.5480200000000  0.4809170000000 1.0
C      1  0.4513140000000  0.5761820000000  0.4896810000000 1.0
C      1  0.4211400000000  0.4558550000000  0.4760890000000 1.0
C      1  0.4787430000000  0.4709440000000  0.4896280000000 1.0
C      1  0.4871060000000  0.5157960000000  0.5038230000000 1.0
C      1  0.4388640000000  0.5210500000000  0.4873130000000 1.0
C      1  0.4829160000000  0.4439870000000  0.5761550000000 1.0
C      1  0.4756000000000  0.4906200000000  0.5919730000000 1.0
C      1  0.4279550000000  0.4640330000000  0.4492760000000 1.0
C      1  0.5042990000000  0.5472330000000  0.4212050000000 1.0
C      1  0.5085440000000  0.4567320000000  0.4527400000000 1.0
C      1  0.5830770000000  0.5196000000000  0.5189510000000 1.0
C      1  0.5312050000000  0.5045480000000  0.5299160000000 1.0
C      1  0.5078610000000  0.4066610000000  0.5113890000000 1.0
C      1  0.5155840000000  0.4845730000000  0.4125360000000 1.0
C      1  0.5891650000000  0.4384620000000  0.5353600000000 1.0
C      1  0.4788060000000  0.4146610000000  0.4607810000000 1.0
C      1  0.4995020000000  0.4463010000000  0.5240660000000 1.0
C      1  0.4517160000000  0.5620230000000  0.4651460000000 1.0
C      1  0.4579180000000  0.5354050000000  0.4710840000000 1.0
C      1  0.4908530000000  0.4971860000000  0.4076830000000 1.0
C      1  0.5709340000000  0.4496500000000  0.5148740000000 1.0
C      1  0.4611550000000  0.5300010000000  0.4239810000000 1.0
C      1  0.4174810000000  0.4860280000000  0.5203780000000 1.0
C      1  0.5208340000000  0.5969920000000  0.4992500000000 1.0
C      1  0.5620580000000  0.4494710000000  0.4546910000000 1.0
C      1  0.4533150000000  0.4264950000000  0.4582400000000 1.0
C      1  0.5160780000000  0.5790490000000  0.5470250000000 1.0
C      1  0.5017760000000  0.5032060000000  0.5855270000000 1.0
C      1  0.4688200000000  0.5841160000000  0.5429710000000 1.0
C      1  0.4846070000000  0.5566800000000  0.5781900000000 1.0
C      1  0.5514940000000  0.5143910000000  0.5729510000000 1.0
C      1  0.5018670000000  0.4665640000000  0.5464360000000 1.0
C      1  0.4485260000000  0.5035480000000  0.4275080000000 1.0
C      1  0.5142390000000  0.5282960000000  0.5422740000000 1.0
C      1  0.5324910000000  0.4684540000000  0.5820440000000 1.0
C      1  0.4971550000000  0.4192350000000  0.5350350000000 1.0
C      1  0.5910910000000  0.5000440000000  0.4979750000000 1.0
C      1  0.4621350000000  0.5558500000000  0.4389600000000 1.0
C      1  0.4964380000000  0.5574560000000  0.5063460000000 1.0
C      1  0.5521090000000  0.4681410000000  0.5602200000000 1.0
C      1  0.5006910000000  0.4186920000000  0.4429970000000 1.0
C      1  0.4171370000000  0.5149990000000  0.5272210000000 1.0
C      1  0.5293930000000  0.4746670000000  0.5375030000000 1.0
C      1  0.5307210000000  0.5321700000000  0.4916150000000 1.0
C      1  0.5335890000000  0.5534410000000  0.5430360000000 1.0
C      1  0.5756860000000  0.5264370000000  0.4670910000000 1.0
C      1  0.5631180000000  0.5001470000000  0.5295810000000 1.0
C      1  0.5300150000000  0.5174190000000  0.4469840000000 1.0
C      1  0.4831800000000  0.4888900000000  0.5417660000000 1.0
C      1  0.4809740000000  0.5987000000000  0.5225610000000 1.0
C      1  0.5578430000000  0.4823770000000  0.4321930000000 1.0
C      1  0.5731710000000  0.5487220000000  0.5103320000000 1.0
C      1  0.4683060000000  0.5343270000000  0.5718660000000 1.0
C      1  0.4870840000000  0.5256340000000  0.4124730000000 1.0
C      1  0.4794780000000  0.4375900000000  0.4026750000000 1.0
C      1  0.4739630000000  0.5946170000000  0.4952890000000 1.0
C      1  0.5010560000000  0.4785500000000  0.4705440000000 1.0
C      1  0.5297530000000  0.4980380000000  0.5862510000000 1.0
C      1  0.5648430000000  0.4942630000000  0.5590150000000 1.0
C      1  0.5473230000000  0.4351280000000  0.5021490000000 1.0
C      1  0.4510830000000  0.4236460000000  0.5506210000000 1.0
C      1  0.4929790000000  0.5149640000000  0.5590140000000 1.0
C      1  0.4276660000000  0.4664450000000  0.5403680000000 1.0
C      1  0.5512780000000  0.4876820000000  0.4815600000000 1.0
C      1  0.5346310000000  0.4088410000000  0.5104200000000 1.0
C      1  0.4741080000000  0.4891420000000  0.5130680000000 1.0
C      1  0.4892370000000  0.5654960000000  0.4366360000000 1.0
C      1  0.4955680000000  0.4216200000000  0.4857360000000 1.0
C      1  0.4582820000000  0.5108730000000  0.5083440000000 1.0
C      1  0.4465450000000  0.4461640000000  0.4378440000000 1.0
C      1  0.4449960000000  0.5433480000000  0.5555270000000 1.0
C      1  0.4567730000000  0.5113680000000  0.5874310000000 1.0
C      1  0.5088780000000  0.4544810000000  0.5736220000000 1.0
C      1  0.5191690000000  0.5072230000000  0.5040740000000 1.0
C      1  0.4274350000000  0.5214060000000  0.5525720000000 1.0
C      1  0.4471620000000  0.5658750000000  0.5382490000000 1.0
C      1  0.5367980000000  0.4992060000000  0.4249120000000 1.0
C      1  0.5705810000000  0.4793600000000  0.4585740000000 1.0
C      1  0.5477890000000  0.5170060000000  0.4715810000000 1.0
C      1  0.4241390000000  0.5363090000000  0.5076630000000 1.0
C      1  0.5757360000000  0.5515210000000  0.4804790000000 1.0
C      1  0.4637380000000  0.4658800000000  0.5808880000000 1.0
C      1  0.4377310000000  0.4331160000000  0.4821140000000 1.0
C      1  0.5696680000000  0.4803820000000  0.5070790000000 1.0
C      1  0.5342830000000  0.5672410000000  0.4521430000000 1.0
C      1  0.5259940000000  0.4581990000000  0.5121080000000 1.0
C      1  0.5905500000000  0.5025070000000  0.4701440000000 1.0
C      1  0.5238340000000  0.4803020000000  0.4903460000000 1.0
C      1  0.5006000000000  0.5060560000000  0.4583040000000 1.0
C      1  0.4655710000000  0.4846400000000  0.4138850000000 1.0
C      1  0.5442110000000  0.5549290000000  0.5125960000000 1.0
C      1  0.5193100000000  0.4571630000000  0.4240550000000 1.0
C      1  0.4374960000000  0.5618910000000  0.5117550000000 1.0
C      1  0.4774360000000  0.4226300000000  0.5563840000000 1.0
C      1  0.5462910000000  0.4344390000000  0.4726780000000 1.0
C      1  0.5058030000000  0.5745910000000  0.4598840000000 1.0
C      1  0.5422480000000  0.5795220000000  0.4958990000000 1.0
C      1  0.5695110000000  0.4481440000000  0.5492500000000 1.0
C      1  0.5486410000000  0.4555130000000  0.4301600000000 1.0
C      1  0.4867590000000  0.5257700000000  0.4750660000000 1.0
C      1  0.4906790000000  0.5759110000000  0.5608190000000 1.0
C      1  0.5017230000000  0.4324050000000  0.4176080000000 1.0
C      1  0.4624480000000  0.4560000000000  0.4158900000000 1.0
C      1  0.5791140000000  0.5398410000000  0.5382580000000 1.0
C      1  0.4383540000000  0.4746270000000  0.5659470000000 1.0
C      1  0.4348300000000  0.5019670000000  0.5722860000000 1.0
C      1  0.4513820000000  0.4343910000000  0.5065830000000 1.0
C      1  0.5571650000000  0.5396490000000  0.5571170000000 1.0
C      1  0.5545240000000  0.5699480000000  0.4719750000000 1.0
END
