TITL C-21843-6178-11 -0.00788415857528369 125000 -66.8193116994838 0 0 11 (C1) n - 1
REM
REM in /rds/project/t2_vol4/rds-t2-cs072/BORA/CARBON/from-Arr/AIRSS/Generating-Clusters/GAP-ML-2020/Only-C1/SD-CG/HFTN-CG
REM
REM
REM
REM
REM
REM ./C.cell (11c1c37f851c82e70ff6c80c92926a4b)
REM AIRSS Version 0.9.1 bugfix July 2018 build 013d7b7c2542+ Fri, 06 Jul 2018 19:26:36 +0100
REM compiler GCC version 9.3.0
REM options -cpp -mtune=generic -march=x86-64 -g -O0
REM seed 1463838172 860008190 850574257 1386049912 1824944813 -342974145 -1927721281 -1049079463 1020818916 -1221009286 17468671 190497142 -1794321042 -2097368835 -430397177 -1511795333 -1625276518 -647019486 -1228833496 1574502258 19241001 -702970074 -489292196 -434997898 1623390836 -1107042514 1857081248 -1918138645 -318988785 728620588 825299821 -1146226490 744095358
REM
CELL 1.54180   50.00000   50.00000   50.00000   90.00000   90.00000   90.00000
LATT -1
SFAC C  
C      1  0.5127120000000  0.4717990000000  0.4766360000000 1.0
C      1  0.5214860000000  0.5341860000000  0.4837490000000 1.0
C      1  0.5202360000000  0.5180520000000  0.5046110000000 1.0
C      1  0.4783140000000  0.4759940000000  0.4996720000000 1.0
C      1  0.4871460000000  0.4811860000000  0.4731100000000 1.0
C      1  0.5061100000000  0.4698800000000  0.5054140000000 1.0
C      1  0.5185870000000  0.4922240000000  0.5168950000000 1.0
C      1  0.4592430000000  0.4873020000000  0.5135290000000 1.0
C      1  0.5117860000000  0.5141240000000  0.5311690000000 1.0
C      1  0.5240320000000  0.5497110000000  0.4637310000000 1.0
C      1  0.4603490000000  0.5055430000000  0.5314840000000 1.0
END
