TITL C-2109089-3815-7 -0.0315583425920553 125000 -166.130205296942 0 0 26 (C1) n - 1
REM
REM in /nfs/bkarasulu/CARBON/AIRSS/Generating-Clusters/GAP-ML-2020/Only-C1/SD-CG/HFTN-CG
REM
REM
REM
REM
REM
REM ./C.cell (11c1c37f851c82e70ff6c80c92926a4b)
REM
REM compiler GCC version 9.2.1 20190827 (Red Hat 9.2.1-1)
REM options -cpp -mtune=generic -march=x86-64 -g -O0 -fpre-include=/usr/include/finclude/math-vector-fortran.h
REM seed 917495099 -2018341457 809131078 334404837 933420861 -1553354149 918872475 -669439341 1867514854 -262352345 2082301364 1455183684 1151937691 556407110 -1463787903 867935 -62167362 969642633 -2092986886 -1475144784 297360143 2101130287 2116822826 2023137873 363327649 1834114698 -1997676229 293760641 465591173 -135776307 1117757302 -886920763 -141612559
REM
CELL 1.54180   50.00000   50.00000   50.00000   90.00000   90.00000   90.00000
LATT -1
SFAC C  
C      1  0.4679320000000  0.5393300000000  0.4935630000000 1.0
C      1  0.5361210000000  0.5141590000000  0.4457630000000 1.0
C      1  0.5006210000000  0.4564690000000  0.4731110000000 1.0
C      1  0.5090000000000  0.4456270000000  0.4996320000000 1.0
C      1  0.5350400000000  0.4871180000000  0.5090240000000 1.0
C      1  0.4753950000000  0.5092580000000  0.4948980000000 1.0
C      1  0.5482680000000  0.4848340000000  0.4849190000000 1.0
C      1  0.4876540000000  0.5037890000000  0.4692080000000 1.0
C      1  0.4912330000000  0.4831450000000  0.5235800000000 1.0
C      1  0.4649440000000  0.5544060000000  0.5423710000000 1.0
C      1  0.5052690000000  0.4820430000000  0.4647440000000 1.0
C      1  0.5216140000000  0.5119320000000  0.5723040000000 1.0
C      1  0.4628390000000  0.5525810000000  0.5172530000000 1.0
C      1  0.4658460000000  0.4850070000000  0.5092400000000 1.0
C      1  0.5427570000000  0.5276400000000  0.5741080000000 1.0
C      1  0.4771530000000  0.5491440000000  0.4690110000000 1.0
C      1  0.4982690000000  0.5105440000000  0.5198690000000 1.0
C      1  0.5340480000000  0.5205560000000  0.5479460000000 1.0
C      1  0.5145350000000  0.4684530000000  0.5165050000000 1.0
C      1  0.4831730000000  0.4402500000000  0.4877880000000 1.0
C      1  0.5271430000000  0.5136870000000  0.5227130000000 1.0
C      1  0.4485200000000  0.4646180000000  0.5052110000000 1.0
C      1  0.5180250000000  0.5322810000000  0.4433040000000 1.0
C      1  0.4569240000000  0.4415910000000  0.4948930000000 1.0
C      1  0.4937850000000  0.5299150000000  0.4568830000000 1.0
C      1  0.5338920000000  0.4916240000000  0.4621600000000 1.0
END
