TITL C-21776-4631-9 -418.304385043868 125000 -731.578752896516 0 0 105 (C1) n - 1
REM
REM in /rds/project/t2_vol4/rds-t2-cs072/BORA/CARBON/from-Arr/AIRSS/Generating-Clusters/GAP-ML-2020/Only-C1/SD-CG/HFTN-CG
REM
REM
REM
REM
REM
REM ./C.cell (11c1c37f851c82e70ff6c80c92926a4b)
REM AIRSS Version 0.9.1 bugfix July 2018 build 013d7b7c2542+ Fri, 06 Jul 2018 19:26:36 +0100
REM compiler GCC version 9.3.0
REM options -cpp -mtune=generic -march=x86-64 -g -O0
REM seed -506977126 -1101738023 -1590673438 -2069803095 189901276 541351849 -1721244345 -673028505 -949917466 -229568009 -1657964231 -2009425672 -1443427292 -32134662 -849400003 857265908 503336137 1587449014 -2067384102 702981732 223201895 -503628250 1360074648 -411885368 1026257989 1231463873 758735568 1235248269 -2077172670 375939153 210852518 467464346 -398826993
REM
CELL 1.54180   50.00000   50.00000   50.00000   90.00000   90.00000   90.00000
LATT -1
SFAC C  
C      1  0.5217230000000  0.5329230000000  0.5761950000000 1.0
C      1  0.4337450000000  0.5017790000000  0.4385570000000 1.0
C      1  0.5244820000000  0.4708120000000  0.5033300000000 1.0
C      1  0.4541470000000  0.4718370000000  0.4860140000000 1.0
C      1  0.5778310000000  0.5344070000000  0.5422480000000 1.0
C      1  0.5046870000000  0.4401190000000  0.4546240000000 1.0
C      1  0.5639530000000  0.5060110000000  0.4732880000000 1.0
C      1  0.5806050000000  0.4684150000000  0.4820470000000 1.0
C      1  0.4793900000000  0.5792630000000  0.5020010000000 1.0
C      1  0.4785850000000  0.4840830000000  0.4890340000000 1.0
C      1  0.5455040000000  0.4391970000000  0.4782860000000 1.0
C      1  0.5003180000000  0.4307720000000  0.4809890000000 1.0
C      1  0.4780530000000  0.5580510000000  0.5722310000000 1.0
C      1  0.5282810000000  0.4341960000000  0.5482440000000 1.0
C      1  0.5039180000000  0.5058690000000  0.4107790000000 1.0
C      1  0.4801290000000  0.4197140000000  0.4984680000000 1.0
C      1  0.5756050000000  0.4824760000000  0.4580240000000 1.0
C      1  0.5046190000000  0.5155500000000  0.4634670000000 1.0
C      1  0.5228850000000  0.4790900000000  0.4755180000000 1.0
C      1  0.4150220000000  0.5348680000000  0.4670550000000 1.0
C      1  0.4195320000000  0.5011440000000  0.5044850000000 1.0
C      1  0.5126000000000  0.5650660000000  0.4675770000000 1.0
C      1  0.4312810000000  0.4756660000000  0.5050810000000 1.0
C      1  0.5718690000000  0.4928580000000  0.4986750000000 1.0
C      1  0.4529860000000  0.5472540000000  0.5631870000000 1.0
C      1  0.5614260000000  0.5202080000000  0.4335970000000 1.0
C      1  0.5559430000000  0.4418400000000  0.5443770000000 1.0
C      1  0.4864420000000  0.5264770000000  0.5324310000000 1.0
C      1  0.5877810000000  0.5350540000000  0.5145930000000 1.0
C      1  0.4560090000000  0.4887440000000  0.4258590000000 1.0
C      1  0.4109470000000  0.5099710000000  0.4789620000000 1.0
C      1  0.5090030000000  0.5129080000000  0.5207360000000 1.0
C      1  0.4410870000000  0.4983910000000  0.5503360000000 1.0
C      1  0.5738610000000  0.5285890000000  0.4580010000000 1.0
C      1  0.4371150000000  0.5108340000000  0.5245120000000 1.0
C      1  0.4589450000000  0.5325460000000  0.5180760000000 1.0
C      1  0.5644340000000  0.5527120000000  0.4696020000000 1.0
C      1  0.4997210000000  0.4613470000000  0.5835140000000 1.0
C      1  0.5001260000000  0.4571590000000  0.4101110000000 1.0
C      1  0.5315800000000  0.5514560000000  0.5577380000000 1.0
C      1  0.4323300000000  0.5305870000000  0.4454070000000 1.0
C      1  0.4398840000000  0.4359250000000  0.5215100000000 1.0
C      1  0.4903740000000  0.4891010000000  0.5602210000000 1.0
C      1  0.4819210000000  0.5163080000000  0.5586230000000 1.0
C      1  0.4521310000000  0.4235860000000  0.4982740000000 1.0
C      1  0.4869420000000  0.4484900000000  0.4326960000000 1.0
C      1  0.5309580000000  0.4553190000000  0.4562320000000 1.0
C      1  0.4881000000000  0.4742510000000  0.5355440000000 1.0
C      1  0.5430890000000  0.5499140000000  0.5115840000000 1.0
C      1  0.5695910000000  0.4440450000000  0.4915290000000 1.0
C      1  0.5702670000000  0.4437580000000  0.5206620000000 1.0
C      1  0.4623010000000  0.5016240000000  0.5938510000000 1.0
C      1  0.4627780000000  0.5678850000000  0.4813000000000 1.0
C      1  0.5399790000000  0.5387390000000  0.4315220000000 1.0
C      1  0.4124520000000  0.4427060000000  0.4816610000000 1.0
C      1  0.4941860000000  0.4898720000000  0.4671690000000 1.0
C      1  0.4610240000000  0.4614800000000  0.4350450000000 1.0
C      1  0.4183390000000  0.4505650000000  0.5083590000000 1.0
C      1  0.4152190000000  0.4895770000000  0.4567650000000 1.0
C      1  0.5920580000000  0.5060550000000  0.5136010000000 1.0
C      1  0.4516300000000  0.5560410000000  0.5362060000000 1.0
C      1  0.5145790000000  0.4850290000000  0.5772320000000 1.0
C      1  0.5225040000000  0.5263450000000  0.4982840000000 1.0
C      1  0.4911140000000  0.4186850000000  0.5249440000000 1.0
C      1  0.5231310000000  0.4378610000000  0.4978020000000 1.0
C      1  0.4751810000000  0.5080020000000  0.4141600000000 1.0
C      1  0.5241240000000  0.5727760000000  0.5164700000000 1.0
C      1  0.5322440000000  0.5076520000000  0.4756230000000 1.0
C      1  0.5071840000000  0.5794770000000  0.4948160000000 1.0
C      1  0.5162810000000  0.5325690000000  0.4166790000000 1.0
C      1  0.5308800000000  0.5060310000000  0.5684190000000 1.0
C      1  0.5691200000000  0.5511120000000  0.4979620000000 1.0
C      1  0.5676640000000  0.4684340000000  0.5356990000000 1.0
C      1  0.4708830000000  0.4762790000000  0.5798690000000 1.0
C      1  0.5889380000000  0.4898160000000  0.5394420000000 1.0
C      1  0.4935490000000  0.5347100000000  0.5829450000000 1.0
C      1  0.5167330000000  0.5723260000000  0.5443460000000 1.0
C      1  0.5185510000000  0.4236930000000  0.5233530000000 1.0
C      1  0.4696550000000  0.5417470000000  0.4913600000000 1.0
C      1  0.5355370000000  0.5081100000000  0.5373100000000 1.0
C      1  0.4806390000000  0.4312080000000  0.5485050000000 1.0
C      1  0.5393180000000  0.5570390000000  0.4555230000000 1.0
C      1  0.5391250000000  0.4721840000000  0.4311370000000 1.0
C      1  0.4814570000000  0.5182180000000  0.6035540000000 1.0
C      1  0.4954920000000  0.5507480000000  0.4222670000000 1.0
C      1  0.5165820000000  0.4790150000000  0.4137680000000 1.0
C      1  0.4985960000000  0.4840750000000  0.5128090000000 1.0
C      1  0.4526930000000  0.5478460000000  0.4373260000000 1.0
C      1  0.4544140000000  0.4451500000000  0.5449800000000 1.0
C      1  0.5037650000000  0.4407110000000  0.5642780000000 1.0
C      1  0.4370680000000  0.4296780000000  0.4748310000000 1.0
C      1  0.4709440000000  0.5361670000000  0.4193580000000 1.0
C      1  0.4893840000000  0.5743110000000  0.5517210000000 1.0
C      1  0.4988040000000  0.5371900000000  0.4816380000000 1.0
C      1  0.4503970000000  0.4702680000000  0.5593530000000 1.0
C      1  0.4526610000000  0.5174150000000  0.5681300000000 1.0
C      1  0.5880970000000  0.5109050000000  0.5558450000000 1.0
C      1  0.4937660000000  0.5685730000000  0.4446680000000 1.0
C      1  0.5487260000000  0.5371140000000  0.5386170000000 1.0
C      1  0.5485260000000  0.4858500000000  0.5190780000000 1.0
C      1  0.4713410000000  0.5762290000000  0.5292980000000 1.0
C      1  0.4663590000000  0.5673390000000  0.4533950000000 1.0
C      1  0.5614020000000  0.4896200000000  0.4347060000000 1.0
C      1  0.4156990000000  0.4624300000000  0.4601310000000 1.0
C      1  0.4451760000000  0.4545740000000  0.4587580000000 1.0
END
