TITL C-214956-5759-3 0.000736797664453211 125000 -674.953168318041 0 0 97 (C1) n - 1
REM
REM in /rds/project/t2_vol4/rds-t2-cs072/BORA/CARBON/from-Arr/AIRSS/Generating-Clusters/GAP-ML-2020/Only-C1/SD-CG/HFTN-CG
REM
REM
REM
REM
REM
REM ./C.cell (11c1c37f851c82e70ff6c80c92926a4b)
REM AIRSS Version 0.9.1 bugfix July 2018 build 013d7b7c2542+ Fri, 06 Jul 2018 19:26:36 +0100
REM compiler GCC version 9.3.0
REM options -cpp -mtune=generic -march=x86-64 -g -O0
REM seed -2029505164 -1317666759 -600354416 434553235 873901055 -1756625722 1637776992 -480075705 -1999503300 877424288 56534229 1319837245 -1537074029 772104565 1059319542 2051325555 -2090717774 2062277503 -1355179669 -1281485082 -1616972530 1583901744 -1895831867 1719395665 1530762809 -888300863 528193968 1583710699 -1625831005 1673972329 -560323209 -905248302 1608765135
REM
CELL 1.54180   50.00000   50.00000   50.00000   90.00000   90.00000   90.00000
LATT -1
SFAC C  
C      1  0.4286780000000  0.4567070000000  0.4597810000000 1.0
C      1  0.5567630000000  0.4384060000000  0.5085870000000 1.0
C      1  0.4858130000000  0.4566700000000  0.5638040000000 1.0
C      1  0.4366780000000  0.4747040000000  0.4821920000000 1.0
C      1  0.4740370000000  0.5189650000000  0.4971310000000 1.0
C      1  0.5521000000000  0.5157340000000  0.4420800000000 1.0
C      1  0.5027150000000  0.5703280000000  0.4528730000000 1.0
C      1  0.5432400000000  0.4457740000000  0.4825990000000 1.0
C      1  0.4494320000000  0.4441190000000  0.5286350000000 1.0
C      1  0.5073660000000  0.5169110000000  0.5285180000000 1.0
C      1  0.4356480000000  0.4684520000000  0.5345110000000 1.0
C      1  0.4738720000000  0.5021160000000  0.4745400000000 1.0
C      1  0.5658540000000  0.4720470000000  0.4521480000000 1.0
C      1  0.4496290000000  0.5456150000000  0.5447770000000 1.0
C      1  0.4554090000000  0.5237830000000  0.4298500000000 1.0
C      1  0.5189170000000  0.5330200000000  0.4859810000000 1.0
C      1  0.5061020000000  0.5509550000000  0.4329390000000 1.0
C      1  0.4300790000000  0.4714000000000  0.4367100000000 1.0
C      1  0.4660100000000  0.5685820000000  0.5344330000000 1.0
C      1  0.4455750000000  0.4970710000000  0.4653310000000 1.0
C      1  0.5995590000000  0.5276440000000  0.5205000000000 1.0
C      1  0.5255760000000  0.5274030000000  0.4343170000000 1.0
C      1  0.4402050000000  0.5671500000000  0.4912230000000 1.0
C      1  0.4276870000000  0.5201510000000  0.4657230000000 1.0
C      1  0.4975950000000  0.4125370000000  0.4850600000000 1.0
C      1  0.4511500000000  0.4922920000000  0.4349410000000 1.0
C      1  0.5351070000000  0.5082580000000  0.5251100000000 1.0
C      1  0.4848240000000  0.5380880000000  0.5757100000000 1.0
C      1  0.5507800000000  0.4471010000000  0.4545900000000 1.0
C      1  0.5029440000000  0.5570660000000  0.5633210000000 1.0
C      1  0.5067570000000  0.4714770000000  0.5226460000000 1.0
C      1  0.5387050000000  0.5654130000000  0.5184590000000 1.0
C      1  0.5240210000000  0.4754190000000  0.4332400000000 1.0
C      1  0.4985400000000  0.5309100000000  0.5053210000000 1.0
C      1  0.5336130000000  0.4250320000000  0.5181150000000 1.0
C      1  0.5307910000000  0.4842530000000  0.5119000000000 1.0
C      1  0.4761960000000  0.5758490000000  0.4642270000000 1.0
C      1  0.5391400000000  0.4781120000000  0.4851750000000 1.0
C      1  0.5517630000000  0.4882150000000  0.4343960000000 1.0
C      1  0.5068940000000  0.5880730000000  0.4965160000000 1.0
C      1  0.4206310000000  0.5110570000000  0.5137720000000 1.0
C      1  0.4789820000000  0.4815490000000  0.5768340000000 1.0
C      1  0.5001020000000  0.4856810000000  0.4206510000000 1.0
C      1  0.5003690000000  0.4953180000000  0.5871090000000 1.0
C      1  0.5659290000000  0.5175510000000  0.4684300000000 1.0
C      1  0.4972630000000  0.4581780000000  0.4991990000000 1.0
C      1  0.4871940000000  0.5190400000000  0.4559020000000 1.0
C      1  0.5174840000000  0.4254760000000  0.5422380000000 1.0
C      1  0.5512550000000  0.5354390000000  0.5568240000000 1.0
C      1  0.5603280000000  0.4822590000000  0.5628320000000 1.0
C      1  0.4150000000000  0.5258110000000  0.4896970000000 1.0
C      1  0.5755620000000  0.5389910000000  0.5129330000000 1.0
C      1  0.5802350000000  0.4833730000000  0.5062570000000 1.0
C      1  0.4603320000000  0.5287470000000  0.5655880000000 1.0
C      1  0.4282990000000  0.5364890000000  0.5281820000000 1.0
C      1  0.4937470000000  0.5732870000000  0.5423430000000 1.0
C      1  0.4652280000000  0.4996910000000  0.5149250000000 1.0
C      1  0.4790610000000  0.4576760000000  0.4553430000000 1.0
C      1  0.5183540000000  0.4869230000000  0.4658990000000 1.0
C      1  0.5586820000000  0.5074060000000  0.5473540000000 1.0
C      1  0.4536070000000  0.4495030000000  0.4753630000000 1.0
C      1  0.4565060000000  0.4341140000000  0.5020640000000 1.0
C      1  0.4223900000000  0.5500980000000  0.5035630000000 1.0
C      1  0.4412460000000  0.5395500000000  0.4495440000000 1.0
C      1  0.5571910000000  0.5514510000000  0.5332990000000 1.0
C      1  0.5670310000000  0.4607180000000  0.5482940000000 1.0
C      1  0.5127900000000  0.4564270000000  0.5500830000000 1.0
C      1  0.5680880000000  0.4889580000000  0.4785880000000 1.0
C      1  0.5346680000000  0.4275050000000  0.5668330000000 1.0
C      1  0.4713440000000  0.4383970000000  0.5469050000000 1.0
C      1  0.4887960000000  0.4940870000000  0.5296980000000 1.0
C      1  0.4998740000000  0.4360690000000  0.4461090000000 1.0
C      1  0.4837120000000  0.5306150000000  0.4264710000000 1.0
C      1  0.5178790000000  0.4326720000000  0.4940540000000 1.0
C      1  0.4797780000000  0.5876300000000  0.4903250000000 1.0
C      1  0.5145350000000  0.5799950000000  0.5228980000000 1.0
C      1  0.5645430000000  0.5398510000000  0.4863180000000 1.0
C      1  0.5155290000000  0.5168120000000  0.4618640000000 1.0
C      1  0.4555830000000  0.4994420000000  0.5692640000000 1.0
C      1  0.5255200000000  0.4474290000000  0.4393490000000 1.0
C      1  0.5723690000000  0.4593740000000  0.5204600000000 1.0
C      1  0.4596750000000  0.5789090000000  0.5084240000000 1.0
C      1  0.5073080000000  0.5210520000000  0.5829030000000 1.0
C      1  0.4756620000000  0.4764560000000  0.4320120000000 1.0
C      1  0.5047940000000  0.5126780000000  0.4169680000000 1.0
C      1  0.4502370000000  0.5627250000000  0.4641700000000 1.0
C      1  0.4366030000000  0.4865360000000  0.5109920000000 1.0
C      1  0.4784540000000  0.4157600000000  0.5067290000000 1.0
C      1  0.4923120000000  0.4758800000000  0.4753490000000 1.0
C      1  0.4886040000000  0.4203900000000  0.5335130000000 1.0
C      1  0.5211330000000  0.5749900000000  0.4752680000000 1.0
C      1  0.4370490000000  0.4841340000000  0.5570360000000 1.0
C      1  0.5394360000000  0.5550480000000  0.4897160000000 1.0
C      1  0.5417860000000  0.4558480000000  0.5628730000000 1.0
C      1  0.4953700000000  0.4113730000000  0.4579370000000 1.0
C      1  0.5825020000000  0.5058220000000  0.5251450000000 1.0
C      1  0.5262950000000  0.5399610000000  0.5693940000000 1.0
END
