TITL C-21701-8249-8 -0.0472905554781885 125000 -167.301339512811 0 0 26 (C1) n - 1
REM
REM in /rds/project/t2_vol4/rds-t2-cs072/BORA/CARBON/from-Arr/AIRSS/Generating-Clusters/GAP-ML-2020/Only-C1/SD-CG/HFTN-CG
REM
REM
REM
REM
REM
REM ./C.cell (11c1c37f851c82e70ff6c80c92926a4b)
REM AIRSS Version 0.9.1 bugfix July 2018 build 013d7b7c2542+ Fri, 06 Jul 2018 19:26:36 +0100
REM compiler GCC version 9.3.0
REM options -cpp -mtune=generic -march=x86-64 -g -O0
REM seed -1144781151 708751627 -981688184 98017194 1939947024 2145065339 -853712758 1805858672 -972602073 902948705 1426370703 -2104774485 -1097332583 1082435561 189580815 -455740024 -735940754 8817110 -784845338 1857399665 1000633678 788687086 -1417632906 393650165 439992052 -2024056299 1451074931 -2122065952 -1322224068 -1368056681 -1360525795 -1972136842 1665379046
REM
CELL 1.54180   50.00000   50.00000   50.00000   90.00000   90.00000   90.00000
LATT -1
SFAC C  
C      1  0.5467610000000  0.5168530000000  0.5239660000000 1.0
C      1  0.4113540000000  0.4810870000000  0.4843490000000 1.0
C      1  0.5623750000000  0.5010320000000  0.5046420000000 1.0
C      1  0.4930530000000  0.4601370000000  0.5100870000000 1.0
C      1  0.4739080000000  0.5364350000000  0.4715450000000 1.0
C      1  0.4978230000000  0.5197110000000  0.4718950000000 1.0
C      1  0.4586560000000  0.4927070000000  0.5031810000000 1.0
C      1  0.4676430000000  0.5162740000000  0.5163580000000 1.0
C      1  0.5063980000000  0.4924030000000  0.5409330000000 1.0
C      1  0.5144810000000  0.4449190000000  0.4990340000000 1.0
C      1  0.4869460000000  0.4786080000000  0.4457050000000 1.0
C      1  0.5056920000000  0.5419510000000  0.5279530000000 1.0
C      1  0.4807900000000  0.4784020000000  0.4932940000000 1.0
C      1  0.5350080000000  0.4593860000000  0.5031110000000 1.0
C      1  0.4947800000000  0.4679050000000  0.5372250000000 1.0
C      1  0.4695580000000  0.5409330000000  0.4989170000000 1.0
C      1  0.4905790000000  0.5170620000000  0.5340630000000 1.0
C      1  0.5347240000000  0.4936870000000  0.5360060000000 1.0
C      1  0.4798880000000  0.4650450000000  0.4258340000000 1.0
C      1  0.5722490000000  0.5132560000000  0.4841270000000 1.0
C      1  0.4925570000000  0.4912370000000  0.4690000000000 1.0
C      1  0.4340040000000  0.4870460000000  0.4933790000000 1.0
C      1  0.5502030000000  0.4751380000000  0.5188240000000 1.0
C      1  0.5311650000000  0.5373820000000  0.5141730000000 1.0
C      1  0.5150140000000  0.5386520000000  0.4883150000000 1.0
C      1  0.4943890000000  0.5527500000000  0.5040830000000 1.0
END
