TITL C-21773-2063-2 161.931517310232 125000 -763.226357803763 0 0 109 (C1) n - 1
REM
REM in /rds/project/t2_vol4/rds-t2-cs072/BORA/CARBON/from-Arr/AIRSS/Generating-Clusters/GAP-ML-2020/Only-C1/SD-CG/HFTN-CG
REM
REM
REM
REM
REM
REM ./C.cell (11c1c37f851c82e70ff6c80c92926a4b)
REM AIRSS Version 0.9.1 bugfix July 2018 build 013d7b7c2542+ Fri, 06 Jul 2018 19:26:36 +0100
REM compiler GCC version 9.3.0
REM options -cpp -mtune=generic -march=x86-64 -g -O0
REM seed -711619076 528889534 1314602652 1870637209 854317875 1496209176 172437774 -1833048946 1207532547 83863745 -620370870 467332155 1016515102 -97996980 910232126 234630418 -1650938576 -160586402 -729504813 1234999610 -149958919 -1621154885 949546971 -1675128939 1106333996 270102896 1421851095 -213553315 695514777 829658749 414654643 -522062286 -1453788802
REM
CELL 1.54180   50.00000   50.00000   50.00000   90.00000   90.00000   90.00000
LATT -1
SFAC C  
C      1  0.5076030000000  0.4351210000000  0.4394500000000 1.0
C      1  0.5483280000000  0.5310610000000  0.5600620000000 1.0
C      1  0.5652750000000  0.5432040000000  0.4519180000000 1.0
C      1  0.5887320000000  0.5066090000000  0.5295660000000 1.0
C      1  0.4535790000000  0.5654280000000  0.4744870000000 1.0
C      1  0.4268650000000  0.4632610000000  0.4598880000000 1.0
C      1  0.5436050000000  0.5099600000000  0.5797230000000 1.0
C      1  0.4931400000000  0.4887350000000  0.5906280000000 1.0
C      1  0.4370770000000  0.4410140000000  0.4752840000000 1.0
C      1  0.4897110000000  0.5265640000000  0.4199510000000 1.0
C      1  0.5336030000000  0.5118740000000  0.4740050000000 1.0
C      1  0.4047240000000  0.5014710000000  0.5152850000000 1.0
C      1  0.4622440000000  0.5616620000000  0.5492320000000 1.0
C      1  0.4941220000000  0.4522060000000  0.5779370000000 1.0
C      1  0.5451890000000  0.4887930000000  0.5249440000000 1.0
C      1  0.5728180000000  0.4593650000000  0.4698630000000 1.0
C      1  0.5458230000000  0.5643530000000  0.4565420000000 1.0
C      1  0.5367710000000  0.5645450000000  0.5262600000000 1.0
C      1  0.5356610000000  0.4750800000000  0.4227310000000 1.0
C      1  0.4765920000000  0.4720460000000  0.5006710000000 1.0
C      1  0.4650910000000  0.4938340000000  0.4852420000000 1.0
C      1  0.4995010000000  0.5319920000000  0.5331930000000 1.0
C      1  0.4230640000000  0.4598690000000  0.5195740000000 1.0
C      1  0.4959970000000  0.4871250000000  0.5177300000000 1.0
C      1  0.4573480000000  0.5758770000000  0.5257910000000 1.0
C      1  0.5709310000000  0.4404910000000  0.5127130000000 1.0
C      1  0.4525460000000  0.5414010000000  0.4584210000000 1.0
C      1  0.4535880000000  0.4712530000000  0.5610600000000 1.0
C      1  0.4823280000000  0.5705790000000  0.4854160000000 1.0
C      1  0.5158170000000  0.5642910000000  0.4512720000000 1.0
C      1  0.5573210000000  0.4932700000000  0.4338670000000 1.0
C      1  0.5362450000000  0.4125730000000  0.5026850000000 1.0
C      1  0.5068440000000  0.4349690000000  0.5394590000000 1.0
C      1  0.4329570000000  0.5211070000000  0.4517570000000 1.0
C      1  0.4694270000000  0.4138580000000  0.4899950000000 1.0
C      1  0.5189060000000  0.4606830000000  0.4398440000000 1.0
C      1  0.5609620000000  0.4218550000000  0.4932800000000 1.0
C      1  0.4701360000000  0.4477660000000  0.5609460000000 1.0
C      1  0.5532550000000  0.4418030000000  0.5355870000000 1.0
C      1  0.4864490000000  0.5774360000000  0.5160680000000 1.0
C      1  0.5803430000000  0.5470320000000  0.5009750000000 1.0
C      1  0.5043160000000  0.5842760000000  0.4698290000000 1.0
C      1  0.4438560000000  0.5017470000000  0.4328850000000 1.0
C      1  0.4636760000000  0.5169610000000  0.5004690000000 1.0
C      1  0.5339360000000  0.5164210000000  0.4417630000000 1.0
C      1  0.5444310000000  0.4673060000000  0.5489950000000 1.0
C      1  0.5784250000000  0.4636140000000  0.4981430000000 1.0
C      1  0.4287240000000  0.5295930000000  0.5416900000000 1.0
C      1  0.4076660000000  0.4767420000000  0.5023480000000 1.0
C      1  0.5600200000000  0.5226170000000  0.4333610000000 1.0
C      1  0.4950610000000  0.5496350000000  0.4352660000000 1.0
C      1  0.5716870000000  0.4907930000000  0.5076650000000 1.0
C      1  0.5035840000000  0.4754450000000  0.4643170000000 1.0
C      1  0.5235340000000  0.5909750000000  0.4888380000000 1.0
C      1  0.4421450000000  0.4728410000000  0.4377660000000 1.0
C      1  0.4904780000000  0.5597120000000  0.5436070000000 1.0
C      1  0.4596270000000  0.4241330000000  0.5149870000000 1.0
C      1  0.5578610000000  0.4338910000000  0.4668240000000 1.0
C      1  0.4322590000000  0.5801790000000  0.4837120000000 1.0
C      1  0.4660820000000  0.4598490000000  0.4285900000000 1.0
C      1  0.4142840000000  0.5113310000000  0.4715590000000 1.0
C      1  0.4970770000000  0.4856140000000  0.5466410000000 1.0
C      1  0.4810580000000  0.4803320000000  0.4146190000000 1.0
C      1  0.4099420000000  0.5234180000000  0.4983920000000 1.0
C      1  0.5595020000000  0.5669440000000  0.5055550000000 1.0
C      1  0.4227070000000  0.5429420000000  0.5164970000000 1.0
C      1  0.4369790000000  0.4393980000000  0.5054250000000 1.0
C      1  0.4732180000000  0.4936280000000  0.5681460000000 1.0
C      1  0.4192110000000  0.5022290000000  0.5395330000000 1.0
C      1  0.5130180000000  0.4596670000000  0.5548860000000 1.0
C      1  0.4808100000000  0.5331520000000  0.4565460000000 1.0
C      1  0.4679940000000  0.5060310000000  0.4176020000000 1.0
C      1  0.5483660000000  0.5785300000000  0.4820480000000 1.0
C      1  0.4771460000000  0.4367260000000  0.4423980000000 1.0
C      1  0.5377450000000  0.5155460000000  0.5361890000000 1.0
C      1  0.4354870000000  0.5680780000000  0.5087480000000 1.0
C      1  0.5299130000000  0.4262850000000  0.4570250000000 1.0
C      1  0.4775880000000  0.4312900000000  0.5384400000000 1.0
C      1  0.5114150000000  0.5105260000000  0.5516620000000 1.0
C      1  0.5151620000000  0.5281080000000  0.4915720000000 1.0
C      1  0.4496920000000  0.5387070000000  0.5590370000000 1.0
C      1  0.4699910000000  0.5225310000000  0.5718330000000 1.0
C      1  0.4587550000000  0.4260870000000  0.4651800000000 1.0
C      1  0.4965780000000  0.5329660000000  0.5797430000000 1.0
C      1  0.5312100000000  0.4243090000000  0.5291630000000 1.0
C      1  0.5136990000000  0.5119110000000  0.4194210000000 1.0
C      1  0.5089540000000  0.5569060000000  0.5663200000000 1.0
C      1  0.4311520000000  0.4756310000000  0.5435250000000 1.0
C      1  0.5159890000000  0.5846350000000  0.5152760000000 1.0
C      1  0.5261530000000  0.5363170000000  0.5180270000000 1.0
C      1  0.4940120000000  0.4249880000000  0.4867170000000 1.0
C      1  0.5666680000000  0.5055610000000  0.4799540000000 1.0
C      1  0.5930790000000  0.5320500000000  0.5205710000000 1.0
C      1  0.5355100000000  0.5567180000000  0.5568980000000 1.0
C      1  0.5133400000000  0.5100140000000  0.5830950000000 1.0
C      1  0.4983950000000  0.5464910000000  0.4761510000000 1.0
C      1  0.4116460000000  0.4823150000000  0.4746080000000 1.0
C      1  0.5592200000000  0.4875890000000  0.5683380000000 1.0
C      1  0.5705510000000  0.4850380000000  0.4579430000000 1.0
C      1  0.5242400000000  0.4862160000000  0.4807880000000 1.0
C      1  0.5807020000000  0.4976850000000  0.5544000000000 1.0
C      1  0.5099920000000  0.4851980000000  0.4124780000000 1.0
C      1  0.4938740000000  0.4644560000000  0.6025730000000 1.0
C      1  0.4892030000000  0.5165680000000  0.5112550000000 1.0
C      1  0.5184750000000  0.4141300000000  0.4803370000000 1.0
C      1  0.4898250000000  0.4550650000000  0.4820580000000 1.0
C      1  0.4830350000000  0.4986030000000  0.4625840000000 1.0
C      1  0.5229970000000  0.4806150000000  0.5079030000000 1.0
C      1  0.5765500000000  0.5327780000000  0.4759870000000 1.0
END
