TITL C-211911-555-1 19.2169559027015 125000 -381.062482222502 0 0 56 (C1) n - 1
REM
REM in /rds/project/t2_vol4/rds-t2-cs072/BORA/CARBON/from-Arr/AIRSS/Generating-Clusters/GAP-ML-2020/Only-C1/SD-CG/HFTN-CG
REM
REM
REM
REM
REM
REM ./C.cell (11c1c37f851c82e70ff6c80c92926a4b)
REM AIRSS Version 0.9.1 bugfix July 2018 build 013d7b7c2542+ Fri, 06 Jul 2018 19:26:36 +0100
REM compiler GCC version 9.3.0
REM options -cpp -mtune=generic -march=x86-64 -g -O0
REM seed 1458892285 -1871459713 -1149807030 1247223142 -1451455647 -1410369862 1585371512 -101558457 987310251 791959548 -961781452 116348053 1051609504 -824375578 -252821235 -800845174 146547628 688409680 -1923977581 1015036482 -598160298 -2045226371 1881785421 848875178 972553407 -1179469337 901026982 699866758 -2124492845 2048594873 301270640 -2143276951 -1592473084
REM
CELL 1.54180   50.00000   50.00000   50.00000   90.00000   90.00000   90.00000
LATT -1
SFAC C  
C      1  0.4668740000000  0.4944290000000  0.5542920000000 1.0
C      1  0.5182480000000  0.4897250000000  0.4355970000000 1.0
C      1  0.4630300000000  0.5440690000000  0.4664530000000 1.0
C      1  0.5527160000000  0.5020310000000  0.5346300000000 1.0
C      1  0.4371110000000  0.4903850000000  0.5099300000000 1.0
C      1  0.4686530000000  0.5410320000000  0.5151680000000 1.0
C      1  0.5623530000000  0.4853850000000  0.4525300000000 1.0
C      1  0.5030880000000  0.4399430000000  0.5355900000000 1.0
C      1  0.5102680000000  0.5522290000000  0.5401190000000 1.0
C      1  0.5452020000000  0.4537300000000  0.5303680000000 1.0
C      1  0.4846960000000  0.4428310000000  0.4895560000000 1.0
C      1  0.4577810000000  0.4548740000000  0.5302880000000 1.0
C      1  0.4972110000000  0.5167350000000  0.4714750000000 1.0
C      1  0.5092760000000  0.5231750000000  0.5443560000000 1.0
C      1  0.4802100000000  0.4515210000000  0.5458040000000 1.0
C      1  0.4693000000000  0.4758170000000  0.4545210000000 1.0
C      1  0.5373190000000  0.5509650000000  0.4890240000000 1.0
C      1  0.5128650000000  0.5622270000000  0.4795460000000 1.0
C      1  0.4782140000000  0.5037300000000  0.4488300000000 1.0
C      1  0.5300310000000  0.5670560000000  0.5254230000000 1.0
C      1  0.4548010000000  0.5214250000000  0.4519380000000 1.0
C      1  0.5352480000000  0.5228840000000  0.4969960000000 1.0
C      1  0.5563150000000  0.5254190000000  0.5184490000000 1.0
C      1  0.4589830000000  0.4479030000000  0.5025880000000 1.0
C      1  0.4481720000000  0.4818500000000  0.5348350000000 1.0
C      1  0.5256910000000  0.4800280000000  0.4832090000000 1.0
C      1  0.5521890000000  0.5540820000000  0.5147100000000 1.0
C      1  0.5697590000000  0.4675760000000  0.4694980000000 1.0
C      1  0.5028180000000  0.5376070000000  0.4346140000000 1.0
C      1  0.4991800000000  0.5098570000000  0.4284480000000 1.0
C      1  0.5123640000000  0.5144640000000  0.5150170000000 1.0
C      1  0.5509740000000  0.4672170000000  0.4917970000000 1.0
C      1  0.5249530000000  0.4538440000000  0.5485750000000 1.0
C      1  0.4873220000000  0.4757430000000  0.5601340000000 1.0
C      1  0.4832170000000  0.4879630000000  0.5048350000000 1.0
C      1  0.4349270000000  0.5147300000000  0.4930920000000 1.0
C      1  0.4355260000000  0.5057480000000  0.4662140000000 1.0
C      1  0.4414390000000  0.4677860000000  0.4920600000000 1.0
C      1  0.4887160000000  0.5603410000000  0.5220320000000 1.0
C      1  0.5360210000000  0.4432320000000  0.5053440000000 1.0
C      1  0.5572840000000  0.4773040000000  0.5214910000000 1.0
C      1  0.5161630000000  0.4785160000000  0.5596760000000 1.0
C      1  0.4807740000000  0.5192370000000  0.5545920000000 1.0
C      1  0.5130140000000  0.4686700000000  0.4579020000000 1.0
C      1  0.4871870000000  0.5152060000000  0.4990480000000 1.0
C      1  0.5290350000000  0.5026280000000  0.5522750000000 1.0
C      1  0.5076160000000  0.4370170000000  0.5070150000000 1.0
C      1  0.5107270000000  0.4837150000000  0.5101070000000 1.0
C      1  0.4882810000000  0.4572140000000  0.4643390000000 1.0
C      1  0.4439490000000  0.4780620000000  0.4664450000000 1.0
C      1  0.4506360000000  0.5399690000000  0.4924580000000 1.0
C      1  0.4613430000000  0.5302630000000  0.5399790000000 1.0
C      1  0.4941510000000  0.5467080000000  0.4612640000000 1.0
C      1  0.5417960000000  0.5019700000000  0.4473260000000 1.0
C      1  0.5079660000000  0.5742550000000  0.5048850000000 1.0
C      1  0.5270190000000  0.5076800000000  0.4733140000000 1.0
END
