TITL C-21777-4485-2 -0.10037683340581 125000 -316.312753691532 0 0 47 (C1) n - 1
REM
REM in /rds/project/t2_vol4/rds-t2-cs072/BORA/CARBON/from-Arr/AIRSS/Generating-Clusters/GAP-ML-2020/Only-C1/SD-CG/HFTN-CG
REM
REM
REM
REM
REM
REM ./C.cell (11c1c37f851c82e70ff6c80c92926a4b)
REM AIRSS Version 0.9.1 bugfix July 2018 build 013d7b7c2542+ Fri, 06 Jul 2018 19:26:36 +0100
REM compiler GCC version 9.3.0
REM options -cpp -mtune=generic -march=x86-64 -g -O0
REM seed 388782433 -30880885 610528638 -923847023 -1629078744 721290940 227607192 1471866321 -1257785368 -1436081624 693380866 -1474575645 1468396297 554118549 -537998753 -332183248 -1009301854 1042656330 -1150608174 972855161 1496204456 1185451673 1273583423 -643402360 -1439795850 -578886601 -2097827843 -444900480 -831734012 1230463945 600283769 -1314525815 -80731984
REM
CELL 1.54180   50.00000   50.00000   50.00000   90.00000   90.00000   90.00000
LATT -1
SFAC C  
C      1  0.4686040000000  0.5618980000000  0.4976670000000 1.0
C      1  0.5655040000000  0.4885910000000  0.4949420000000 1.0
C      1  0.5169890000000  0.5594580000000  0.4843410000000 1.0
C      1  0.5175850000000  0.5508090000000  0.5131890000000 1.0
C      1  0.4934350000000  0.5047060000000  0.5214710000000 1.0
C      1  0.5623540000000  0.4854090000000  0.4650000000000 1.0
C      1  0.5171100000000  0.4786680000000  0.4305470000000 1.0
C      1  0.5385720000000  0.4915190000000  0.4245750000000 1.0
C      1  0.4582600000000  0.4705170000000  0.5280630000000 1.0
C      1  0.4895450000000  0.4835990000000  0.5607400000000 1.0
C      1  0.5006690000000  0.5539890000000  0.5349400000000 1.0
C      1  0.4822560000000  0.4629260000000  0.5426900000000 1.0
C      1  0.5016730000000  0.4915630000000  0.4762950000000 1.0
C      1  0.5325490000000  0.4917470000000  0.5322670000000 1.0
C      1  0.5711160000000  0.4649770000000  0.5073070000000 1.0
C      1  0.4486190000000  0.4944900000000  0.5395280000000 1.0
C      1  0.4735020000000  0.5344440000000  0.4664770000000 1.0
C      1  0.5496350000000  0.5312860000000  0.4517570000000 1.0
C      1  0.4727530000000  0.5279570000000  0.5609790000000 1.0
C      1  0.5002230000000  0.5324190000000  0.5551430000000 1.0
C      1  0.5101960000000  0.5030780000000  0.5474960000000 1.0
C      1  0.5439960000000  0.4643270000000  0.4641070000000 1.0
C      1  0.4872570000000  0.4264860000000  0.4756540000000 1.0
C      1  0.4925550000000  0.4804610000000  0.5033600000000 1.0
C      1  0.4407540000000  0.5202360000000  0.5268300000000 1.0
C      1  0.4563650000000  0.5406230000000  0.5400360000000 1.0
C      1  0.5368700000000  0.4438380000000  0.4836560000000 1.0
C      1  0.5544350000000  0.5045640000000  0.4450880000000 1.0
C      1  0.4895720000000  0.5581380000000  0.4773070000000 1.0
C      1  0.5046270000000  0.5254990000000  0.5060920000000 1.0
C      1  0.4519280000000  0.5426170000000  0.4851250000000 1.0
C      1  0.5428670000000  0.5021530000000  0.5070250000000 1.0
C      1  0.4660010000000  0.5004970000000  0.5621170000000 1.0
C      1  0.4645280000000  0.4686550000000  0.4978390000000 1.0
C      1  0.5098870000000  0.4424760000000  0.4735300000000 1.0
C      1  0.5320210000000  0.5376220000000  0.4709200000000 1.0
C      1  0.5138690000000  0.4696180000000  0.4584960000000 1.0
C      1  0.4762560000000  0.5058640000000  0.4678540000000 1.0
C      1  0.4534490000000  0.4909830000000  0.4786400000000 1.0
C      1  0.4354680000000  0.5232230000000  0.4982390000000 1.0
C      1  0.4731740000000  0.5587530000000  0.5253410000000 1.0
C      1  0.5479860000000  0.4502530000000  0.5101860000000 1.0
C      1  0.5225640000000  0.5128330000000  0.4868930000000 1.0
C      1  0.5300210000000  0.4628810000000  0.5286250000000 1.0
C      1  0.4714230000000  0.4432290000000  0.4870680000000 1.0
C      1  0.5023670000000  0.4583040000000  0.5233570000000 1.0
C      1  0.4286110000000  0.5018160000000  0.4812000000000 1.0
END
