TITL C-2114521-4255-21 -468.66029744214 125000 -1079.40983251068 0 0 152 (C1) n - 1
REM
REM in /nfs/bkarasulu/CARBON/AIRSS/Generating-Clusters/GAP-ML-2020/Only-C1/SD-CG/HFTN-CG
REM
REM
REM
REM
REM
REM ./C.cell (11c1c37f851c82e70ff6c80c92926a4b)
REM
REM compiler GCC version 9.2.1 20190827 (Red Hat 9.2.1-1)
REM options -cpp -mtune=generic -march=x86-64 -g -O0 -fpre-include=/usr/include/finclude/math-vector-fortran.h
REM seed 472773593 -388610645 -118555212 649092478 5081178 1810885748 -1709711224 -1899663232 -1081622904 -763380371 -205735189 1510194355 -1874723724 -1781079313 -1395726301 1058427190 1427642447 1083415068 -310602285 747406325 605935056 -1509064664 693363158 1518871550 1299427140 721012703 -876902891 1873893086 -52121186 -649549625 1132312091 -32864504 2034232864
REM
CELL 1.54180   50.00000   50.00000   50.00000   90.00000   90.00000   90.00000
LATT -1
SFAC C  
C      1  0.5204130000000  0.5180780000000  0.4847710000000 1.0
C      1  0.4287720000000  0.5417250000000  0.4505590000000 1.0
C      1  0.3935800000000  0.4886090000000  0.5184860000000 1.0
C      1  0.5430560000000  0.5896350000000  0.4976540000000 1.0
C      1  0.5969690000000  0.4583510000000  0.5010650000000 1.0
C      1  0.5899360000000  0.4388870000000  0.4811380000000 1.0
C      1  0.5462470000000  0.4786630000000  0.4919140000000 1.0
C      1  0.5246760000000  0.5053910000000  0.4582570000000 1.0
C      1  0.4681750000000  0.4815370000000  0.6052570000000 1.0
C      1  0.4615400000000  0.5044250000000  0.5316870000000 1.0
C      1  0.5321370000000  0.4620930000000  0.5106760000000 1.0
C      1  0.4814440000000  0.5599140000000  0.4907090000000 1.0
C      1  0.4314090000000  0.4938180000000  0.4611590000000 1.0
C      1  0.4341810000000  0.4328900000000  0.5334610000000 1.0
C      1  0.4512540000000  0.5291890000000  0.5189070000000 1.0
C      1  0.5604640000000  0.4632670000000  0.4498930000000 1.0
C      1  0.5580940000000  0.5493880000000  0.4394050000000 1.0
C      1  0.4324510000000  0.4956030000000  0.5794690000000 1.0
C      1  0.5309530000000  0.5431210000000  0.4269160000000 1.0
C      1  0.4416920000000  0.5545750000000  0.5376100000000 1.0
C      1  0.5531450000000  0.4369240000000  0.5608610000000 1.0
C      1  0.5321180000000  0.4254270000000  0.4471870000000 1.0
C      1  0.4382340000000  0.4556060000000  0.4344040000000 1.0
C      1  0.5783700000000  0.5301950000000  0.5426510000000 1.0
C      1  0.4245590000000  0.5208460000000  0.5107390000000 1.0
C      1  0.4648110000000  0.5757270000000  0.5424830000000 1.0
C      1  0.5081810000000  0.5634370000000  0.4837860000000 1.0
C      1  0.5125020000000  0.4927400000000  0.5909570000000 1.0
C      1  0.4546340000000  0.4091650000000  0.4983310000000 1.0
C      1  0.4321450000000  0.4515470000000  0.4852080000000 1.0
C      1  0.4918930000000  0.5662620000000  0.5383000000000 1.0
C      1  0.3960060000000  0.4904080000000  0.4889690000000 1.0
C      1  0.5401710000000  0.5046900000000  0.5012400000000 1.0
C      1  0.5383490000000  0.4002190000000  0.5147010000000 1.0
C      1  0.5105960000000  0.4011200000000  0.5242730000000 1.0
C      1  0.5005000000000  0.4000900000000  0.4955200000000 1.0
C      1  0.4254620000000  0.4558100000000  0.5488360000000 1.0
C      1  0.5962100000000  0.4431510000000  0.4522310000000 1.0
C      1  0.4150750000000  0.5170590000000  0.4530980000000 1.0
C      1  0.4344800000000  0.5872650000000  0.5055640000000 1.0
C      1  0.5285610000000  0.4797570000000  0.5341370000000 1.0
C      1  0.5040430000000  0.4341670000000  0.4434730000000 1.0
C      1  0.5627880000000  0.5292220000000  0.5674010000000 1.0
C      1  0.5444910000000  0.4139090000000  0.4707460000000 1.0
C      1  0.4353880000000  0.5775660000000  0.4788930000000 1.0
C      1  0.4157950000000  0.4736480000000  0.5283180000000 1.0
C      1  0.5253790000000  0.5311270000000  0.5380210000000 1.0
C      1  0.4832580000000  0.4439080000000  0.5778930000000 1.0
C      1  0.5401670000000  0.5174650000000  0.4084170000000 1.0
C      1  0.4928040000000  0.6049650000000  0.4781830000000 1.0
C      1  0.4694300000000  0.5588030000000  0.4229980000000 1.0
C      1  0.5759440000000  0.5273100000000  0.4384200000000 1.0
C      1  0.5118810000000  0.5248060000000  0.4417850000000 1.0
C      1  0.4342500000000  0.4291640000000  0.5043790000000 1.0
C      1  0.5699080000000  0.4340710000000  0.5370330000000 1.0
C      1  0.4705400000000  0.4992050000000  0.4378740000000 1.0
C      1  0.5172310000000  0.5223670000000  0.5909690000000 1.0
C      1  0.6001670000000  0.5085230000000  0.5056380000000 1.0
C      1  0.4166920000000  0.4706500000000  0.4481820000000 1.0
C      1  0.4563930000000  0.5131330000000  0.4146570000000 1.0
C      1  0.4709680000000  0.5693110000000  0.5715040000000 1.0
C      1  0.5919110000000  0.5183800000000  0.4608350000000 1.0
C      1  0.4621580000000  0.5696570000000  0.4689400000000 1.0
C      1  0.4641070000000  0.4810740000000  0.5138820000000 1.0
C      1  0.5401150000000  0.5515510000000  0.5208870000000 1.0
C      1  0.5572670000000  0.5725610000000  0.4559930000000 1.0
C      1  0.5257380000000  0.4273470000000  0.5644580000000 1.0
C      1  0.4977830000000  0.4717160000000  0.4820440000000 1.0
C      1  0.6034200000000  0.4843970000000  0.4906710000000 1.0
C      1  0.5281360000000  0.3987440000000  0.4876180000000 1.0
C      1  0.5872250000000  0.4562620000000  0.5285190000000 1.0
C      1  0.5615670000000  0.4165400000000  0.5154280000000 1.0
C      1  0.4608970000000  0.3973890000000  0.5226460000000 1.0
C      1  0.5327150000000  0.5856770000000  0.4508200000000 1.0
C      1  0.4119490000000  0.5053080000000  0.5338440000000 1.0
C      1  0.4206460000000  0.5144730000000  0.5609290000000 1.0
C      1  0.5674290000000  0.4225180000000  0.4874610000000 1.0
C      1  0.4935690000000  0.4948060000000  0.3975140000000 1.0
C      1  0.5358060000000  0.5802340000000  0.5239220000000 1.0
C      1  0.4657770000000  0.5388000000000  0.4042650000000 1.0
C      1  0.5203100000000  0.5916230000000  0.4776330000000 1.0
C      1  0.4774070000000  0.5354600000000  0.5047030000000 1.0
C      1  0.4250860000000  0.4976870000000  0.4911040000000 1.0
C      1  0.5737750000000  0.4812970000000  0.4196750000000 1.0
C      1  0.4853290000000  0.4602510000000  0.5260450000000 1.0
C      1  0.4362480000000  0.4740780000000  0.5054150000000 1.0
C      1  0.4811610000000  0.4333430000000  0.5494860000000 1.0
C      1  0.5129410000000  0.4772640000000  0.4574190000000 1.0
C      1  0.4592280000000  0.4837820000000  0.4612640000000 1.0
C      1  0.5117210000000  0.4447680000000  0.5834190000000 1.0
C      1  0.4161060000000  0.5590620000000  0.4689870000000 1.0
C      1  0.4524980000000  0.5489700000000  0.5807060000000 1.0
C      1  0.5412790000000  0.4786380000000  0.4640240000000 1.0
C      1  0.4870590000000  0.5171460000000  0.4832680000000 1.0
C      1  0.4956060000000  0.5354340000000  0.5323250000000 1.0
C      1  0.5924830000000  0.5068350000000  0.5328810000000 1.0
C      1  0.5332920000000  0.5377570000000  0.5695470000000 1.0
C      1  0.4824700000000  0.5133680000000  0.5481190000000 1.0
C      1  0.5681270000000  0.5058650000000  0.5790920000000 1.0
C      1  0.5058110000000  0.4618700000000  0.4304530000000 1.0
C      1  0.4583120000000  0.5475760000000  0.4482970000000 1.0
C      1  0.4823690000000  0.5238740000000  0.4526080000000 1.0
C      1  0.5180320000000  0.5714840000000  0.4304870000000 1.0
C      1  0.5055510000000  0.4552480000000  0.5035410000000 1.0
C      1  0.5271310000000  0.5450330000000  0.4917900000000 1.0
C      1  0.4218190000000  0.5665640000000  0.5193410000000 1.0
C      1  0.5360990000000  0.5059320000000  0.5284650000000 1.0
C      1  0.4937620000000  0.5373290000000  0.5974310000000 1.0
C      1  0.4790200000000  0.4301160000000  0.4591900000000 1.0
C      1  0.4374510000000  0.4676790000000  0.5729490000000 1.0
C      1  0.5547090000000  0.4608400000000  0.5768540000000 1.0
C      1  0.5995260000000  0.4909800000000  0.4629400000000 1.0
C      1  0.5799290000000  0.5536290000000  0.4974760000000 1.0
C      1  0.5534900000000  0.4612730000000  0.4139870000000 1.0
C      1  0.4543250000000  0.4516510000000  0.4602340000000 1.0
C      1  0.4774520000000  0.4109780000000  0.4809240000000 1.0
C      1  0.5893270000000  0.4715970000000  0.4444000000000 1.0
C      1  0.3948480000000  0.5438820000000  0.4815590000000 1.0
C      1  0.5170470000000  0.5796710000000  0.5451650000000 1.0
C      1  0.4816670000000  0.4757740000000  0.4179280000000 1.0
C      1  0.5207820000000  0.5656850000000  0.5702320000000 1.0
C      1  0.4937780000000  0.4860550000000  0.6119420000000 1.0
C      1  0.4526060000000  0.5043360000000  0.5982020000000 1.0
C      1  0.4755090000000  0.4890280000000  0.4863020000000 1.0
C      1  0.4063590000000  0.4641190000000  0.4724390000000 1.0
C      1  0.4326290000000  0.5408010000000  0.5623360000000 1.0
C      1  0.4654430000000  0.5297410000000  0.5973590000000 1.0
C      1  0.5551790000000  0.4384040000000  0.4328710000000 1.0
C      1  0.4960820000000  0.5628790000000  0.5839630000000 1.0
C      1  0.5658090000000  0.5086930000000  0.4184340000000 1.0
C      1  0.5876460000000  0.4804170000000  0.5442850000000 1.0
C      1  0.5218240000000  0.4958400000000  0.4001770000000 1.0
C      1  0.5059800000000  0.4169470000000  0.5466870000000 1.0
C      1  0.4553230000000  0.4610320000000  0.4142790000000 1.0
C      1  0.4083040000000  0.5451620000000  0.5056120000000 1.0
C      1  0.4568540000000  0.4172410000000  0.5414530000000 1.0
C      1  0.5638980000000  0.5746170000000  0.4842390000000 1.0
C      1  0.4767480000000  0.6075210000000  0.5005160000000 1.0
C      1  0.4800730000000  0.5895450000000  0.4560740000000 1.0
C      1  0.5274560000000  0.4695290000000  0.4101220000000 1.0
C      1  0.4591460000000  0.5967950000000  0.5185240000000 1.0
C      1  0.4902190000000  0.5772820000000  0.4320830000000 1.0
C      1  0.3929390000000  0.5161340000000  0.4715150000000 1.0
C      1  0.5738310000000  0.4810850000000  0.5697870000000 1.0
C      1  0.5930770000000  0.5300030000000  0.4875560000000 1.0
C      1  0.4946460000000  0.4936260000000  0.5630200000000 1.0
C      1  0.5289880000000  0.4667830000000  0.5891620000000 1.0
C      1  0.5027690000000  0.4777880000000  0.5424580000000 1.0
C      1  0.5813880000000  0.4265030000000  0.4354120000000 1.0
C      1  0.4617990000000  0.4599000000000  0.5874910000000 1.0
C      1  0.5694070000000  0.5484570000000  0.5230950000000 1.0
C      1  0.4745240000000  0.5150850000000  0.3933140000000 1.0
END
