TITL C-2114527-8099-34 0.0155126911016798 125000 -105.96575591875 0 0 17 (C1) n - 1
REM
REM in /nfs/bkarasulu/CARBON/AIRSS/Generating-Clusters/GAP-ML-2020/Only-C1/SD-CG/HFTN-CG
REM
REM
REM
REM
REM
REM ./C.cell (11c1c37f851c82e70ff6c80c92926a4b)
REM
REM compiler GCC version 9.2.1 20190827 (Red Hat 9.2.1-1)
REM options -cpp -mtune=generic -march=x86-64 -g -O0 -fpre-include=/usr/include/finclude/math-vector-fortran.h
REM seed 354229138 1558735990 -93875345 -1720541805 859272190 -635373903 495252921 1051180460 913442650 525825125 -909521262 -1706253429 -75946292 1349557814 727280957 -260581766 -1202733639 346065489 1116257432 2026290120 439296741 1515923986 -520504003 -2072000670 1992990711 -514141175 -995489550 1014957687 -1813680835 1404438619 -1055029910 718719640 1471350631
REM
CELL 1.54180   50.00000   50.00000   50.00000   90.00000   90.00000   90.00000
LATT -1
SFAC C  
C      1  0.5332050000000  0.4988200000000  0.5419220000000 1.0
C      1  0.4890730000000  0.5189390000000  0.5384280000000 1.0
C      1  0.5203220000000  0.5204910000000  0.5014800000000 1.0
C      1  0.4765150000000  0.5408790000000  0.4979980000000 1.0
C      1  0.4820800000000  0.4938750000000  0.4604730000000 1.0
C      1  0.4989110000000  0.5142200000000  0.4562050000000 1.0
C      1  0.4624880000000  0.5435540000000  0.4774930000000 1.0
C      1  0.4672460000000  0.4540460000000  0.5033060000000 1.0
C      1  0.5212090000000  0.5121790000000  0.4751080000000 1.0
C      1  0.4900010000000  0.4672740000000  0.4613790000000 1.0
C      1  0.5390450000000  0.5098020000000  0.5198030000000 1.0
C      1  0.4788580000000  0.4652180000000  0.5234170000000 1.0
C      1  0.5358300000000  0.4883810000000  0.4696300000000 1.0
C      1  0.4952630000000  0.5287930000000  0.5132430000000 1.0
C      1  0.4902760000000  0.4736130000000  0.5455380000000 1.0
C      1  0.5150100000000  0.4727030000000  0.4680470000000 1.0
C      1  0.5046690000000  0.4972120000000  0.5465320000000 1.0
END
