TITL C-21923-2341-4 -28.3095096799915 125000 -238.924705045603 0 0 37 (C1) n - 1
REM
REM in /rds/project/t2_vol4/rds-t2-cs072/BORA/CARBON/from-Arr/AIRSS/Generating-Clusters/GAP-ML-2020/Only-C1/SD-CG/HFTN-CG
REM
REM
REM
REM
REM
REM ./C.cell (11c1c37f851c82e70ff6c80c92926a4b)
REM AIRSS Version 0.9.1 bugfix July 2018 build 013d7b7c2542+ Fri, 06 Jul 2018 19:26:36 +0100
REM compiler GCC version 9.3.0
REM options -cpp -mtune=generic -march=x86-64 -g -O0
REM seed -594279510 -1205977284 -1766041430 2060429857 53762165 -1429127739 -1318696944 -716478024 -1581225496 343837643 1966001646 -726577512 -1736169029 -1501563665 1046887779 -2014929829 -504861 -400304739 1406024497 1108871584 -1129179764 -1514919473 520906061 -1784762334 884068632 -507897235 2101822007 1738711494 744101126 312990131 1861045588 1782679976 -629170659
REM
CELL 1.54180   50.00000   50.00000   50.00000   90.00000   90.00000   90.00000
LATT -1
SFAC C  
C      1  0.5057500000000  0.5147050000000  0.5507310000000 1.0
C      1  0.5209200000000  0.5440760000000  0.5182970000000 1.0
C      1  0.5276160000000  0.4543850000000  0.5067980000000 1.0
C      1  0.4831540000000  0.4825200000000  0.5211220000000 1.0
C      1  0.5002360000000  0.4914610000000  0.4985680000000 1.0
C      1  0.4505930000000  0.5044640000000  0.4956650000000 1.0
C      1  0.4602410000000  0.5024620000000  0.5224740000000 1.0
C      1  0.4846870000000  0.4932280000000  0.4706390000000 1.0
C      1  0.4942380000000  0.5201880000000  0.5004790000000 1.0
C      1  0.4513630000000  0.4425770000000  0.5246440000000 1.0
C      1  0.4903680000000  0.5608920000000  0.4825980000000 1.0
C      1  0.4769940000000  0.5422110000000  0.4636560000000 1.0
C      1  0.5108970000000  0.4502760000000  0.4818990000000 1.0
C      1  0.5249480000000  0.4724610000000  0.5457740000000 1.0
C      1  0.5706170000000  0.4922520000000  0.5281460000000 1.0
C      1  0.4825460000000  0.4500300000000  0.4856230000000 1.0
C      1  0.5301310000000  0.4481240000000  0.5330430000000 1.0
C      1  0.4712950000000  0.5182570000000  0.4809180000000 1.0
C      1  0.4811870000000  0.5642500000000  0.5079700000000 1.0
C      1  0.4612090000000  0.5227240000000  0.5401300000000 1.0
C      1  0.5367320000000  0.5060290000000  0.4576590000000 1.0
C      1  0.5147790000000  0.5415180000000  0.4890760000000 1.0
C      1  0.4434480000000  0.4801920000000  0.4846060000000 1.0
C      1  0.5434450000000  0.4969410000000  0.5276160000000 1.0
C      1  0.5014090000000  0.4870230000000  0.5447900000000 1.0
C      1  0.4848900000000  0.5346340000000  0.5471270000000 1.0
C      1  0.5301790000000  0.4843490000000  0.5025840000000 1.0
C      1  0.4668180000000  0.4696460000000  0.4724290000000 1.0
C      1  0.4981080000000  0.5304240000000  0.4467430000000 1.0
C      1  0.4962300000000  0.5006280000000  0.4446770000000 1.0
C      1  0.5220120000000  0.5296290000000  0.4635250000000 1.0
C      1  0.5202540000000  0.4855450000000  0.4418510000000 1.0
C      1  0.4736070000000  0.4543040000000  0.5157120000000 1.0
C      1  0.4956770000000  0.5552230000000  0.5292900000000 1.0
C      1  0.5279160000000  0.5225000000000  0.5352520000000 1.0
C      1  0.5243450000000  0.4650230000000  0.4621750000000 1.0
C      1  0.5411610000000  0.4848490000000  0.4757150000000 1.0
END
