TITL C-221364-4907-1 91.6236016996998 125000 -924.244901494559 0 0 132 (C1) n - 1
REM
REM in /rds/project/t2_vol4/rds-t2-cs072/BORA/CARBON/from-Arr/AIRSS/Generating-Clusters/GAP-ML-2020/Only-C1/SD-CG/HFTN-CG
REM
REM
REM
REM
REM
REM ./C.cell (11c1c37f851c82e70ff6c80c92926a4b)
REM AIRSS Version 0.9.1 bugfix July 2018 build 013d7b7c2542+ Fri, 06 Jul 2018 19:26:36 +0100
REM compiler GCC version 9.3.0
REM options -cpp -mtune=generic -march=x86-64 -g -O0
REM seed -1971371953 -1212841291 117720835 -1339771577 -1087017880 1397652766 -866495497 -733816327 692607744 -953825523 -1796744137 -1615630549 665442303 -738898951 1461983530 -1365984641 1627096636 443038865 2030455050 469237872 -482772001 -1570650883 1880121573 895221963 1166832274 252446375 -389508447 703758550 919721350 1480597700 -647189934 -513533368 -1527397977
REM
CELL 1.54180   50.00000   50.00000   50.00000   90.00000   90.00000   90.00000
LATT -1
SFAC C  
C      1  0.3942420000000  0.4900030000000  0.4882690000000 1.0
C      1  0.4687940000000  0.4942470000000  0.4265570000000 1.0
C      1  0.4777050000000  0.5723860000000  0.5034200000000 1.0
C      1  0.4025280000000  0.4634740000000  0.4806670000000 1.0
C      1  0.5208110000000  0.5596320000000  0.4348040000000 1.0
C      1  0.5124380000000  0.5159320000000  0.4525930000000 1.0
C      1  0.4630000000000  0.5209340000000  0.4130950000000 1.0
C      1  0.5766910000000  0.4633680000000  0.4566470000000 1.0
C      1  0.5778060000000  0.4874690000000  0.5506930000000 1.0
C      1  0.4410550000000  0.4242870000000  0.4932000000000 1.0
C      1  0.4576230000000  0.4911390000000  0.4523210000000 1.0
C      1  0.5157330000000  0.5400260000000  0.5686270000000 1.0
C      1  0.5665270000000  0.5368460000000  0.5504610000000 1.0
C      1  0.4955060000000  0.5165710000000  0.5670620000000 1.0
C      1  0.5920070000000  0.5354460000000  0.4688190000000 1.0
C      1  0.5154570000000  0.4062900000000  0.5391050000000 1.0
C      1  0.4910480000000  0.5225330000000  0.5181780000000 1.0
C      1  0.5877160000000  0.4658430000000  0.5360680000000 1.0
C      1  0.5334450000000  0.5333980000000  0.4364940000000 1.0
C      1  0.4648590000000  0.5811650000000  0.4759880000000 1.0
C      1  0.4666610000000  0.5313680000000  0.4793860000000 1.0
C      1  0.4733910000000  0.5646060000000  0.5752360000000 1.0
C      1  0.4459370000000  0.4693260000000  0.4910020000000 1.0
C      1  0.5917960000000  0.4861270000000  0.4673530000000 1.0
C      1  0.4566430000000  0.4244820000000  0.5413700000000 1.0
C      1  0.5031620000000  0.5653620000000  0.5684580000000 1.0
C      1  0.4752250000000  0.4638490000000  0.4996570000000 1.0
C      1  0.5694920000000  0.5601670000000  0.5341660000000 1.0
C      1  0.4878570000000  0.5415780000000  0.4958610000000 1.0
C      1  0.4784450000000  0.4471580000000  0.4352060000000 1.0
C      1  0.5001030000000  0.4814770000000  0.6051910000000 1.0
C      1  0.4653900000000  0.5144540000000  0.5543310000000 1.0
C      1  0.5895120000000  0.4884100000000  0.4963970000000 1.0
C      1  0.5723900000000  0.5541370000000  0.4597550000000 1.0
C      1  0.4546240000000  0.4233140000000  0.4680020000000 1.0
C      1  0.4420630000000  0.5345780000000  0.5570140000000 1.0
C      1  0.4379860000000  0.5528760000000  0.5329730000000 1.0
C      1  0.4488380000000  0.4995280000000  0.4991010000000 1.0
C      1  0.4787590000000  0.4291050000000  0.5594170000000 1.0
C      1  0.5117540000000  0.5683610000000  0.4605750000000 1.0
C      1  0.5150140000000  0.4811290000000  0.4183510000000 1.0
C      1  0.4596280000000  0.4160230000000  0.5135300000000 1.0
C      1  0.5576350000000  0.4917100000000  0.5035450000000 1.0
C      1  0.5143720000000  0.4060220000000  0.5111550000000 1.0
C      1  0.4563110000000  0.5435290000000  0.5828760000000 1.0
C      1  0.4585410000000  0.4977450000000  0.5814780000000 1.0
C      1  0.5065180000000  0.4212610000000  0.5598520000000 1.0
C      1  0.5539360000000  0.5808820000000  0.5188940000000 1.0
C      1  0.4422040000000  0.5674660000000  0.4670680000000 1.0
C      1  0.4809380000000  0.4560290000000  0.5707710000000 1.0
C      1  0.4925810000000  0.4826580000000  0.4836950000000 1.0
C      1  0.4872770000000  0.4140180000000  0.4998560000000 1.0
C      1  0.5641010000000  0.4911120000000  0.4184740000000 1.0
C      1  0.4576660000000  0.5715690000000  0.5266390000000 1.0
C      1  0.4359460000000  0.5275050000000  0.4897360000000 1.0
C      1  0.4156270000000  0.4499880000000  0.5260400000000 1.0
C      1  0.5520270000000  0.5347220000000  0.4587980000000 1.0
C      1  0.4631090000000  0.5203890000000  0.5986010000000 1.0
C      1  0.4544190000000  0.5449910000000  0.4273950000000 1.0
C      1  0.5022930000000  0.5848280000000  0.5173010000000 1.0
C      1  0.5377660000000  0.4166920000000  0.4968750000000 1.0
C      1  0.5593040000000  0.4742390000000  0.5282320000000 1.0
C      1  0.4416170000000  0.4687110000000  0.4592320000000 1.0
C      1  0.4671270000000  0.5045400000000  0.5246740000000 1.0
C      1  0.5283050000000  0.5861540000000  0.5056290000000 1.0
C      1  0.4332910000000  0.4634230000000  0.5651590000000 1.0
C      1  0.4220980000000  0.5394730000000  0.5138870000000 1.0
C      1  0.5557290000000  0.4303500000000  0.5140350000000 1.0
C      1  0.4703950000000  0.5025420000000  0.4761990000000 1.0
C      1  0.5321860000000  0.5821490000000  0.4773160000000 1.0
C      1  0.4318430000000  0.5487440000000  0.4480410000000 1.0
C      1  0.4812790000000  0.4157160000000  0.4703700000000 1.0
C      1  0.5429390000000  0.4278400000000  0.4700170000000 1.0
C      1  0.4184750000000  0.5145660000000  0.5531660000000 1.0
C      1  0.5293170000000  0.4665330000000  0.4412280000000 1.0
C      1  0.4067980000000  0.5199340000000  0.5278200000000 1.0
C      1  0.5430190000000  0.4497390000000  0.5335140000000 1.0
C      1  0.5862010000000  0.5072470000000  0.4250930000000 1.0
C      1  0.5445720000000  0.4528340000000  0.5637630000000 1.0
C      1  0.5032320000000  0.4586320000000  0.5902880000000 1.0
C      1  0.5101660000000  0.5393970000000  0.4755130000000 1.0
C      1  0.4697030000000  0.5791900000000  0.5507740000000 1.0
C      1  0.5115670000000  0.4972660000000  0.5521070000000 1.0
C      1  0.5386400000000  0.4977890000000  0.4055530000000 1.0
C      1  0.4165250000000  0.4854450000000  0.5561540000000 1.0
C      1  0.5971850000000  0.5362090000000  0.4973250000000 1.0
C      1  0.5371480000000  0.5341040000000  0.4849140000000 1.0
C      1  0.5736530000000  0.5799570000000  0.4975490000000 1.0
C      1  0.4826270000000  0.5745610000000  0.4540120000000 1.0
C      1  0.4133430000000  0.4761800000000  0.4568940000000 1.0
C      1  0.5952660000000  0.5129050000000  0.5133140000000 1.0
C      1  0.5609580000000  0.5769440000000  0.4730400000000 1.0
C      1  0.4979590000000  0.5823310000000  0.5449840000000 1.0
C      1  0.5364620000000  0.4821700000000  0.4875710000000 1.0
C      1  0.5189890000000  0.4880610000000  0.4645480000000 1.0
C      1  0.5929260000000  0.4620010000000  0.5096800000000 1.0
C      1  0.5129680000000  0.4569530000000  0.5245110000000 1.0
C      1  0.4960260000000  0.4713660000000  0.5455260000000 1.0
C      1  0.5224840000000  0.4416550000000  0.5765330000000 1.0
C      1  0.4905820000000  0.5237470000000  0.4054490000000 1.0
C      1  0.5146200000000  0.4815390000000  0.5064610000000 1.0
C      1  0.4734230000000  0.4770830000000  0.5269330000000 1.0
C      1  0.5410230000000  0.5167230000000  0.5070930000000 1.0
C      1  0.4967850000000  0.4297930000000  0.4495590000000 1.0
C      1  0.5107700000000  0.5394190000000  0.3959350000000 1.0
C      1  0.5583540000000  0.4701820000000  0.4367560000000 1.0
C      1  0.4336240000000  0.4415730000000  0.5463770000000 1.0
C      1  0.4874960000000  0.5052040000000  0.5943840000000 1.0
C      1  0.3964110000000  0.4960980000000  0.5154920000000 1.0
C      1  0.4664720000000  0.5474520000000  0.4558680000000 1.0
C      1  0.5369530000000  0.5010240000000  0.5682940000000 1.0
C      1  0.5342770000000  0.5257070000000  0.4064880000000 1.0
C      1  0.5555370000000  0.4799180000000  0.5681560000000 1.0
C      1  0.5932250000000  0.5104680000000  0.4523520000000 1.0
C      1  0.4232380000000  0.4482120000000  0.4983520000000 1.0
C      1  0.5238390000000  0.4379720000000  0.4509500000000 1.0
C      1  0.4041230000000  0.4751210000000  0.5331180000000 1.0
C      1  0.4936400000000  0.4420320000000  0.5072940000000 1.0
C      1  0.4847260000000  0.4699180000000  0.4193770000000 1.0
C      1  0.5776660000000  0.4407260000000  0.4984770000000 1.0
C      1  0.4975340000000  0.5063260000000  0.4279610000000 1.0
C      1  0.5692900000000  0.4405810000000  0.4716140000000 1.0
C      1  0.4561350000000  0.4696210000000  0.5791970000000 1.0
C      1  0.4045970000000  0.5036270000000  0.4632330000000 1.0
C      1  0.4530030000000  0.4443680000000  0.4486110000000 1.0
C      1  0.5155430000000  0.5077340000000  0.5224750000000 1.0
C      1  0.4199420000000  0.5278560000000  0.4644180000000 1.0
C      1  0.5884980000000  0.5593880000000  0.5113100000000 1.0
C      1  0.5830790000000  0.5142060000000  0.5403030000000 1.0
C      1  0.4763550000000  0.5681550000000  0.4250560000000 1.0
C      1  0.5015910000000  0.5597010000000  0.4145030000000 1.0
C      1  0.5423970000000  0.5291640000000  0.5655410000000 1.0
END
