TITL C-224012-2529-4 51.2180122233402 125000 -346.71814486263 0 0 51 (C1) n - 1
REM
REM in /rds/project/t2_vol4/rds-t2-cs072/BORA/CARBON/from-Arr/AIRSS/Generating-Clusters/GAP-ML-2020/Only-C1/SD-CG/HFTN-CG
REM
REM
REM
REM
REM
REM ./C.cell (11c1c37f851c82e70ff6c80c92926a4b)
REM AIRSS Version 0.9.1 bugfix July 2018 build 013d7b7c2542+ Fri, 06 Jul 2018 19:26:36 +0100
REM compiler GCC version 9.3.0
REM options -cpp -mtune=generic -march=x86-64 -g -O0
REM seed 1459186168 1806188092 -1305428945 51205325 -482120272 -728515016 -978839759 -1968744892 442061766 311480578 -773098810 -1273573566 -1187659712 2008547308 2107403368 1733169585 850800260 -1567862731 -60124009 385711990 -1800223957 -2066454337 -175907522 1737294318 1208859144 1085479139 814692080 670754309 -505415712 -1976285899 1330854788 -635473890 -346394944
REM
CELL 1.54180   50.00000   50.00000   50.00000   90.00000   90.00000   90.00000
LATT -1
SFAC C  
C      1  0.5079700000000  0.5596130000000  0.4801640000000 1.0
C      1  0.5293290000000  0.4549950000000  0.5120430000000 1.0
C      1  0.4848420000000  0.4432300000000  0.4855650000000 1.0
C      1  0.4375000000000  0.4691100000000  0.5144470000000 1.0
C      1  0.5207330000000  0.5129770000000  0.5150880000000 1.0
C      1  0.4943100000000  0.4805230000000  0.5684880000000 1.0
C      1  0.4386810000000  0.5092090000000  0.5058680000000 1.0
C      1  0.4687510000000  0.5241990000000  0.5408750000000 1.0
C      1  0.4553970000000  0.4801600000000  0.4655060000000 1.0
C      1  0.4682600000000  0.5020360000000  0.4498650000000 1.0
C      1  0.4818010000000  0.5131720000000  0.4912850000000 1.0
C      1  0.5529040000000  0.5304160000000  0.4687260000000 1.0
C      1  0.5076150000000  0.5285650000000  0.4479820000000 1.0
C      1  0.4654300000000  0.5556290000000  0.4993160000000 1.0
C      1  0.5146040000000  0.5411790000000  0.5269570000000 1.0
C      1  0.5485370000000  0.4771040000000  0.5085270000000 1.0
C      1  0.4880970000000  0.4901410000000  0.4330440000000 1.0
C      1  0.4967700000000  0.4549960000000  0.5521320000000 1.0
C      1  0.4547870000000  0.4478180000000  0.5247770000000 1.0
C      1  0.4699660000000  0.4336550000000  0.5060330000000 1.0
C      1  0.5068900000000  0.5651630000000  0.5097820000000 1.0
C      1  0.4406300000000  0.4845240000000  0.4892820000000 1.0
C      1  0.5346550000000  0.4651520000000  0.4346460000000 1.0
C      1  0.5121680000000  0.4530880000000  0.4888750000000 1.0
C      1  0.5130200000000  0.5058600000000  0.4329330000000 1.0
C      1  0.4797560000000  0.5728310000000  0.5146820000000 1.0
C      1  0.4672130000000  0.4538930000000  0.5497980000000 1.0
C      1  0.5700670000000  0.5364400000000  0.4906420000000 1.0
C      1  0.5381310000000  0.4926910000000  0.4373500000000 1.0
C      1  0.4619430000000  0.5276290000000  0.5105590000000 1.0
C      1  0.5366500000000  0.5371360000000  0.5487960000000 1.0
C      1  0.4728460000000  0.4569530000000  0.4619100000000 1.0
C      1  0.5155300000000  0.4493400000000  0.5343700000000 1.0
C      1  0.4900660000000  0.4622640000000  0.4393940000000 1.0
C      1  0.5587850000000  0.5227300000000  0.5361710000000 1.0
C      1  0.5120380000000  0.4995780000000  0.5740460000000 1.0
C      1  0.5261690000000  0.5436610000000  0.4635120000000 1.0
C      1  0.5168190000000  0.4795990000000  0.4790570000000 1.0
C      1  0.5529840000000  0.5021260000000  0.4608990000000 1.0
C      1  0.4528830000000  0.5014610000000  0.5507150000000 1.0
C      1  0.4347780000000  0.4933930000000  0.5298940000000 1.0
C      1  0.4934310000000  0.5345110000000  0.5487380000000 1.0
C      1  0.5439440000000  0.5001100000000  0.5246270000000 1.0
C      1  0.5143110000000  0.4497090000000  0.4325200000000 1.0
C      1  0.5051460000000  0.4990770000000  0.4975680000000 1.0
C      1  0.5741510000000  0.5349060000000  0.5157840000000 1.0
C      1  0.4804400000000  0.5263130000000  0.4619690000000 1.0
C      1  0.4803430000000  0.5530850000000  0.4741740000000 1.0
C      1  0.4652080000000  0.4794230000000  0.5638930000000 1.0
C      1  0.5163940000000  0.5247690000000  0.5653590000000 1.0
C      1  0.5463270000000  0.4838600000000  0.4813660000000 1.0
END
