TITL C-221362-5076-7 127.842666212234 125000 -155.894869487527 0 0 24 (C1) n - 1
REM
REM in /rds/project/t2_vol4/rds-t2-cs072/BORA/CARBON/from-Arr/AIRSS/Generating-Clusters/GAP-ML-2020/Only-C1/SD-CG/HFTN-CG
REM
REM
REM
REM
REM
REM ./C.cell (11c1c37f851c82e70ff6c80c92926a4b)
REM AIRSS Version 0.9.1 bugfix July 2018 build 013d7b7c2542+ Fri, 06 Jul 2018 19:26:36 +0100
REM compiler GCC version 9.3.0
REM options -cpp -mtune=generic -march=x86-64 -g -O0
REM seed 928114192 -907550173 -808775564 1182418868 -1626854545 1413042986 -1246626638 1851837761 -251384713 -2115231367 -575396206 -622884880 -1626444657 -1464688043 -763735731 904221721 654495389 578463612 -143818776 789668002 -1679678826 -1633920619 -1515111463 1922434291 -1548851723 -967253128 -897683455 -57082132 621388220 -412885920 -1082795885 491405612 968822112
REM
CELL 1.54180   50.00000   50.00000   50.00000   90.00000   90.00000   90.00000
LATT -1
SFAC C  
C      1  0.5533730000000  0.5013630000000  0.4646110000000 1.0
C      1  0.4988950000000  0.5274770000000  0.5376120000000 1.0
C      1  0.4840380000000  0.5438650000000  0.4956740000000 1.0
C      1  0.4889730000000  0.5075520000000  0.5542650000000 1.0
C      1  0.5524100000000  0.5160040000000  0.4862030000000 1.0
C      1  0.4813710000000  0.5437440000000  0.5220720000000 1.0
C      1  0.4524640000000  0.4871130000000  0.4827470000000 1.0
C      1  0.5405050000000  0.5047820000000  0.5420440000000 1.0
C      1  0.5321670000000  0.4863640000000  0.5574930000000 1.0
C      1  0.4992760000000  0.4505930000000  0.4852140000000 1.0
C      1  0.4862170000000  0.4583420000000  0.5098750000000 1.0
C      1  0.4951330000000  0.5168400000000  0.4661560000000 1.0
C      1  0.4694330000000  0.5259990000000  0.4758450000000 1.0
C      1  0.5092560000000  0.5350420000000  0.4834420000000 1.0
C      1  0.5045200000000  0.4917890000000  0.4567220000000 1.0
C      1  0.4638070000000  0.4661870000000  0.4691780000000 1.0
C      1  0.4460570000000  0.5136790000000  0.4801100000000 1.0
C      1  0.4915870000000  0.4675900000000  0.4646460000000 1.0
C      1  0.5322340000000  0.4907920000000  0.4542400000000 1.0
C      1  0.5263970000000  0.5240190000000  0.5279260000000 1.0
C      1  0.5036200000000  0.4833830000000  0.5513200000000 1.0
C      1  0.5316450000000  0.5284310000000  0.5000790000000 1.0
C      1  0.4601330000000  0.4652570000000  0.4983160000000 1.0
C      1  0.4964880000000  0.4637940000000  0.5342120000000 1.0
END
