TITL C-22851-8313-2 76.1900772888654 125000 -886.250187786824 0 0 126 (C1) n - 1
REM
REM in /rds/project/t2_vol4/rds-t2-cs072/BORA/CARBON/from-Arr/AIRSS/Generating-Clusters/GAP-ML-2020/Only-C1/SD-CG/HFTN-CG
REM
REM
REM
REM
REM
REM ./C.cell (11c1c37f851c82e70ff6c80c92926a4b)
REM AIRSS Version 0.9.1 bugfix July 2018 build 013d7b7c2542+ Fri, 06 Jul 2018 19:26:36 +0100
REM compiler GCC version 9.3.0
REM options -cpp -mtune=generic -march=x86-64 -g -O0
REM seed 1512263055 -1593032017 1877578007 -316383708 -1585012006 -1441729981 -346742631 1913319320 -327475067 1153459833 617643247 -15362015 -1426588973 -720697572 1117519812 -1196481848 -1504483838 -1458673983 1650197391 1201642730 556409170 -2103378760 1031111547 2052716791 -1620278038 1227030392 -951062463 -1142310516 1273484596 760095758 -2092557560 -1020242834 -2097890791
REM
CELL 1.54180   50.00000   50.00000   50.00000   90.00000   90.00000   90.00000
LATT -1
SFAC C  
C      1  0.5293050000000  0.4901270000000  0.4185060000000 1.0
C      1  0.4876100000000  0.4763760000000  0.4738290000000 1.0
C      1  0.4788810000000  0.5677990000000  0.5726600000000 1.0
C      1  0.4648420000000  0.4807600000000  0.4885360000000 1.0
C      1  0.5070480000000  0.5954240000000  0.5454200000000 1.0
C      1  0.5212250000000  0.4836570000000  0.5131660000000 1.0
C      1  0.5491530000000  0.4708340000000  0.4282560000000 1.0
C      1  0.4218510000000  0.4394190000000  0.5164520000000 1.0
C      1  0.4266060000000  0.5092170000000  0.5378080000000 1.0
C      1  0.4925790000000  0.4260250000000  0.4829190000000 1.0
C      1  0.5383740000000  0.4977840000000  0.4962690000000 1.0
C      1  0.4790310000000  0.5222200000000  0.4579550000000 1.0
C      1  0.5149630000000  0.5668980000000  0.4331550000000 1.0
C      1  0.5319600000000  0.5808790000000  0.5463290000000 1.0
C      1  0.5324600000000  0.5770720000000  0.5160770000000 1.0
C      1  0.5785890000000  0.5055100000000  0.4508190000000 1.0
C      1  0.4641010000000  0.4824920000000  0.5580240000000 1.0
C      1  0.4641730000000  0.4623950000000  0.5093230000000 1.0
C      1  0.5684140000000  0.5499640000000  0.4558240000000 1.0
C      1  0.4795770000000  0.5031720000000  0.4143880000000 1.0
C      1  0.5082270000000  0.4391510000000  0.5614490000000 1.0
C      1  0.4557370000000  0.5259240000000  0.5065290000000 1.0
C      1  0.4797130000000  0.4717950000000  0.5817730000000 1.0
C      1  0.5757310000000  0.4596630000000  0.4757360000000 1.0
C      1  0.5544270000000  0.4397340000000  0.4787400000000 1.0
C      1  0.5047260000000  0.4537960000000  0.4807980000000 1.0
C      1  0.4348310000000  0.5020200000000  0.4406700000000 1.0
C      1  0.4231730000000  0.5683710000000  0.4879060000000 1.0
C      1  0.5488120000000  0.5374420000000  0.5604490000000 1.0
C      1  0.5556920000000  0.5737170000000  0.4964030000000 1.0
C      1  0.5284130000000  0.5576910000000  0.5628930000000 1.0
C      1  0.5009360000000  0.4825600000000  0.4137280000000 1.0
C      1  0.5728850000000  0.5477500000000  0.5495590000000 1.0
C      1  0.4918910000000  0.4543380000000  0.4190680000000 1.0
C      1  0.5298230000000  0.5207470000000  0.4829060000000 1.0
C      1  0.4814940000000  0.5918380000000  0.5059150000000 1.0
C      1  0.4146220000000  0.5477800000000  0.5039630000000 1.0
C      1  0.4177260000000  0.4871670000000  0.5228780000000 1.0
C      1  0.5181470000000  0.5493360000000  0.5178560000000 1.0
C      1  0.4646880000000  0.5522030000000  0.4936910000000 1.0
C      1  0.4485800000000  0.5163010000000  0.4611570000000 1.0
C      1  0.4179880000000  0.4680850000000  0.4757550000000 1.0
C      1  0.5495650000000  0.4238090000000  0.4539880000000 1.0
C      1  0.5774810000000  0.5548770000000  0.5015380000000 1.0
C      1  0.5218700000000  0.4180970000000  0.5465640000000 1.0
C      1  0.4879990000000  0.5780810000000  0.4353230000000 1.0
C      1  0.4784720000000  0.4233610000000  0.5292180000000 1.0
C      1  0.5942680000000  0.4990980000000  0.4978750000000 1.0
C      1  0.5479350000000  0.5111810000000  0.5758750000000 1.0
C      1  0.5071530000000  0.5965200000000  0.5166490000000 1.0
C      1  0.4875260000000  0.5423710000000  0.4781350000000 1.0
C      1  0.5134130000000  0.5392650000000  0.4255410000000 1.0
C      1  0.5156840000000  0.4549050000000  0.5091310000000 1.0
C      1  0.4538140000000  0.4928150000000  0.4205780000000 1.0
C      1  0.4841260000000  0.4145550000000  0.4575100000000 1.0
C      1  0.5409920000000  0.4827380000000  0.4680810000000 1.0
C      1  0.5028380000000  0.5213890000000  0.5701990000000 1.0
C      1  0.4608980000000  0.4306020000000  0.5521100000000 1.0
C      1  0.4962540000000  0.4987880000000  0.4604710000000 1.0
C      1  0.4807460000000  0.5219680000000  0.5226820000000 1.0
C      1  0.5005560000000  0.5492480000000  0.5644170000000 1.0
C      1  0.5122940000000  0.4356260000000  0.4254350000000 1.0
C      1  0.5277750000000  0.4071380000000  0.4603710000000 1.0
C      1  0.5141350000000  0.5095470000000  0.5455210000000 1.0
C      1  0.5212690000000  0.5052330000000  0.5848700000000 1.0
C      1  0.4539540000000  0.5534510000000  0.5661920000000 1.0
C      1  0.5382260000000  0.4310140000000  0.5034870000000 1.0
C      1  0.5240330000000  0.5054180000000  0.4573750000000 1.0
C      1  0.5097890000000  0.4786280000000  0.5856870000000 1.0
C      1  0.4242190000000  0.4421280000000  0.4876800000000 1.0
C      1  0.4851640000000  0.5308300000000  0.4277200000000 1.0
C      1  0.5850840000000  0.5420040000000  0.4774720000000 1.0
C      1  0.5320590000000  0.5295990000000  0.5356340000000 1.0
C      1  0.5667330000000  0.4791610000000  0.4525250000000 1.0
C      1  0.4454360000000  0.4663820000000  0.4289340000000 1.0
C      1  0.4687590000000  0.4307530000000  0.5001790000000 1.0
C      1  0.4969530000000  0.4483540000000  0.5327070000000 1.0
C      1  0.4187630000000  0.4611510000000  0.5339510000000 1.0
C      1  0.5373620000000  0.4458530000000  0.4362510000000 1.0
C      1  0.4694520000000  0.5571810000000  0.4306590000000 1.0
C      1  0.4476840000000  0.4289310000000  0.4784700000000 1.0
C      1  0.4865110000000  0.5922930000000  0.5631140000000 1.0
C      1  0.4601390000000  0.4274540000000  0.4521590000000 1.0
C      1  0.4824110000000  0.5978100000000  0.4543850000000 1.0
C      1  0.4265480000000  0.4755860000000  0.4495020000000 1.0
C      1  0.5338510000000  0.5179950000000  0.4304010000000 1.0
C      1  0.5871020000000  0.4712800000000  0.4989640000000 1.0
C      1  0.4321760000000  0.5356550000000  0.5247040000000 1.0
C      1  0.4122030000000  0.5456060000000  0.4760710000000 1.0
C      1  0.5114960000000  0.5387870000000  0.4916280000000 1.0
C      1  0.5532400000000  0.5728200000000  0.4663400000000 1.0
C      1  0.5796970000000  0.4661760000000  0.5269660000000 1.0
C      1  0.4453980000000  0.5047260000000  0.5581780000000 1.0
C      1  0.4798930000000  0.4417070000000  0.5721250000000 1.0
C      1  0.5807340000000  0.4911090000000  0.5411780000000 1.0
C      1  0.4785060000000  0.4736290000000  0.5329170000000 1.0
C      1  0.5623290000000  0.5265410000000  0.4396180000000 1.0
C      1  0.5896350000000  0.5117060000000  0.5231480000000 1.0
C      1  0.4701330000000  0.5670070000000  0.5191420000000 1.0
C      1  0.5013920000000  0.4040100000000  0.5318160000000 1.0
C      1  0.4351420000000  0.4383570000000  0.5419220000000 1.0
C      1  0.4912380000000  0.5486390000000  0.5313200000000 1.0
C      1  0.4470010000000  0.5593650000000  0.4479360000000 1.0
C      1  0.5615140000000  0.4485150000000  0.5413550000000 1.0
C      1  0.5626600000000  0.4900180000000  0.5638330000000 1.0
C      1  0.5098190000000  0.3917760000000  0.5092660000000 1.0
C      1  0.4206440000000  0.4898100000000  0.4946450000000 1.0
C      1  0.5458760000000  0.4268470000000  0.5317600000000 1.0
C      1  0.4530590000000  0.5105140000000  0.5998940000000 1.0
C      1  0.4301220000000  0.5375220000000  0.4548090000000 1.0
C      1  0.5066900000000  0.4122560000000  0.4412910000000 1.0
C      1  0.5343530000000  0.5789520000000  0.4483550000000 1.0
C      1  0.4485120000000  0.5265770000000  0.5767500000000 1.0
C      1  0.4468060000000  0.5041310000000  0.4883610000000 1.0
C      1  0.5300110000000  0.4560730000000  0.4663370000000 1.0
C      1  0.4968610000000  0.4968550000000  0.5261830000000 1.0
C      1  0.5918480000000  0.5145460000000  0.4745810000000 1.0
C      1  0.4471790000000  0.5570330000000  0.5390380000000 1.0
C      1  0.4498450000000  0.5722690000000  0.4748340000000 1.0
C      1  0.5513360000000  0.4639070000000  0.5634030000000 1.0
C      1  0.5190230000000  0.4102380000000  0.4898190000000 1.0
C      1  0.5254680000000  0.4589170000000  0.5741330000000 1.0
C      1  0.4707880000000  0.5941160000000  0.4786080000000 1.0
C      1  0.4651650000000  0.4468460000000  0.4299960000000 1.0
C      1  0.4625240000000  0.4867750000000  0.6010450000000 1.0
C      1  0.5833880000000  0.5397640000000  0.5256280000000 1.0
END
