TITL C-221355-4641-7 -125.778002462178 125000 -525.467457697938 0 0 77 (C1) n - 1
REM
REM in /rds/project/t2_vol4/rds-t2-cs072/BORA/CARBON/from-Arr/AIRSS/Generating-Clusters/GAP-ML-2020/Only-C1/SD-CG/HFTN-CG
REM
REM
REM
REM
REM
REM ./C.cell (11c1c37f851c82e70ff6c80c92926a4b)
REM AIRSS Version 0.9.1 bugfix July 2018 build 013d7b7c2542+ Fri, 06 Jul 2018 19:26:36 +0100
REM compiler GCC version 9.3.0
REM options -cpp -mtune=generic -march=x86-64 -g -O0
REM seed -691145527 169120879 1315475545 1447794591 -1389859882 -529733421 355200824 -1759208247 -1886099812 -349001739 1245547504 -1211695077 -1475970467 -463664519 1400741771 -2041534197 174136558 1832696136 691456876 -2125947554 -1228071359 -1039113950 -1193431235 1919308022 -1675503754 2031534832 -1077723022 1149735016 -180966341 288941317 1917773531 -850690868 -651079262
REM
CELL 1.54180   50.00000   50.00000   50.00000   90.00000   90.00000   90.00000
LATT -1
SFAC C  
C      1  0.5295710000000  0.5713270000000  0.5345690000000 1.0
C      1  0.4661860000000  0.4231130000000  0.5064050000000 1.0
C      1  0.4411640000000  0.5010070000000  0.5434580000000 1.0
C      1  0.5386770000000  0.4344510000000  0.5042800000000 1.0
C      1  0.4450400000000  0.4447750000000  0.5120000000000 1.0
C      1  0.5218280000000  0.4918710000000  0.4403370000000 1.0
C      1  0.4827890000000  0.4931740000000  0.5373110000000 1.0
C      1  0.4537210000000  0.5193130000000  0.5634710000000 1.0
C      1  0.5347300000000  0.5318590000000  0.5036580000000 1.0
C      1  0.5174650000000  0.4249260000000  0.5213980000000 1.0
C      1  0.4956800000000  0.5086000000000  0.5818770000000 1.0
C      1  0.4409720000000  0.5211330000000  0.4508530000000 1.0
C      1  0.5407370000000  0.4571200000000  0.5476530000000 1.0
C      1  0.4587810000000  0.5032350000000  0.5190440000000 1.0
C      1  0.4856790000000  0.5300990000000  0.4945310000000 1.0
C      1  0.5565160000000  0.4597150000000  0.4651440000000 1.0
C      1  0.4400350000000  0.4739600000000  0.5535840000000 1.0
C      1  0.5227960000000  0.5395180000000  0.4356050000000 1.0
C      1  0.5540120000000  0.4530500000000  0.5215210000000 1.0
C      1  0.4454620000000  0.4623390000000  0.4896120000000 1.0
C      1  0.5386050000000  0.5165520000000  0.4385260000000 1.0
C      1  0.4599570000000  0.4750090000000  0.4486170000000 1.0
C      1  0.4513340000000  0.4532230000000  0.4635070000000 1.0
C      1  0.5075830000000  0.4969610000000  0.4689200000000 1.0
C      1  0.4972900000000  0.5394160000000  0.5391390000000 1.0
C      1  0.5362470000000  0.4659490000000  0.4445010000000 1.0
C      1  0.5537550000000  0.5518100000000  0.4659740000000 1.0
C      1  0.4581020000000  0.5456640000000  0.5577270000000 1.0
C      1  0.5070460000000  0.5257220000000  0.5140880000000 1.0
C      1  0.5108190000000  0.4770180000000  0.5051530000000 1.0
C      1  0.5228310000000  0.5034910000000  0.5748960000000 1.0
C      1  0.5654920000000  0.4979390000000  0.5231520000000 1.0
C      1  0.4731030000000  0.5800320000000  0.5198470000000 1.0
C      1  0.5202980000000  0.4430500000000  0.4526330000000 1.0
C      1  0.4940930000000  0.5372040000000  0.4415160000000 1.0
C      1  0.4698950000000  0.4316290000000  0.4596890000000 1.0
C      1  0.5522860000000  0.5102210000000  0.5005640000000 1.0
C      1  0.4931820000000  0.5666610000000  0.4459500000000 1.0
C      1  0.4907020000000  0.4414890000000  0.5486140000000 1.0
C      1  0.4800400000000  0.5159870000000  0.4242690000000 1.0
C      1  0.5291000000000  0.4925060000000  0.4893550000000 1.0
C      1  0.4701580000000  0.5537320000000  0.5322230000000 1.0
C      1  0.5592540000000  0.5236800000000  0.4569730000000 1.0
C      1  0.4366370000000  0.4537070000000  0.5359090000000 1.0
C      1  0.4520950000000  0.5194890000000  0.4248640000000 1.0
C      1  0.5446790000000  0.5552590000000  0.4927290000000 1.0
C      1  0.4609520000000  0.4741540000000  0.5748440000000 1.0
C      1  0.5554990000000  0.5034670000000  0.5490920000000 1.0
C      1  0.5406480000000  0.4822470000000  0.5627540000000 1.0
C      1  0.4872490000000  0.5184370000000  0.4678330000000 1.0
C      1  0.4598990000000  0.4879970000000  0.4924690000000 1.0
C      1  0.4693780000000  0.4141030000000  0.4803850000000 1.0
C      1  0.4270130000000  0.5380930000000  0.4687070000000 1.0
C      1  0.5319530000000  0.5767120000000  0.5067110000000 1.0
C      1  0.4368290000000  0.5382490000000  0.4921440000000 1.0
C      1  0.4598890000000  0.5016790000000  0.4649760000000 1.0
C      1  0.4899210000000  0.4767590000000  0.4856470000000 1.0
C      1  0.5195430000000  0.4383940000000  0.5471950000000 1.0
C      1  0.4600500000000  0.5322240000000  0.5094270000000 1.0
C      1  0.5706780000000  0.4726490000000  0.5103620000000 1.0
C      1  0.5124650000000  0.5788570000000  0.4605950000000 1.0
C      1  0.4677690000000  0.4999510000000  0.5853380000000 1.0
C      1  0.4821620000000  0.4678150000000  0.4332310000000 1.0
C      1  0.5396430000000  0.4381740000000  0.4755810000000 1.0
C      1  0.5721630000000  0.4770210000000  0.4810230000000 1.0
C      1  0.5230820000000  0.5500020000000  0.5505360000000 1.0
C      1  0.4869560000000  0.5929880000000  0.5031760000000 1.0
C      1  0.4847810000000  0.5176920000000  0.5556590000000 1.0
C      1  0.5684150000000  0.5054420000000  0.4761830000000 1.0
C      1  0.4880280000000  0.4249180000000  0.5242550000000 1.0
C      1  0.5372910000000  0.5245130000000  0.5601630000000 1.0
C      1  0.4928160000000  0.4428230000000  0.4444320000000 1.0
C      1  0.5065030000000  0.4968060000000  0.5230570000000 1.0
C      1  0.4960830000000  0.4913970000000  0.4249450000000 1.0
C      1  0.5337630000000  0.5624710000000  0.4494330000000 1.0
C      1  0.5114010000000  0.5884510000000  0.4889370000000 1.0
C      1  0.4807580000000  0.4675270000000  0.5552670000000 1.0
END
