TITL C-22831-2195-5 -0.0792078967262563 125000 -240.36016778386 0 0 37 (C1) n - 1
REM
REM in /rds/project/t2_vol4/rds-t2-cs072/BORA/CARBON/from-Arr/AIRSS/Generating-Clusters/GAP-ML-2020/Only-C1/SD-CG/HFTN-CG
REM
REM
REM
REM
REM
REM ./C.cell (11c1c37f851c82e70ff6c80c92926a4b)
REM AIRSS Version 0.9.1 bugfix July 2018 build 013d7b7c2542+ Fri, 06 Jul 2018 19:26:36 +0100
REM compiler GCC version 9.3.0
REM options -cpp -mtune=generic -march=x86-64 -g -O0
REM seed 168630544 574922495 -1538934254 1533907697 -1842562025 -1172565375 -910730638 -1022792198 1394049540 2074822262 277401577 -2066191466 -1145788108 -124354991 -271488738 310532423 -2108257881 679354551 1576131201 1868306051 -782292096 198604715 -1718740645 -1210777309 -2035886892 508442466 -1304011361 -2062699931 351832258 110908799 683948672 -1202096416 -301579462
REM
CELL 1.54180   50.00000   50.00000   50.00000   90.00000   90.00000   90.00000
LATT -1
SFAC C  
C      1  0.4533970000000  0.5181450000000  0.4965910000000 1.0
C      1  0.5481450000000  0.4533430000000  0.4769680000000 1.0
C      1  0.5385670000000  0.5168910000000  0.5393130000000 1.0
C      1  0.4999230000000  0.5252240000000  0.5072660000000 1.0
C      1  0.5143240000000  0.5534570000000  0.5117870000000 1.0
C      1  0.4539460000000  0.5061860000000  0.5223470000000 1.0
C      1  0.4694020000000  0.4434340000000  0.4769210000000 1.0
C      1  0.5377020000000  0.5372240000000  0.5183330000000 1.0
C      1  0.4933250000000  0.5103050000000  0.5337490000000 1.0
C      1  0.4795520000000  0.4642320000000  0.4567310000000 1.0
C      1  0.5109220000000  0.5026480000000  0.4608850000000 1.0
C      1  0.5084820000000  0.5584600000000  0.4824120000000 1.0
C      1  0.5453750000000  0.5206000000000  0.4968340000000 1.0
C      1  0.4438840000000  0.4576840000000  0.4758760000000 1.0
C      1  0.4848620000000  0.4470510000000  0.5003430000000 1.0
C      1  0.5452910000000  0.4726100000000  0.4972120000000 1.0
C      1  0.4684100000000  0.5255940000000  0.5402990000000 1.0
C      1  0.4943670000000  0.4361760000000  0.5235830000000 1.0
C      1  0.5072130000000  0.4526280000000  0.5398630000000 1.0
C      1  0.5163260000000  0.5008000000000  0.5468870000000 1.0
C      1  0.4703070000000  0.5408160000000  0.4997860000000 1.0
C      1  0.4987820000000  0.5190010000000  0.4425600000000 1.0
C      1  0.4907250000000  0.4749490000000  0.5027230000000 1.0
C      1  0.4833490000000  0.5494600000000  0.4753570000000 1.0
C      1  0.5255260000000  0.4558850000000  0.4638920000000 1.0
C      1  0.5603930000000  0.4965690000000  0.5060410000000 1.0
C      1  0.5614370000000  0.5016640000000  0.5328180000000 1.0
C      1  0.4563070000000  0.4807410000000  0.4640560000000 1.0
C      1  0.4953700000000  0.5640690000000  0.5299920000000 1.0
C      1  0.4760780000000  0.4886080000000  0.5217640000000 1.0
C      1  0.5187680000000  0.5101710000000  0.4885490000000 1.0
C      1  0.5181580000000  0.4843700000000  0.5024680000000 1.0
C      1  0.4576000000000  0.5082610000000  0.4703140000000 1.0
C      1  0.4711830000000  0.5511710000000  0.5280750000000 1.0
C      1  0.5056180000000  0.4734620000000  0.4564510000000 1.0
C      1  0.4782130000000  0.5261580000000  0.4584810000000 1.0
C      1  0.5187710000000  0.4719520000000  0.5524750000000 1.0
END
