TITL C-22840-8289-2 13.9534021690826 125000 -258.164539313114 0 0 39 (C1) n - 1
REM
REM in /rds/project/t2_vol4/rds-t2-cs072/BORA/CARBON/from-Arr/AIRSS/Generating-Clusters/GAP-ML-2020/Only-C1/SD-CG/HFTN-CG
REM
REM
REM
REM
REM
REM ./C.cell (11c1c37f851c82e70ff6c80c92926a4b)
REM AIRSS Version 0.9.1 bugfix July 2018 build 013d7b7c2542+ Fri, 06 Jul 2018 19:26:36 +0100
REM compiler GCC version 9.3.0
REM options -cpp -mtune=generic -march=x86-64 -g -O0
REM seed -1103618253 -1145708922 -282441811 -801472511 263044710 2077090497 162034726 -2111962726 -1287704144 -1665311914 1667809570 1094807469 -1116988332 -1822712173 -21338857 -1630598273 497973869 -593117088 1953771045 -814609340 481029996 1946481983 120804153 1203097530 239867078 -710097912 178724011 701590269 1634203852 -404169877 1493359858 -1149205797 1072547126
REM
CELL 1.54180   50.00000   50.00000   50.00000   90.00000   90.00000   90.00000
LATT -1
SFAC C  
C      1  0.5102660000000  0.5576200000000  0.5126280000000 1.0
C      1  0.5073130000000  0.5440700000000  0.4729750000000 1.0
C      1  0.5074890000000  0.5453170000000  0.4445320000000 1.0
C      1  0.4488030000000  0.5062250000000  0.4996140000000 1.0
C      1  0.5084650000000  0.5344510000000  0.5284380000000 1.0
C      1  0.5565410000000  0.4945850000000  0.5195060000000 1.0
C      1  0.5177290000000  0.4574310000000  0.5435060000000 1.0
C      1  0.4571750000000  0.4707550000000  0.4736460000000 1.0
C      1  0.5293010000000  0.5235310000000  0.5435490000000 1.0
C      1  0.4777670000000  0.5121880000000  0.5279610000000 1.0
C      1  0.4465850000000  0.4818970000000  0.4508420000000 1.0
C      1  0.4810960000000  0.4436080000000  0.5187840000000 1.0
C      1  0.5031820000000  0.4912690000000  0.4675920000000 1.0
C      1  0.4910560000000  0.4679040000000  0.5041880000000 1.0
C      1  0.5517450000000  0.5216160000000  0.5257510000000 1.0
C      1  0.4663990000000  0.5441770000000  0.4955530000000 1.0
C      1  0.4949040000000  0.5162760000000  0.4824840000000 1.0
C      1  0.5266070000000  0.4362710000000  0.5007620000000 1.0
C      1  0.4626910000000  0.5034850000000  0.4506640000000 1.0
C      1  0.5008470000000  0.4801790000000  0.5544930000000 1.0
C      1  0.5503050000000  0.5006750000000  0.4911390000000 1.0
C      1  0.4917200000000  0.5013000000000  0.4417080000000 1.0
C      1  0.4654000000000  0.5189300000000  0.4771700000000 1.0
C      1  0.5356770000000  0.4792880000000  0.5332480000000 1.0
C      1  0.5145400000000  0.4860060000000  0.5101810000000 1.0
C      1  0.5016650000000  0.5239140000000  0.4311530000000 1.0
C      1  0.5231930000000  0.4978070000000  0.5535960000000 1.0
C      1  0.4658000000000  0.4680400000000  0.5226060000000 1.0
C      1  0.5338010000000  0.4549950000000  0.4854590000000 1.0
C      1  0.5301060000000  0.5492030000000  0.4918340000000 1.0
C      1  0.4573430000000  0.5275510000000  0.5168950000000 1.0
C      1  0.5016110000000  0.5126540000000  0.5104380000000 1.0
C      1  0.5080550000000  0.4401860000000  0.5233590000000 1.0
C      1  0.4853720000000  0.4704690000000  0.4774940000000 1.0
C      1  0.4764980000000  0.4874320000000  0.5419330000000 1.0
C      1  0.4888190000000  0.5584240000000  0.4929940000000 1.0
C      1  0.4478490000000  0.4783000000000  0.5009760000000 1.0
C      1  0.5477400000000  0.5289530000000  0.4976930000000 1.0
C      1  0.5285440000000  0.4830190000000  0.4826560000000 1.0
END
