TITL C-22548-8190-4 -0.0289647692927719 125000 -247.516674734569 0 0 37 (C1) n - 1
REM
REM in /rds/project/t2_vol4/rds-t2-cs072/BORA/CARBON/from-Arr/AIRSS/Generating-Clusters/GAP-ML-2020/Only-C1/SD-CG/HFTN-CG
REM
REM
REM
REM
REM
REM ./C.cell (11c1c37f851c82e70ff6c80c92926a4b)
REM AIRSS Version 0.9.1 bugfix July 2018 build 013d7b7c2542+ Fri, 06 Jul 2018 19:26:36 +0100
REM compiler GCC version 9.3.0
REM options -cpp -mtune=generic -march=x86-64 -g -O0
REM seed 835009589 269671847 325071145 -1335703154 -574034834 -643988037 -529821288 -430942946 -975517559 1165879109 607322568 977939945 -330659180 860195519 1328293409 1513513994 -794626561 550963729 281452003 1171930675 711845386 -976807194 84659160 926201194 -850937533 -881241975 1303454968 -1425415340 854770553 -1736471425 -865062899 -1902030585 900253587
REM
CELL 1.54180   50.00000   50.00000   50.00000   90.00000   90.00000   90.00000
LATT -1
SFAC C  
C      1  0.5143150000000  0.4867370000000  0.5382130000000 1.0
C      1  0.5202210000000  0.4769920000000  0.4739450000000 1.0
C      1  0.4495320000000  0.5093990000000  0.4652230000000 1.0
C      1  0.4481510000000  0.5354190000000  0.4736220000000 1.0
C      1  0.4776410000000  0.4733730000000  0.4517800000000 1.0
C      1  0.4541120000000  0.5215200000000  0.5191910000000 1.0
C      1  0.5062650000000  0.5262760000000  0.4577050000000 1.0
C      1  0.5172480000000  0.4606190000000  0.5224920000000 1.0
C      1  0.4628600000000  0.4655480000000  0.4752490000000 1.0
C      1  0.4933730000000  0.5695930000000  0.4829840000000 1.0
C      1  0.5056610000000  0.4605900000000  0.4945190000000 1.0
C      1  0.4466900000000  0.4877030000000  0.4844140000000 1.0
C      1  0.5355710000000  0.5262810000000  0.5165010000000 1.0
C      1  0.5662350000000  0.4643650000000  0.5300210000000 1.0
C      1  0.4787870000000  0.4521730000000  0.4941550000000 1.0
C      1  0.4562400000000  0.5417000000000  0.4991570000000 1.0
C      1  0.5024720000000  0.5531560000000  0.4659820000000 1.0
C      1  0.4672380000000  0.4786210000000  0.5288250000000 1.0
C      1  0.4802620000000  0.5575900000000  0.5050750000000 1.0
C      1  0.4972660000000  0.4421700000000  0.5346570000000 1.0
C      1  0.4780670000000  0.5227690000000  0.5358210000000 1.0
C      1  0.5623000000000  0.4908080000000  0.5260860000000 1.0
C      1  0.5610360000000  0.4946980000000  0.4964840000000 1.0
C      1  0.5212510000000  0.5440990000000  0.5332630000000 1.0
C      1  0.5226950000000  0.5079110000000  0.4726910000000 1.0
C      1  0.5044780000000  0.4684420000000  0.4503890000000 1.0
C      1  0.4736150000000  0.4516560000000  0.5234370000000 1.0
C      1  0.4685950000000  0.5004170000000  0.4447750000000 1.0
C      1  0.5338780000000  0.5295940000000  0.5550060000000 1.0
C      1  0.4926210000000  0.5461490000000  0.5288740000000 1.0
C      1  0.5427100000000  0.5161450000000  0.4918600000000 1.0
C      1  0.5479230000000  0.4702180000000  0.4869070000000 1.0
C      1  0.5457100000000  0.4563280000000  0.5133840000000 1.0
C      1  0.4892470000000  0.5160330000000  0.4375990000000 1.0
C      1  0.4879770000000  0.4963080000000  0.5390220000000 1.0
C      1  0.5375460000000  0.5041690000000  0.5387410000000 1.0
C      1  0.4502120000000  0.4944310000000  0.5119530000000 1.0
END
