TITL C-22829-2248-8 -7.54923491216308 125000 -289.488141928225 0 0 44 (C1) n - 1
REM
REM in /rds/project/t2_vol4/rds-t2-cs072/BORA/CARBON/from-Arr/AIRSS/Generating-Clusters/GAP-ML-2020/Only-C1/SD-CG/HFTN-CG
REM
REM
REM
REM
REM
REM ./C.cell (11c1c37f851c82e70ff6c80c92926a4b)
REM AIRSS Version 0.9.1 bugfix July 2018 build 013d7b7c2542+ Fri, 06 Jul 2018 19:26:36 +0100
REM compiler GCC version 9.3.0
REM options -cpp -mtune=generic -march=x86-64 -g -O0
REM seed 355927923 1474746008 -368110118 1071452514 788505312 1169852610 -1009140832 -1518673390 627642912 -321469825 684300206 -775838531 1127288246 1508637626 -1769482854 -1855874617 -1537365715 -1332566329 1192748871 524826024 -433995949 429881578 -738036198 321801384 1274589947 -1437573685 825105198 -1060500388 -29577913 253285079 -471824054 -1983953221 706067856
REM
CELL 1.54180   50.00000   50.00000   50.00000   90.00000   90.00000   90.00000
LATT -1
SFAC C  
C      1  0.5103250000000  0.5591540000000  0.4926120000000 1.0
C      1  0.5528890000000  0.4839590000000  0.5461200000000 1.0
C      1  0.4931730000000  0.4969710000000  0.4768670000000 1.0
C      1  0.5019670000000  0.4896010000000  0.5599710000000 1.0
C      1  0.5458850000000  0.4995550000000  0.4786840000000 1.0
C      1  0.4917650000000  0.5200830000000  0.4582400000000 1.0
C      1  0.4701480000000  0.4544210000000  0.5042570000000 1.0
C      1  0.5364440000000  0.4895720000000  0.4527930000000 1.0
C      1  0.4383370000000  0.4899220000000  0.4995750000000 1.0
C      1  0.5156220000000  0.4792480000000  0.4410470000000 1.0
C      1  0.4604490000000  0.5075950000000  0.5444400000000 1.0
C      1  0.5307000000000  0.4496190000000  0.5067840000000 1.0
C      1  0.4654390000000  0.5302570000000  0.4578200000000 1.0
C      1  0.5490820000000  0.5105240000000  0.5535760000000 1.0
C      1  0.5113650000000  0.4303200000000  0.5023400000000 1.0
C      1  0.4605740000000  0.4829230000000  0.4491010000000 1.0
C      1  0.4416760000000  0.5322260000000  0.4974590000000 1.0
C      1  0.5146240000000  0.5337450000000  0.4535010000000 1.0
C      1  0.4605710000000  0.5475200000000  0.4812550000000 1.0
C      1  0.4312820000000  0.5100100000000  0.4798560000000 1.0
C      1  0.5488850000000  0.5293870000000  0.4845690000000 1.0
C      1  0.4489770000000  0.4654800000000  0.4888780000000 1.0
C      1  0.4857640000000  0.4318180000000  0.5008400000000 1.0
C      1  0.5626440000000  0.4821010000000  0.4973590000000 1.0
C      1  0.5564500000000  0.4543810000000  0.4997940000000 1.0
C      1  0.4470750000000  0.4625850000000  0.4615200000000 1.0
C      1  0.5622440000000  0.5210800000000  0.5301730000000 1.0
C      1  0.4787920000000  0.5026890000000  0.5027300000000 1.0
C      1  0.5468460000000  0.5348090000000  0.5123070000000 1.0
C      1  0.4773610000000  0.4832160000000  0.5446290000000 1.0
C      1  0.5046010000000  0.5182610000000  0.5092290000000 1.0
C      1  0.4836440000000  0.5594470000000  0.4882900000000 1.0
C      1  0.5284350000000  0.5450210000000  0.4732300000000 1.0
C      1  0.5681940000000  0.4932910000000  0.5217900000000 1.0
C      1  0.5158140000000  0.4768490000000  0.5157460000000 1.0
C      1  0.4847440000000  0.4771560000000  0.5173850000000 1.0
C      1  0.4521160000000  0.5113860000000  0.5160870000000 1.0
C      1  0.4708690000000  0.5230160000000  0.5660020000000 1.0
C      1  0.4893610000000  0.4855890000000  0.4495880000000 1.0
C      1  0.5245240000000  0.4830410000000  0.5436540000000 1.0
C      1  0.4951620000000  0.5141730000000  0.5737800000000 1.0
C      1  0.4483270000000  0.5079530000000  0.4575770000000 1.0
C      1  0.5183430000000  0.4971990000000  0.4935350000000 1.0
C      1  0.5185110000000  0.5428480000000  0.5150130000000 1.0
END
