TITL C-22851-8313-12 -0.0727360320890903 125000 -780.131188542376 0 0 111 (C1) n - 1
REM
REM in /rds/project/t2_vol4/rds-t2-cs072/BORA/CARBON/from-Arr/AIRSS/Generating-Clusters/GAP-ML-2020/Only-C1/SD-CG/HFTN-CG
REM
REM
REM
REM
REM
REM ./C.cell (11c1c37f851c82e70ff6c80c92926a4b)
REM AIRSS Version 0.9.1 bugfix July 2018 build 013d7b7c2542+ Fri, 06 Jul 2018 19:26:36 +0100
REM compiler GCC version 9.3.0
REM options -cpp -mtune=generic -march=x86-64 -g -O0
REM seed 1406563130 -1523052802 1532127937 872446670 1189513156 -700683132 491317058 1449194192 1336525920 -367784897 1472745213 -949000778 190666976 -2051784482 -2113452037 1451900715 494212020 -598617833 69305721 -2034384789 -1603948740 -1920694839 372793924 -103975649 1004750708 70488166 493564041 1846762174 -1659382955 871603204 -1412672224 -1474935270 1754837469
REM
CELL 1.54180   50.00000   50.00000   50.00000   90.00000   90.00000   90.00000
LATT -1
SFAC C  
C      1  0.5346660000000  0.5573940000000  0.4397670000000 1.0
C      1  0.5432810000000  0.5117640000000  0.4317340000000 1.0
C      1  0.5778140000000  0.5503330000000  0.4788670000000 1.0
C      1  0.4342710000000  0.4659680000000  0.5505190000000 1.0
C      1  0.5728670000000  0.4743790000000  0.4879220000000 1.0
C      1  0.4190890000000  0.4877350000000  0.5396660000000 1.0
C      1  0.4246760000000  0.5523360000000  0.4844690000000 1.0
C      1  0.4585720000000  0.4226810000000  0.4680750000000 1.0
C      1  0.5077350000000  0.4946340000000  0.4517850000000 1.0
C      1  0.5109760000000  0.5566430000000  0.5590050000000 1.0
C      1  0.5000760000000  0.5217550000000  0.4632350000000 1.0
C      1  0.5127300000000  0.5402500000000  0.5093740000000 1.0
C      1  0.5036860000000  0.4843710000000  0.4213330000000 1.0
C      1  0.5375500000000  0.4376390000000  0.5357040000000 1.0
C      1  0.5534200000000  0.4381880000000  0.5121150000000 1.0
C      1  0.4261630000000  0.5150190000000  0.5476030000000 1.0
C      1  0.4589790000000  0.4635250000000  0.5679430000000 1.0
C      1  0.5402930000000  0.5091130000000  0.4849860000000 1.0
C      1  0.4627600000000  0.5589090000000  0.4467400000000 1.0
C      1  0.4963120000000  0.5202570000000  0.4925010000000 1.0
C      1  0.5833800000000  0.5501120000000  0.5079560000000 1.0
C      1  0.5122950000000  0.4166880000000  0.4851320000000 1.0
C      1  0.5042360000000  0.5792310000000  0.4667540000000 1.0
C      1  0.4631160000000  0.4170270000000  0.4957790000000 1.0
C      1  0.5015040000000  0.5297960000000  0.4145880000000 1.0
C      1  0.4156320000000  0.5326670000000  0.5264300000000 1.0
C      1  0.5895890000000  0.5305830000000  0.5278570000000 1.0
C      1  0.4569010000000  0.5338760000000  0.4337870000000 1.0
C      1  0.4372070000000  0.4409120000000  0.4647520000000 1.0
C      1  0.4438740000000  0.5134350000000  0.4487230000000 1.0
C      1  0.4407770000000  0.4302970000000  0.5109580000000 1.0
C      1  0.4813810000000  0.4646010000000  0.5090810000000 1.0
C      1  0.5866190000000  0.4783210000000  0.5320370000000 1.0
C      1  0.5472510000000  0.4969900000000  0.5261420000000 1.0
C      1  0.5059560000000  0.4291040000000  0.5699710000000 1.0
C      1  0.4126030000000  0.4706440000000  0.4896310000000 1.0
C      1  0.4590210000000  0.4347700000000  0.5598380000000 1.0
C      1  0.4665870000000  0.5301800000000  0.5178570000000 1.0
C      1  0.4526520000000  0.5162070000000  0.5588380000000 1.0
C      1  0.5050750000000  0.4550130000000  0.4258250000000 1.0
C      1  0.4166480000000  0.4807840000000  0.4626770000000 1.0
C      1  0.5215410000000  0.4179340000000  0.5471460000000 1.0
C      1  0.5559290000000  0.4699620000000  0.4621860000000 1.0
C      1  0.5879320000000  0.5040530000000  0.5170960000000 1.0
C      1  0.4748070000000  0.4902260000000  0.4174310000000 1.0
C      1  0.5014900000000  0.5077870000000  0.5446670000000 1.0
C      1  0.5541790000000  0.5368300000000  0.4381520000000 1.0
C      1  0.4622080000000  0.5778660000000  0.4918890000000 1.0
C      1  0.4784300000000  0.4249000000000  0.4486310000000 1.0
C      1  0.5844150000000  0.4816600000000  0.4620050000000 1.0
C      1  0.4825130000000  0.5527700000000  0.5605000000000 1.0
C      1  0.4673830000000  0.4876220000000  0.5156420000000 1.0
C      1  0.4268770000000  0.5558250000000  0.5129140000000 1.0
C      1  0.4619410000000  0.4986220000000  0.4695120000000 1.0
C      1  0.4476280000000  0.5655230000000  0.4707370000000 1.0
C      1  0.5430040000000  0.4443050000000  0.4619250000000 1.0
C      1  0.4722770000000  0.5075990000000  0.5367930000000 1.0
C      1  0.4779600000000  0.4460070000000  0.4290470000000 1.0
C      1  0.4107080000000  0.5271260000000  0.4798020000000 1.0
C      1  0.5004840000000  0.5690890000000  0.5164540000000 1.0
C      1  0.4901860000000  0.5816970000000  0.4914250000000 1.0
C      1  0.5847310000000  0.4857710000000  0.5582960000000 1.0
C      1  0.5615880000000  0.5685320000000  0.5133000000000 1.0
C      1  0.5151550000000  0.4950700000000  0.4988330000000 1.0
C      1  0.5352250000000  0.5380010000000  0.4910590000000 1.0
C      1  0.5445930000000  0.5194910000000  0.5429040000000 1.0
C      1  0.4052700000000  0.5160350000000  0.5056180000000 1.0
C      1  0.5481390000000  0.5720330000000  0.5377970000000 1.0
C      1  0.5858760000000  0.5069320000000  0.4555130000000 1.0
C      1  0.5321050000000  0.5725990000000  0.4638250000000 1.0
C      1  0.4815300000000  0.4178590000000  0.5586030000000 1.0
C      1  0.5062530000000  0.4575960000000  0.5673750000000 1.0
C      1  0.5513680000000  0.5634230000000  0.4849340000000 1.0
C      1  0.5386320000000  0.4947040000000  0.4572630000000 1.0
C      1  0.4960350000000  0.5070920000000  0.5753550000000 1.0
C      1  0.5234270000000  0.5190950000000  0.5845840000000 1.0
C      1  0.4956240000000  0.4177980000000  0.5314780000000 1.0
C      1  0.4903250000000  0.4108420000000  0.5035480000000 1.0
C      1  0.4850570000000  0.4805680000000  0.4653120000000 1.0
C      1  0.4747710000000  0.5194620000000  0.4171230000000 1.0
C      1  0.5202100000000  0.5082290000000  0.4151180000000 1.0
C      1  0.4982570000000  0.4724710000000  0.4884260000000 1.0
C      1  0.5442970000000  0.5073500000000  0.5717340000000 1.0
C      1  0.4519420000000  0.5698380000000  0.5175210000000 1.0
C      1  0.5313860000000  0.5469350000000  0.5767260000000 1.0
C      1  0.5173720000000  0.5315300000000  0.5379650000000 1.0
C      1  0.4262180000000  0.4453660000000  0.4906240000000 1.0
C      1  0.5749310000000  0.4580800000000  0.5115010000000 1.0
C      1  0.5777020000000  0.5331580000000  0.4558490000000 1.0
C      1  0.4677900000000  0.5105170000000  0.4960110000000 1.0
C      1  0.5384710000000  0.4302120000000  0.4874410000000 1.0
C      1  0.4855920000000  0.4765160000000  0.5746600000000 1.0
C      1  0.5730170000000  0.5323980000000  0.5522610000000 1.0
C      1  0.5633810000000  0.4986750000000  0.5011040000000 1.0
C      1  0.5182620000000  0.4610020000000  0.5398730000000 1.0
C      1  0.5731010000000  0.5073300000000  0.5704520000000 1.0
C      1  0.5198590000000  0.4886040000000  0.5277580000000 1.0
C      1  0.5085540000000  0.5539320000000  0.4280540000000 1.0
C      1  0.4753120000000  0.5590890000000  0.5318100000000 1.0
C      1  0.5048550000000  0.4208670000000  0.4576870000000 1.0
C      1  0.5217820000000  0.4392990000000  0.4435050000000 1.0
C      1  0.4177160000000  0.5092610000000  0.4590850000000 1.0
C      1  0.4080070000000  0.4884120000000  0.5121990000000 1.0
C      1  0.4397320000000  0.4390250000000  0.5386800000000 1.0
C      1  0.4897070000000  0.5683230000000  0.4443900000000 1.0
C      1  0.4941760000000  0.4490380000000  0.5285060000000 1.0
C      1  0.4350710000000  0.4632760000000  0.4470350000000 1.0
C      1  0.4735020000000  0.5287940000000  0.5732760000000 1.0
C      1  0.5557200000000  0.5545460000000  0.5601850000000 1.0
C      1  0.4581970000000  0.4673980000000  0.4276470000000 1.0
C      1  0.5200640000000  0.5760860000000  0.5382850000000 1.0
END
