TITL C-22867-8277-1 30.9844379440773 125000 -673.506088340765 0 0 98 (C1) n - 1
REM
REM in /rds/project/t2_vol4/rds-t2-cs072/BORA/CARBON/from-Arr/AIRSS/Generating-Clusters/GAP-ML-2020/Only-C1/SD-CG/HFTN-CG
REM
REM
REM
REM
REM
REM ./C.cell (11c1c37f851c82e70ff6c80c92926a4b)
REM AIRSS Version 0.9.1 bugfix July 2018 build 013d7b7c2542+ Fri, 06 Jul 2018 19:26:36 +0100
REM compiler GCC version 9.3.0
REM options -cpp -mtune=generic -march=x86-64 -g -O0
REM seed 967292141 -5342879 735771295 -1576714936 -1572210757 -1642945055 -1246341451 740690878 -479904232 517552528 -420459527 -1373923331 1244283740 101814089 2133098893 1896695041 1066038940 1911148696 -503459316 1258920347 2131744581 -503985163 -619696205 -1235770829 -1860652957 -268902599 -96023995 761834937 -310925052 -771959220 -1576171675 -2002012427 -742559361
REM
CELL 1.54180   50.00000   50.00000   50.00000   90.00000   90.00000   90.00000
LATT -1
SFAC C  
C      1  0.5222980000000  0.4799530000000  0.4631680000000 1.0
C      1  0.4669360000000  0.5617640000000  0.4570660000000 1.0
C      1  0.5426670000000  0.6019410000000  0.5126460000000 1.0
C      1  0.5859530000000  0.4489470000000  0.4846160000000 1.0
C      1  0.4195240000000  0.4795790000000  0.5226950000000 1.0
C      1  0.5212160000000  0.4592070000000  0.5143760000000 1.0
C      1  0.4711070000000  0.4840640000000  0.5030380000000 1.0
C      1  0.5275730000000  0.5444030000000  0.5681760000000 1.0
C      1  0.4827110000000  0.5697630000000  0.4813740000000 1.0
C      1  0.4213770000000  0.5264520000000  0.5256900000000 1.0
C      1  0.5070910000000  0.5122990000000  0.5242370000000 1.0
C      1  0.4287840000000  0.4980620000000  0.4425430000000 1.0
C      1  0.4659720000000  0.5805210000000  0.5035410000000 1.0
C      1  0.5026640000000  0.4969410000000  0.5802890000000 1.0
C      1  0.5180170000000  0.4813140000000  0.5566430000000 1.0
C      1  0.4596610000000  0.4280520000000  0.4861680000000 1.0
C      1  0.4815270000000  0.4460840000000  0.4196130000000 1.0
C      1  0.5053700000000  0.4362800000000  0.4296990000000 1.0
C      1  0.5597040000000  0.5052130000000  0.5431240000000 1.0
C      1  0.4454660000000  0.5397180000000  0.4617170000000 1.0
C      1  0.5283390000000  0.5549770000000  0.4708920000000 1.0
C      1  0.5027310000000  0.4661850000000  0.5377370000000 1.0
C      1  0.5803810000000  0.4926580000000  0.4987910000000 1.0
C      1  0.5252900000000  0.4813340000000  0.4924170000000 1.0
C      1  0.5010380000000  0.4622920000000  0.4686390000000 1.0
C      1  0.5370870000000  0.4257570000000  0.5617020000000 1.0
C      1  0.4739480000000  0.4925430000000  0.4298480000000 1.0
C      1  0.4827370000000  0.5544850000000  0.5436300000000 1.0
C      1  0.5223150000000  0.5594930000000  0.5224590000000 1.0
C      1  0.4981770000000  0.4213260000000  0.4554060000000 1.0
C      1  0.4786810000000  0.5375940000000  0.5692580000000 1.0
C      1  0.4086430000000  0.5040650000000  0.5129620000000 1.0
C      1  0.5428120000000  0.5191270000000  0.4253900000000 1.0
C      1  0.5005870000000  0.5531830000000  0.5684400000000 1.0
C      1  0.5633070000000  0.5340290000000  0.5356360000000 1.0
C      1  0.4805110000000  0.5009090000000  0.4600170000000 1.0
C      1  0.4093310000000  0.5114340000000  0.4847780000000 1.0
C      1  0.5160040000000  0.5201100000000  0.4276710000000 1.0
C      1  0.4652080000000  0.5740100000000  0.5310990000000 1.0
C      1  0.4783520000000  0.4299090000000  0.5088910000000 1.0
C      1  0.4277240000000  0.4531070000000  0.5127670000000 1.0
C      1  0.4858500000000  0.4889300000000  0.5274600000000 1.0
C      1  0.5694790000000  0.5281850000000  0.4660190000000 1.0
C      1  0.4882300000000  0.5397880000000  0.4907520000000 1.0
C      1  0.4146930000000  0.4905350000000  0.4667550000000 1.0
C      1  0.4262720000000  0.4633280000000  0.4656170000000 1.0
C      1  0.4217560000000  0.5380810000000  0.4808910000000 1.0
C      1  0.5664480000000  0.4811530000000  0.4520420000000 1.0
C      1  0.5220010000000  0.5828810000000  0.5062720000000 1.0
C      1  0.4620310000000  0.4981050000000  0.5469230000000 1.0
C      1  0.5521100000000  0.4569720000000  0.5224520000000 1.0
C      1  0.5610170000000  0.4440910000000  0.4945250000000 1.0
C      1  0.5674700000000  0.4842760000000  0.5231360000000 1.0
C      1  0.4727680000000  0.4173730000000  0.4645030000000 1.0
C      1  0.4343810000000  0.4447040000000  0.4863780000000 1.0
C      1  0.4839690000000  0.5567450000000  0.4369210000000 1.0
C      1  0.5119220000000  0.4350850000000  0.5717880000000 1.0
C      1  0.5422590000000  0.4409910000000  0.4730050000000 1.0
C      1  0.5631350000000  0.5877240000000  0.5055540000000 1.0
C      1  0.5565890000000  0.5535700000000  0.4718590000000 1.0
C      1  0.4416690000000  0.5230220000000  0.4373820000000 1.0
C      1  0.5272220000000  0.5064390000000  0.5450390000000 1.0
C      1  0.4456020000000  0.4496790000000  0.5361670000000 1.0
C      1  0.4550180000000  0.5068830000000  0.5006050000000 1.0
C      1  0.5703870000000  0.5635680000000  0.4954910000000 1.0
C      1  0.5809400000000  0.4747080000000  0.4764620000000 1.0
C      1  0.4427570000000  0.5695850000000  0.5144480000000 1.0
C      1  0.5221720000000  0.5084760000000  0.4996530000000 1.0
C      1  0.5413780000000  0.5512830000000  0.5435450000000 1.0
C      1  0.5142290000000  0.5282620000000  0.4777980000000 1.0
C      1  0.5058310000000  0.4348150000000  0.5029600000000 1.0
C      1  0.5803460000000  0.5194550000000  0.4914030000000 1.0
C      1  0.4770960000000  0.5096440000000  0.5706220000000 1.0
C      1  0.4699220000000  0.4352160000000  0.5362990000000 1.0
C      1  0.5305470000000  0.5167250000000  0.5754400000000 1.0
C      1  0.5116500000000  0.5765220000000  0.4803580000000 1.0
C      1  0.4245080000000  0.5489050000000  0.5074810000000 1.0
C      1  0.5436370000000  0.4612930000000  0.4491750000000 1.0
C      1  0.5140420000000  0.4345120000000  0.4757720000000 1.0
C      1  0.4639970000000  0.4661370000000  0.4245470000000 1.0
C      1  0.5618030000000  0.5095970000000  0.4448910000000 1.0
C      1  0.4903810000000  0.5344630000000  0.4227380000000 1.0
C      1  0.5097620000000  0.5077960000000  0.4554670000000 1.0
C      1  0.4664610000000  0.5223310000000  0.4789770000000 1.0
C      1  0.5060770000000  0.4764700000000  0.5997310000000 1.0
C      1  0.4795770000000  0.4773620000000  0.4774410000000 1.0
C      1  0.4660710000000  0.5181520000000  0.4215220000000 1.0
C      1  0.4394460000000  0.4711490000000  0.4398310000000 1.0
C      1  0.4982060000000  0.5410380000000  0.5206440000000 1.0
C      1  0.5219180000000  0.4569740000000  0.5889590000000 1.0
C      1  0.4482910000000  0.5166590000000  0.5278730000000 1.0
C      1  0.5317300000000  0.4447270000000  0.4279640000000 1.0
C      1  0.5762130000000  0.5400520000000  0.5109920000000 1.0
C      1  0.5508940000000  0.4473420000000  0.5514520000000 1.0
C      1  0.4919090000000  0.4428160000000  0.5523690000000 1.0
C      1  0.5423420000000  0.4705590000000  0.5705020000000 1.0
C      1  0.5544050000000  0.4983310000000  0.5726800000000 1.0
C      1  0.4403560000000  0.4774530000000  0.5436180000000 1.0
END
