TITL C-22844-2240-8 -0.325451301979053 125000 -631.340289893534 0 0 92 (C1) n - 1
REM
REM in /rds/project/t2_vol4/rds-t2-cs072/BORA/CARBON/from-Arr/AIRSS/Generating-Clusters/GAP-ML-2020/Only-C1/SD-CG/HFTN-CG
REM
REM
REM
REM
REM
REM ./C.cell (11c1c37f851c82e70ff6c80c92926a4b)
REM AIRSS Version 0.9.1 bugfix July 2018 build 013d7b7c2542+ Fri, 06 Jul 2018 19:26:36 +0100
REM compiler GCC version 9.3.0
REM options -cpp -mtune=generic -march=x86-64 -g -O0
REM seed 1497395537 166944963 808461544 -1073326633 1129034958 2063779083 1649083712 -2046190149 1964913389 2120773453 302307349 1653133842 -1071701836 830122378 443979412 -1911363020 456591501 1159682512 1632305138 1524589617 1837492838 -1206069024 1415015184 1478033690 -768193621 675740318 310180721 1702562385 1194240766 1557294065 -893678110 900385142 -1070245253
REM
CELL 1.54180   50.00000   50.00000   50.00000   90.00000   90.00000   90.00000
LATT -1
SFAC C  
C      1  0.5343550000000  0.4660460000000  0.4643350000000 1.0
C      1  0.5118840000000  0.4402500000000  0.5626450000000 1.0
C      1  0.5357230000000  0.5653050000000  0.5150100000000 1.0
C      1  0.5535830000000  0.4678020000000  0.4409510000000 1.0
C      1  0.5018490000000  0.4594030000000  0.5832360000000 1.0
C      1  0.4833340000000  0.4403790000000  0.4396970000000 1.0
C      1  0.4806960000000  0.4780330000000  0.5871430000000 1.0
C      1  0.5318040000000  0.5584650000000  0.4610590000000 1.0
C      1  0.5616090000000  0.4594670000000  0.5511370000000 1.0
C      1  0.4892240000000  0.4683840000000  0.4745190000000 1.0
C      1  0.5115760000000  0.5145290000000  0.4968240000000 1.0
C      1  0.5109810000000  0.4832620000000  0.4588870000000 1.0
C      1  0.5375090000000  0.5259660000000  0.5451340000000 1.0
C      1  0.5716120000000  0.5332370000000  0.4823560000000 1.0
C      1  0.4874840000000  0.5483040000000  0.5468390000000 1.0
C      1  0.4976490000000  0.5116170000000  0.4185170000000 1.0
C      1  0.5731400000000  0.4559730000000  0.4556340000000 1.0
C      1  0.5081320000000  0.5274540000000  0.5534740000000 1.0
C      1  0.5228670000000  0.5776010000000  0.5366340000000 1.0
C      1  0.4909690000000  0.4734640000000  0.5028430000000 1.0
C      1  0.4316870000000  0.4994820000000  0.5027750000000 1.0
C      1  0.5040900000000  0.5726380000000  0.5536930000000 1.0
C      1  0.4396540000000  0.5639550000000  0.4538600000000 1.0
C      1  0.4816550000000  0.4658490000000  0.4314180000000 1.0
C      1  0.5610560000000  0.4307780000000  0.5001270000000 1.0
C      1  0.4833360000000  0.5896470000000  0.4640660000000 1.0
C      1  0.5366100000000  0.4972720000000  0.5332450000000 1.0
C      1  0.5343000000000  0.4545020000000  0.5105730000000 1.0
C      1  0.5420050000000  0.5120600000000  0.4268890000000 1.0
C      1  0.4622440000000  0.5350310000000  0.5585120000000 1.0
C      1  0.4635730000000  0.5150280000000  0.5776660000000 1.0
C      1  0.5371550000000  0.5019690000000  0.5047690000000 1.0
C      1  0.5232390000000  0.4372720000000  0.4694400000000 1.0
C      1  0.4847690000000  0.5490800000000  0.4414290000000 1.0
C      1  0.4460560000000  0.4561060000000  0.5342730000000 1.0
C      1  0.4681760000000  0.4810550000000  0.4581660000000 1.0
C      1  0.5551010000000  0.5420080000000  0.4630680000000 1.0
C      1  0.4444710000000  0.5281660000000  0.5380500000000 1.0
C      1  0.5626650000000  0.4500750000000  0.5236560000000 1.0
C      1  0.4798530000000  0.5499210000000  0.5165200000000 1.0
C      1  0.4417700000000  0.4805580000000  0.5492170000000 1.0
C      1  0.4978780000000  0.4344800000000  0.5360380000000 1.0
C      1  0.5319280000000  0.4278380000000  0.4951720000000 1.0
C      1  0.4895640000000  0.5311740000000  0.4665060000000 1.0
C      1  0.5029420000000  0.5902970000000  0.4797120000000 1.0
C      1  0.5087600000000  0.4605780000000  0.5229760000000 1.0
C      1  0.4466360000000  0.5194670000000  0.4285670000000 1.0
C      1  0.5426380000000  0.5180340000000  0.4545750000000 1.0
C      1  0.5654920000000  0.4898310000000  0.5462130000000 1.0
C      1  0.5058080000000  0.4843200000000  0.4278530000000 1.0
C      1  0.4560740000000  0.4875190000000  0.5728270000000 1.0
C      1  0.5744710000000  0.4505050000000  0.4825120000000 1.0
C      1  0.4847990000000  0.4222590000000  0.4918040000000 1.0
C      1  0.5109650000000  0.5157060000000  0.5808710000000 1.0
C      1  0.4172940000000  0.5189940000000  0.4589100000000 1.0
C      1  0.5140960000000  0.5114830000000  0.4669180000000 1.0
C      1  0.4676540000000  0.5715640000000  0.4495640000000 1.0
C      1  0.4608670000000  0.4302270000000  0.5056660000000 1.0
C      1  0.4677220000000  0.5128960000000  0.4704890000000 1.0
C      1  0.4672390000000  0.4353110000000  0.5329650000000 1.0
C      1  0.5493230000000  0.5411740000000  0.5236530000000 1.0
C      1  0.5378720000000  0.4843950000000  0.4232820000000 1.0
C      1  0.4262990000000  0.5680590000000  0.4782260000000 1.0
C      1  0.4939860000000  0.4378630000000  0.4667450000000 1.0
C      1  0.4335390000000  0.5023670000000  0.5329630000000 1.0
C      1  0.5535050000000  0.5096430000000  0.5646220000000 1.0
C      1  0.4396360000000  0.4768140000000  0.4610520000000 1.0
C      1  0.4872130000000  0.5009270000000  0.5102890000000 1.0
C      1  0.5782210000000  0.4962310000000  0.5198150000000 1.0
C      1  0.4875200000000  0.5063010000000  0.5913700000000 1.0
C      1  0.4309330000000  0.5394540000000  0.4420590000000 1.0
C      1  0.5143760000000  0.5521650000000  0.4379270000000 1.0
C      1  0.4184080000000  0.5214930000000  0.4870430000000 1.0
C      1  0.4317600000000  0.4731960000000  0.4889510000000 1.0
C      1  0.5064340000000  0.4189980000000  0.5100080000000 1.0
C      1  0.4531750000000  0.5393820000000  0.5122780000000 1.0
C      1  0.4738850000000  0.5260620000000  0.4235120000000 1.0
C      1  0.5394410000000  0.4518300000000  0.5669130000000 1.0
C      1  0.5643790000000  0.5212080000000  0.5065770000000 1.0
C      1  0.5191080000000  0.5661680000000  0.4876210000000 1.0
C      1  0.4608730000000  0.5119680000000  0.4982590000000 1.0
C      1  0.5436490000000  0.4756190000000  0.4925410000000 1.0
C      1  0.4403100000000  0.4521890000000  0.5057630000000 1.0
C      1  0.5733480000000  0.4718210000000  0.5044090000000 1.0
C      1  0.5135130000000  0.4827890000000  0.5418250000000 1.0
C      1  0.5204110000000  0.5289760000000  0.4217620000000 1.0
C      1  0.4941570000000  0.5030560000000  0.5390430000000 1.0
C      1  0.4292380000000  0.5471040000000  0.4953230000000 1.0
C      1  0.5341170000000  0.4996050000000  0.5827040000000 1.0
C      1  0.4307490000000  0.4980890000000  0.4447020000000 1.0
C      1  0.4990430000000  0.5439370000000  0.4942370000000 1.0
C      1  0.5293110000000  0.4712430000000  0.5861020000000 1.0
END
