TITL C-22840-2291-9 227.678332015655 125000 -439.123941788567 0 0 63 (C1) n - 1
REM
REM in /rds/project/t2_vol4/rds-t2-cs072/BORA/CARBON/from-Arr/AIRSS/Generating-Clusters/GAP-ML-2020/Only-C1/SD-CG/HFTN-CG
REM
REM
REM
REM
REM
REM ./C.cell (11c1c37f851c82e70ff6c80c92926a4b)
REM AIRSS Version 0.9.1 bugfix July 2018 build 013d7b7c2542+ Fri, 06 Jul 2018 19:26:36 +0100
REM compiler GCC version 9.3.0
REM options -cpp -mtune=generic -march=x86-64 -g -O0
REM seed 1463708692 -667921556 1371482705 -1077064668 1474371124 431444003 1600234496 -1442043788 -1175947856 221728136 1922982539 1172248111 -2050997299 -1054915742 -638452458 971576774 -1559939595 -1933921398 -1049321568 -2078769234 640546369 1847149767 733088751 -1974246761 -1421934133 -1104358402 -489462222 1595379369 -1407773826 473636245 -1516865880 1278221344 280991077
REM
CELL 1.54180   50.00000   50.00000   50.00000   90.00000   90.00000   90.00000
LATT -1
SFAC C  
C      1  0.5065510000000  0.5720780000000  0.4921950000000 1.0
C      1  0.4464820000000  0.5300260000000  0.5550550000000 1.0
C      1  0.4348550000000  0.4826320000000  0.5032850000000 1.0
C      1  0.4328370000000  0.5093130000000  0.5160190000000 1.0
C      1  0.5236840000000  0.4682660000000  0.5665330000000 1.0
C      1  0.5426810000000  0.4209710000000  0.5165580000000 1.0
C      1  0.5306700000000  0.5618220000000  0.5039330000000 1.0
C      1  0.5542980000000  0.4992310000000  0.4720170000000 1.0
C      1  0.4853260000000  0.4507110000000  0.4315700000000 1.0
C      1  0.4935480000000  0.4991460000000  0.4925460000000 1.0
C      1  0.4961490000000  0.5263640000000  0.4369730000000 1.0
C      1  0.4488090000000  0.5499060000000  0.4851080000000 1.0
C      1  0.5166790000000  0.4453620000000  0.5501100000000 1.0
C      1  0.4788120000000  0.5042870000000  0.4341680000000 1.0
C      1  0.4837480000000  0.5481420000000  0.4509930000000 1.0
C      1  0.5325430000000  0.4343130000000  0.4955640000000 1.0
C      1  0.5515700000000  0.5341900000000  0.5378050000000 1.0
C      1  0.5451630000000  0.5470180000000  0.4832800000000 1.0
C      1  0.5340540000000  0.4999240000000  0.4524790000000 1.0
C      1  0.5038430000000  0.4881310000000  0.5669810000000 1.0
C      1  0.5275200000000  0.4501200000000  0.4502060000000 1.0
C      1  0.4609560000000  0.4450730000000  0.4425070000000 1.0
C      1  0.5484190000000  0.4807300000000  0.5581390000000 1.0
C      1  0.4599620000000  0.5748470000000  0.4901270000000 1.0
C      1  0.4487440000000  0.4649260000000  0.5219780000000 1.0
C      1  0.4798310000000  0.5629490000000  0.5325640000000 1.0
C      1  0.5441670000000  0.4747980000000  0.5124860000000 1.0
C      1  0.4551170000000  0.4544150000000  0.4679190000000 1.0
C      1  0.5233790000000  0.5246120000000  0.4446290000000 1.0
C      1  0.5451020000000  0.4482060000000  0.4726870000000 1.0
C      1  0.4414510000000  0.5368260000000  0.5100070000000 1.0
C      1  0.4547060000000  0.5474200000000  0.5348780000000 1.0
C      1  0.4923330000000  0.4795240000000  0.4346200000000 1.0
C      1  0.4971250000000  0.4550280000000  0.5293180000000 1.0
C      1  0.5603080000000  0.5235260000000  0.4877640000000 1.0
C      1  0.5112830000000  0.5127830000000  0.5088790000000 1.0
C      1  0.5050950000000  0.5559530000000  0.5457830000000 1.0
C      1  0.4553420000000  0.4809510000000  0.5448690000000 1.0
C      1  0.5421150000000  0.4366810000000  0.5392500000000 1.0
C      1  0.5172930000000  0.4587200000000  0.5055720000000 1.0
C      1  0.5362030000000  0.5017200000000  0.5202240000000 1.0
C      1  0.5170690000000  0.5142670000000  0.5687640000000 1.0
C      1  0.5045400000000  0.5616580000000  0.4656280000000 1.0
C      1  0.5146460000000  0.4774150000000  0.4533950000000 1.0
C      1  0.4718010000000  0.4491090000000  0.5138100000000 1.0
C      1  0.4856200000000  0.4825280000000  0.5434530000000 1.0
C      1  0.4370390000000  0.4766080000000  0.4752500000000 1.0
C      1  0.4401830000000  0.5053440000000  0.5440750000000 1.0
C      1  0.5558510000000  0.4627150000000  0.5367890000000 1.0
C      1  0.5546140000000  0.4734950000000  0.4845090000000 1.0
C      1  0.4770560000000  0.4524010000000  0.4862300000000 1.0
C      1  0.5598110000000  0.5197350000000  0.5149610000000 1.0
C      1  0.5411800000000  0.5093930000000  0.5524490000000 1.0
C      1  0.5313990000000  0.5537770000000  0.5310670000000 1.0
C      1  0.5102240000000  0.4361990000000  0.4344720000000 1.0
C      1  0.4822340000000  0.5746040000000  0.5066910000000 1.0
C      1  0.5285710000000  0.5473640000000  0.4605170000000 1.0
C      1  0.4576470000000  0.5397000000000  0.4589570000000 1.0
C      1  0.4531660000000  0.5132330000000  0.4469170000000 1.0
C      1  0.4877020000000  0.5038280000000  0.5190140000000 1.0
C      1  0.5050020000000  0.5383030000000  0.5665960000000 1.0
C      1  0.4344700000000  0.4957270000000  0.4555500000000 1.0
C      1  0.5014190000000  0.4709560000000  0.4833260000000 1.0
END
