TITL C-22847-2221-8 0.0465497237694801 125000 -362.090524519957 0 0 54 (C1) n - 1
REM
REM in /rds/project/t2_vol4/rds-t2-cs072/BORA/CARBON/from-Arr/AIRSS/Generating-Clusters/GAP-ML-2020/Only-C1/SD-CG/HFTN-CG
REM
REM
REM
REM
REM
REM ./C.cell (11c1c37f851c82e70ff6c80c92926a4b)
REM AIRSS Version 0.9.1 bugfix July 2018 build 013d7b7c2542+ Fri, 06 Jul 2018 19:26:36 +0100
REM compiler GCC version 9.3.0
REM options -cpp -mtune=generic -march=x86-64 -g -O0
REM seed -1195654451 1671589551 1771676125 1248284815 -365656552 -670272471 1878142327 1866808432 1834046130 -1860062002 1240074025 584537776 274442251 131156933 558608116 483899854 443352000 612338398 404988269 581573815 682037484 189736088 124308252 1915103566 2096209411 -288041208 932483132 -519035156 -1786837921 1995210512 1187591319 -341977069 -1027109296
REM
CELL 1.54180   50.00000   50.00000   50.00000   90.00000   90.00000   90.00000
LATT -1
SFAC C  
C      1  0.4680310000000  0.5622740000000  0.4864580000000 1.0
C      1  0.4320850000000  0.5134460000000  0.5109760000000 1.0
C      1  0.5118640000000  0.4940900000000  0.4824310000000 1.0
C      1  0.4691390000000  0.4877260000000  0.4917600000000 1.0
C      1  0.4669920000000  0.5683230000000  0.5130710000000 1.0
C      1  0.4982880000000  0.5259820000000  0.5073510000000 1.0
C      1  0.4679000000000  0.4340880000000  0.4853990000000 1.0
C      1  0.5084660000000  0.4994280000000  0.5109980000000 1.0
C      1  0.4704040000000  0.5181850000000  0.4951230000000 1.0
C      1  0.5153540000000  0.4375630000000  0.4826540000000 1.0
C      1  0.4358610000000  0.5010950000000  0.4618390000000 1.0
C      1  0.4641030000000  0.4963470000000  0.5360310000000 1.0
C      1  0.5143750000000  0.5225920000000  0.4647140000000 1.0
C      1  0.4816960000000  0.4856640000000  0.4434670000000 1.0
C      1  0.5210780000000  0.5001640000000  0.5617210000000 1.0
C      1  0.5315020000000  0.4859100000000  0.4418420000000 1.0
C      1  0.5609170000000  0.5292500000000  0.4939810000000 1.0
C      1  0.5667470000000  0.5121460000000  0.5156550000000 1.0
C      1  0.5492050000000  0.5214170000000  0.5388610000000 1.0
C      1  0.4659720000000  0.5312630000000  0.4508900000000 1.0
C      1  0.4600180000000  0.4454040000000  0.5086810000000 1.0
C      1  0.5281840000000  0.4501090000000  0.5316350000000 1.0
C      1  0.5009960000000  0.5380140000000  0.5362670000000 1.0
C      1  0.5008580000000  0.4779190000000  0.5647870000000 1.0
C      1  0.5321020000000  0.5430360000000  0.5300210000000 1.0
C      1  0.4545710000000  0.5381140000000  0.4768430000000 1.0
C      1  0.4861550000000  0.4531230000000  0.5234500000000 1.0
C      1  0.5112770000000  0.4390120000000  0.5111150000000 1.0
C      1  0.4369600000000  0.4878260000000  0.5225660000000 1.0
C      1  0.5380430000000  0.5128030000000  0.4512630000000 1.0
C      1  0.5058650000000  0.4824670000000  0.4316360000000 1.0
C      1  0.4927950000000  0.5398570000000  0.4534410000000 1.0
C      1  0.5142430000000  0.5429010000000  0.4880100000000 1.0
C      1  0.5037990000000  0.4562340000000  0.5483140000000 1.0
C      1  0.4591390000000  0.5042790000000  0.4453960000000 1.0
C      1  0.5303370000000  0.4962340000000  0.5314570000000 1.0
C      1  0.4941060000000  0.5597300000000  0.4739280000000 1.0
C      1  0.5460300000000  0.4714530000000  0.5257700000000 1.0
C      1  0.5469200000000  0.4678120000000  0.4595060000000 1.0
C      1  0.5639850000000  0.4840020000000  0.5069010000000 1.0
C      1  0.4792140000000  0.4976800000000  0.5604710000000 1.0
C      1  0.4458950000000  0.4701920000000  0.5031230000000 1.0
C      1  0.5376490000000  0.4436580000000  0.4679960000000 1.0
C      1  0.4305120000000  0.5190570000000  0.4823830000000 1.0
C      1  0.4984250000000  0.5192350000000  0.5580590000000 1.0
C      1  0.4578260000000  0.5223910000000  0.5222710000000 1.0
C      1  0.5472160000000  0.5118440000000  0.5665500000000 1.0
C      1  0.5592080000000  0.5118000000000  0.4701550000000 1.0
C      1  0.4878920000000  0.4770410000000  0.4714730000000 1.0
C      1  0.5392250000000  0.5467260000000  0.5026200000000 1.0
C      1  0.4732660000000  0.5486050000000  0.5301800000000 1.0
C      1  0.4894040000000  0.4470820000000  0.4739250000000 1.0
C      1  0.5634870000000  0.4846680000000  0.4776450000000 1.0
C      1  0.4844220000000  0.4827410000000  0.5169400000000 1.0
END
