TITL C-224017-3084-4 -1665.30056925743 125000 -732.264178040949 0 0 103 (C1) n - 1
REM
REM in /rds/project/t2_vol4/rds-t2-cs072/BORA/CARBON/from-Arr/AIRSS/Generating-Clusters/GAP-ML-2020/Only-C1/SD-CG/HFTN-CG
REM
REM
REM
REM
REM
REM ./C.cell (11c1c37f851c82e70ff6c80c92926a4b)
REM AIRSS Version 0.9.1 bugfix July 2018 build 013d7b7c2542+ Fri, 06 Jul 2018 19:26:36 +0100
REM compiler GCC version 9.3.0
REM options -cpp -mtune=generic -march=x86-64 -g -O0
REM seed 1841965917 347055456 -1171055317 1328345106 -134058417 409398709 208835013 735770751 -892409071 1746771115 1400789565 -204629953 567131857 -2022568524 -33304390 -841308376 -1388331130 -587077252 -957564418 -1682206187 -1481581006 1972268918 -1640767265 1838022498 324806682 799286005 -445386584 -157474010 -2054315433 1059980918 -966412212 -663679173 1351574505
REM
CELL 1.54180   50.00000   50.00000   50.00000   90.00000   90.00000   90.00000
LATT -1
SFAC C  
C      1  0.5149590000000  0.5567110000000  0.4893390000000 1.0
C      1  0.4429250000000  0.4485380000000  0.4699380000000 1.0
C      1  0.5064070000000  0.5295640000000  0.4208540000000 1.0
C      1  0.4921800000000  0.5556330000000  0.5666330000000 1.0
C      1  0.5276790000000  0.5108500000000  0.4195060000000 1.0
C      1  0.4114700000000  0.5147480000000  0.4815010000000 1.0
C      1  0.5313580000000  0.4459570000000  0.4857790000000 1.0
C      1  0.5103910000000  0.4702610000000  0.4524570000000 1.0
C      1  0.4292520000000  0.5026560000000  0.5594710000000 1.0
C      1  0.4958560000000  0.4214990000000  0.5122820000000 1.0
C      1  0.4922690000000  0.5775970000000  0.5172830000000 1.0
C      1  0.4465310000000  0.5484290000000  0.5616070000000 1.0
C      1  0.4956180000000  0.5027260000000  0.5891810000000 1.0
C      1  0.5431510000000  0.5148080000000  0.4449480000000 1.0
C      1  0.4860650000000  0.4344190000000  0.5352880000000 1.0
C      1  0.5809810000000  0.4854610000000  0.4495420000000 1.0
C      1  0.5519480000000  0.4568620000000  0.5457240000000 1.0
C      1  0.5027730000000  0.5772780000000  0.4339750000000 1.0
C      1  0.4664180000000  0.5396240000000  0.5002520000000 1.0
C      1  0.4330310000000  0.5259320000000  0.4680460000000 1.0
C      1  0.4763100000000  0.4938990000000  0.4157530000000 1.0
C      1  0.5136820000000  0.4991540000000  0.5347170000000 1.0
C      1  0.4278400000000  0.5298110000000  0.5520050000000 1.0
C      1  0.4794450000000  0.5220690000000  0.4296360000000 1.0
C      1  0.4754130000000  0.4292080000000  0.4424780000000 1.0
C      1  0.4811500000000  0.5089950000000  0.4602720000000 1.0
C      1  0.5717230000000  0.4710890000000  0.5299020000000 1.0
C      1  0.5197280000000  0.5735010000000  0.5135300000000 1.0
C      1  0.4675930000000  0.4562220000000  0.5283660000000 1.0
C      1  0.5167760000000  0.5534680000000  0.4325670000000 1.0
C      1  0.4746040000000  0.4833380000000  0.5138380000000 1.0
C      1  0.4701850000000  0.5155160000000  0.5863390000000 1.0
C      1  0.4693120000000  0.5419500000000  0.5770350000000 1.0
C      1  0.5424290000000  0.4978350000000  0.5768240000000 1.0
C      1  0.5653220000000  0.4667910000000  0.4319360000000 1.0
C      1  0.5796240000000  0.4946250000000  0.5435700000000 1.0
C      1  0.4047940000000  0.4933330000000  0.5176400000000 1.0
C      1  0.5181600000000  0.5437850000000  0.5715520000000 1.0
C      1  0.4634420000000  0.4713990000000  0.5763530000000 1.0
C      1  0.5403180000000  0.5557640000000  0.4733640000000 1.0
C      1  0.5774130000000  0.5244240000000  0.4783890000000 1.0
C      1  0.5017690000000  0.4259430000000  0.4389200000000 1.0
C      1  0.4775710000000  0.4193220000000  0.4905640000000 1.0
C      1  0.4911690000000  0.4288420000000  0.4673690000000 1.0
C      1  0.5198760000000  0.5160270000000  0.5832300000000 1.0
C      1  0.5421470000000  0.4761380000000  0.4898110000000 1.0
C      1  0.4644800000000  0.5693390000000  0.4670000000000 1.0
C      1  0.4782380000000  0.5693980000000  0.4411460000000 1.0
C      1  0.5433860000000  0.4374620000000  0.4601050000000 1.0
C      1  0.5086780000000  0.4403270000000  0.5516580000000 1.0
C      1  0.4510620000000  0.4311280000000  0.4916930000000 1.0
C      1  0.5043340000000  0.5055370000000  0.4778910000000 1.0
C      1  0.5789910000000  0.5395740000000  0.5327020000000 1.0
C      1  0.5281860000000  0.4921000000000  0.4648680000000 1.0
C      1  0.5650440000000  0.5086630000000  0.5643310000000 1.0
C      1  0.4055680000000  0.5214490000000  0.5094370000000 1.0
C      1  0.5369830000000  0.5436660000000  0.4487700000000 1.0
C      1  0.5125110000000  0.4594840000000  0.5723690000000 1.0
C      1  0.4442970000000  0.5488620000000  0.4555960000000 1.0
C      1  0.4345220000000  0.4703430000000  0.4886330000000 1.0
C      1  0.4215320000000  0.5377140000000  0.5251250000000 1.0
C      1  0.5680430000000  0.4483460000000  0.4551470000000 1.0
C      1  0.4412230000000  0.4488510000000  0.5128510000000 1.0
C      1  0.5646160000000  0.5561220000000  0.5149340000000 1.0
C      1  0.5643930000000  0.5363190000000  0.5570470000000 1.0
C      1  0.5401270000000  0.4632390000000  0.4185500000000 1.0
C      1  0.5288700000000  0.5122920000000  0.5163050000000 1.0
C      1  0.5411570000000  0.5525150000000  0.5564260000000 1.0
C      1  0.4305230000000  0.4574110000000  0.5394440000000 1.0
C      1  0.5846630000000  0.5057530000000  0.4986420000000 1.0
C      1  0.4812960000000  0.5717410000000  0.5428200000000 1.0
C      1  0.5324520000000  0.4375920000000  0.5362880000000 1.0
C      1  0.5722840000000  0.4779410000000  0.4982740000000 1.0
C      1  0.4186630000000  0.4833590000000  0.5404720000000 1.0
C      1  0.4503050000000  0.4966500000000  0.5779880000000 1.0
C      1  0.5386910000000  0.4703590000000  0.5689040000000 1.0
C      1  0.4618980000000  0.5461140000000  0.4326890000000 1.0
C      1  0.4543950000000  0.4491470000000  0.4437510000000 1.0
C      1  0.5716120000000  0.5116670000000  0.4535150000000 1.0
C      1  0.4985650000000  0.4890150000000  0.3982560000000 1.0
C      1  0.4869130000000  0.5282580000000  0.5168220000000 1.0
C      1  0.4438470000000  0.5532730000000  0.5163860000000 1.0
C      1  0.5250520000000  0.4856520000000  0.4054880000000 1.0
C      1  0.5037270000000  0.4557650000000  0.4767370000000 1.0
C      1  0.5882550000000  0.5145830000000  0.5245870000000 1.0
C      1  0.4915120000000  0.4749140000000  0.5832070000000 1.0
C      1  0.4583420000000  0.5160490000000  0.4804520000000 1.0
C      1  0.5244640000000  0.4455870000000  0.4379830000000 1.0
C      1  0.4542330000000  0.5651590000000  0.5401150000000 1.0
C      1  0.4101000000000  0.4863260000000  0.4897560000000 1.0
C      1  0.4856890000000  0.5042460000000  0.5315480000000 1.0
C      1  0.4836840000000  0.4832070000000  0.4463810000000 1.0
C      1  0.5823710000000  0.4665430000000  0.4721230000000 1.0
C      1  0.5109170000000  0.5272990000000  0.4985180000000 1.0
C      1  0.4540640000000  0.4555910000000  0.5554740000000 1.0
C      1  0.4975020000000  0.4795100000000  0.4949790000000 1.0
C      1  0.5219850000000  0.4831590000000  0.5104300000000 1.0
C      1  0.4614280000000  0.4734540000000  0.4311410000000 1.0
C      1  0.5636190000000  0.5483450000000  0.4876730000000 1.0
C      1  0.5241500000000  0.4292460000000  0.5102920000000 1.0
C      1  0.4534690000000  0.4923290000000  0.4967190000000 1.0
C      1  0.4824680000000  0.5639870000000  0.4904130000000 1.0
C      1  0.5415650000000  0.5660390000000  0.5295830000000 1.0
END
