TITL C-22831-2195-9 0.0671550069619547 125000 -411.943000703776 0 0 60 (C1) n - 1
REM
REM in /rds/project/t2_vol4/rds-t2-cs072/BORA/CARBON/from-Arr/AIRSS/Generating-Clusters/GAP-ML-2020/Only-C1/SD-CG/HFTN-CG
REM
REM
REM
REM
REM
REM ./C.cell (11c1c37f851c82e70ff6c80c92926a4b)
REM AIRSS Version 0.9.1 bugfix July 2018 build 013d7b7c2542+ Fri, 06 Jul 2018 19:26:36 +0100
REM compiler GCC version 9.3.0
REM options -cpp -mtune=generic -march=x86-64 -g -O0
REM seed -1491259685 -378502177 -803635958 -1248872677 -408572468 -210561354 -84572782 337923573 458686223 -2004305746 373780380 -1730598916 1929726029 918537824 -1597704277 -1187086387 -1057689543 1936518847 -1717756686 1939003601 1527255646 1034327284 1965531786 906401768 626280234 781355462 534320871 1312987957 -1280064046 771887231 1908807532 -1944001152 -1339275680
REM
CELL 1.54180   50.00000   50.00000   50.00000   90.00000   90.00000   90.00000
LATT -1
SFAC C  
C      1  0.5175730000000  0.4980220000000  0.5070830000000 1.0
C      1  0.4900370000000  0.5594910000000  0.5237830000000 1.0
C      1  0.5288910000000  0.5460170000000  0.4533370000000 1.0
C      1  0.4403350000000  0.4758520000000  0.4586420000000 1.0
C      1  0.5083320000000  0.5643220000000  0.4538260000000 1.0
C      1  0.5434680000000  0.4978280000000  0.4540320000000 1.0
C      1  0.5088300000000  0.5215630000000  0.4981190000000 1.0
C      1  0.5623450000000  0.5295140000000  0.5155480000000 1.0
C      1  0.5628070000000  0.5034770000000  0.4750780000000 1.0
C      1  0.4683460000000  0.5436790000000  0.4757560000000 1.0
C      1  0.5172690000000  0.4937490000000  0.5577460000000 1.0
C      1  0.5040860000000  0.5681290000000  0.5007650000000 1.0
C      1  0.5211680000000  0.4472770000000  0.5362430000000 1.0
C      1  0.4519190000000  0.4529020000000  0.4488810000000 1.0
C      1  0.4542180000000  0.4484060000000  0.4937030000000 1.0
C      1  0.4940730000000  0.4434940000000  0.4684870000000 1.0
C      1  0.4846120000000  0.5274940000000  0.5568490000000 1.0
C      1  0.5027710000000  0.4899160000000  0.5309490000000 1.0
C      1  0.5620250000000  0.5292620000000  0.4869710000000 1.0
C      1  0.4534600000000  0.4990150000000  0.5302480000000 1.0
C      1  0.4378970000000  0.4712430000000  0.4879670000000 1.0
C      1  0.5311560000000  0.4512280000000  0.4944840000000 1.0
C      1  0.4462710000000  0.5256960000000  0.4627820000000 1.0
C      1  0.5106890000000  0.4320080000000  0.4907280000000 1.0
C      1  0.5144170000000  0.4622440000000  0.5609220000000 1.0
C      1  0.5614990000000  0.4793340000000  0.5188200000000 1.0
C      1  0.4763380000000  0.4826120000000  0.5736070000000 1.0
C      1  0.5096660000000  0.4571680000000  0.4469530000000 1.0
C      1  0.4908090000000  0.5643850000000  0.4744910000000 1.0
C      1  0.4933040000000  0.4596900000000  0.5777170000000 1.0
C      1  0.4726890000000  0.4951840000000  0.4813340000000 1.0
C      1  0.4355090000000  0.5223520000000  0.4892480000000 1.0
C      1  0.4497810000000  0.5455340000000  0.4983280000000 1.0
C      1  0.4623220000000  0.5254330000000  0.5391890000000 1.0
C      1  0.4455040000000  0.4966310000000  0.5008320000000 1.0
C      1  0.4632290000000  0.5482410000000  0.5223240000000 1.0
C      1  0.4654050000000  0.4380590000000  0.4681290000000 1.0
C      1  0.4891420000000  0.4703820000000  0.4856230000000 1.0
C      1  0.5292340000000  0.4735710000000  0.4604030000000 1.0
C      1  0.4776800000000  0.4978160000000  0.4327710000000 1.0
C      1  0.4864050000000  0.5197760000000  0.4843590000000 1.0
C      1  0.5441700000000  0.5493880000000  0.4776010000000 1.0
C      1  0.4975590000000  0.4786750000000  0.4344380000000 1.0
C      1  0.5694300000000  0.4840850000000  0.4930100000000 1.0
C      1  0.5436920000000  0.4559500000000  0.5200810000000 1.0
C      1  0.5595200000000  0.5060500000000  0.5320990000000 1.0
C      1  0.5027960000000  0.5467430000000  0.5459510000000 1.0
C      1  0.5440440000000  0.5497780000000  0.5237530000000 1.0
C      1  0.5041630000000  0.5061180000000  0.4296780000000 1.0
C      1  0.4937950000000  0.5053680000000  0.5716140000000 1.0
C      1  0.5004920000000  0.4375220000000  0.5166020000000 1.0
C      1  0.5321530000000  0.5621680000000  0.5011900000000 1.0
C      1  0.4577400000000  0.4800790000000  0.5536820000000 1.0
C      1  0.5276610000000  0.5183540000000  0.4418380000000 1.0
C      1  0.5301850000000  0.5398720000000  0.5462420000000 1.0
C      1  0.4565490000000  0.5000850000000  0.4539470000000 1.0
C      1  0.5176950000000  0.4766690000000  0.4872250000000 1.0
C      1  0.4760030000000  0.4766370000000  0.5311290000000 1.0
C      1  0.4772600000000  0.4557180000000  0.5108030000000 1.0
C      1  0.5395850000000  0.5127470000000  0.5520580000000 1.0
END
