TITL C-221348-4435-9 -0.0344131922927262 125000 -96.4222645839118 0 0 15 (C1) n - 1
REM
REM in /rds/project/t2_vol4/rds-t2-cs072/BORA/CARBON/from-Arr/AIRSS/Generating-Clusters/GAP-ML-2020/Only-C1/SD-CG/HFTN-CG
REM
REM
REM
REM
REM
REM ./C.cell (11c1c37f851c82e70ff6c80c92926a4b)
REM AIRSS Version 0.9.1 bugfix July 2018 build 013d7b7c2542+ Fri, 06 Jul 2018 19:26:36 +0100
REM compiler GCC version 9.3.0
REM options -cpp -mtune=generic -march=x86-64 -g -O0
REM seed -1740007115 -1757951413 -3849495 -420429374 1867598128 143968206 -1106919977 37864012 1581512706 411846847 -734055939 1578968463 -1276161869 700494041 -543182774 -1332518473 73942618 -18115491 1488021047 1303703253 1588559907 871096644 666953847 2067827037 -107313128 1241311495 1905600390 79934683 551207465 -1260275680 1358421119 -231461503 1798045888
REM
CELL 1.54180   50.00000   50.00000   50.00000   90.00000   90.00000   90.00000
LATT -1
SFAC C  
C      1  0.5183160000000  0.4734680000000  0.5450940000000 1.0
C      1  0.5024910000000  0.4580160000000  0.5328430000000 1.0
C      1  0.5282190000000  0.4978820000000  0.5475140000000 1.0
C      1  0.4817780000000  0.5154380000000  0.5061010000000 1.0
C      1  0.5140130000000  0.5392520000000  0.4654170000000 1.0
C      1  0.4957860000000  0.4953920000000  0.4490530000000 1.0
C      1  0.4891340000000  0.4592500000000  0.4843540000000 1.0
C      1  0.4744280000000  0.4918110000000  0.5167660000000 1.0
C      1  0.5200300000000  0.5408450000000  0.4902970000000 1.0
C      1  0.4934610000000  0.4750590000000  0.4650730000000 1.0
C      1  0.4715740000000  0.5199590000000  0.4804450000000 1.0
C      1  0.4872480000000  0.4682330000000  0.5111160000000 1.0
C      1  0.5226470000000  0.5172530000000  0.5321600000000 1.0
C      1  0.5081630000000  0.5280900000000  0.5121250000000 1.0
C      1  0.4927120000000  0.5200520000000  0.4616400000000 1.0
END
