TITL C-22835-2324-2 -0.0319774632262246 125000 -353.454220809976 0 0 52 (C1) n - 1
REM
REM in /rds/project/t2_vol4/rds-t2-cs072/BORA/CARBON/from-Arr/AIRSS/Generating-Clusters/GAP-ML-2020/Only-C1/SD-CG/HFTN-CG
REM
REM
REM
REM
REM
REM ./C.cell (11c1c37f851c82e70ff6c80c92926a4b)
REM AIRSS Version 0.9.1 bugfix July 2018 build 013d7b7c2542+ Fri, 06 Jul 2018 19:26:36 +0100
REM compiler GCC version 9.3.0
REM options -cpp -mtune=generic -march=x86-64 -g -O0
REM seed 242034131 1351672111 2005158043 -1103094700 -274393627 -1292118205 -584296269 1278772082 -1885628091 995903762 -1435960886 541526676 1680459374 1200931242 -588494801 -76640578 1833180903 1467270688 -857232675 -922696077 -1008211542 59824333 -1223899509 368757882 -935657827 693765232 -199663343 1177778830 -1896167600 -1104027028 -391413040 1663928773 -343437431
REM
CELL 1.54180   50.00000   50.00000   50.00000   90.00000   90.00000   90.00000
LATT -1
SFAC C  
C      1  0.4833950000000  0.5405100000000  0.4586710000000 1.0
C      1  0.5039700000000  0.4777750000000  0.5619830000000 1.0
C      1  0.4865290000000  0.5044170000000  0.4390110000000 1.0
C      1  0.5437140000000  0.4571040000000  0.5048120000000 1.0
C      1  0.4556270000000  0.4562770000000  0.4813360000000 1.0
C      1  0.5084990000000  0.5700430000000  0.4926500000000 1.0
C      1  0.5323130000000  0.4921750000000  0.4485050000000 1.0
C      1  0.4850280000000  0.5521520000000  0.5563280000000 1.0
C      1  0.5168810000000  0.4392360000000  0.4638510000000 1.0
C      1  0.5550580000000  0.5062440000000  0.5105040000000 1.0
C      1  0.4759290000000  0.4462430000000  0.4637350000000 1.0
C      1  0.4973000000000  0.5187180000000  0.5269530000000 1.0
C      1  0.4331430000000  0.5181960000000  0.5213450000000 1.0
C      1  0.5469600000000  0.4777820000000  0.4681330000000 1.0
C      1  0.4950580000000  0.5021820000000  0.5714920000000 1.0
C      1  0.5375460000000  0.4515930000000  0.4768290000000 1.0
C      1  0.4529670000000  0.5262940000000  0.5038910000000 1.0
C      1  0.5166500000000  0.5206830000000  0.4820830000000 1.0
C      1  0.5283420000000  0.4550070000000  0.5283490000000 1.0
C      1  0.5017600000000  0.5282750000000  0.4399780000000 1.0
C      1  0.5342460000000  0.5749150000000  0.4805580000000 1.0
C      1  0.4660690000000  0.5176320000000  0.4567220000000 1.0
C      1  0.4163790000000  0.4988160000000  0.5240240000000 1.0
C      1  0.4982600000000  0.5809890000000  0.5159380000000 1.0
C      1  0.4876550000000  0.4559150000000  0.5516590000000 1.0
C      1  0.4899750000000  0.5245660000000  0.5564740000000 1.0
C      1  0.5449570000000  0.5078370000000  0.5374140000000 1.0
C      1  0.4802970000000  0.5372130000000  0.5101580000000 1.0
C      1  0.5374490000000  0.5713060000000  0.4506090000000 1.0
C      1  0.4873140000000  0.4342240000000  0.5078240000000 1.0
C      1  0.5268400000000  0.5212060000000  0.4536760000000 1.0
C      1  0.4963310000000  0.5434990000000  0.4853280000000 1.0
C      1  0.4510810000000  0.5092680000000  0.4789940000000 1.0
C      1  0.4467740000000  0.4584310000000  0.5270970000000 1.0
C      1  0.5518450000000  0.4912730000000  0.5579440000000 1.0
C      1  0.4947410000000  0.4309290000000  0.4808280000000 1.0
C      1  0.5054790000000  0.4933070000000  0.4899740000000 1.0
C      1  0.5024190000000  0.4431860000000  0.5303090000000 1.0
C      1  0.4314950000000  0.4791740000000  0.5126100000000 1.0
C      1  0.4846030000000  0.5621040000000  0.5305380000000 1.0
C      1  0.5447900000000  0.5444020000000  0.4558620000000 1.0
C      1  0.4982310000000  0.4559730000000  0.4474700000000 1.0
C      1  0.4600200000000  0.4440690000000  0.5066430000000 1.0
C      1  0.5496480000000  0.5509280000000  0.4842420000000 1.0
C      1  0.5552680000000  0.4827280000000  0.4959070000000 1.0
C      1  0.5254310000000  0.5285570000000  0.5274170000000 1.0
C      1  0.5389010000000  0.5289390000000  0.5003700000000 1.0
C      1  0.5054520000000  0.4822080000000  0.4409810000000 1.0
C      1  0.4602480000000  0.4578170000000  0.5509750000000 1.0
C      1  0.5304170000000  0.4741700000000  0.5500030000000 1.0
C      1  0.4979010000000  0.4916260000000  0.5150040000000 1.0
C      1  0.4428170000000  0.4818850000000  0.4860060000000 1.0
END
