TITL C-22851-8313-1 -8.47945221715205 125000 -339.075742271942 0 0 51 (C1) n - 1
REM
REM in /rds/project/t2_vol4/rds-t2-cs072/BORA/CARBON/from-Arr/AIRSS/Generating-Clusters/GAP-ML-2020/Only-C1/SD-CG/HFTN-CG
REM
REM
REM
REM
REM
REM ./C.cell (11c1c37f851c82e70ff6c80c92926a4b)
REM AIRSS Version 0.9.1 bugfix July 2018 build 013d7b7c2542+ Fri, 06 Jul 2018 19:26:36 +0100
REM compiler GCC version 9.3.0
REM options -cpp -mtune=generic -march=x86-64 -g -O0
REM seed 274457885 -503011049 772627358 2126923720 1807892310 298563829 30084744 1762864976 908697645 762884453 1887421882 928375556 -1870706716 -990373911 -617558590 900796578 15594886 -1262574278 -1098923661 -839465924 1301179743 -2095125571 -1490440318 -2022628323 -1904332446 -701125762 1473401819 -1706937173 1275202664 1619385710 1951689 -626242455 -799687369
REM
CELL 1.54180   50.00000   50.00000   50.00000   90.00000   90.00000   90.00000
LATT -1
SFAC C  
C      1  0.4430440000000  0.5009130000000  0.4577680000000 1.0
C      1  0.4904270000000  0.5601970000000  0.5256300000000 1.0
C      1  0.5178610000000  0.5559710000000  0.5334230000000 1.0
C      1  0.4599140000000  0.4772140000000  0.4484180000000 1.0
C      1  0.4993650000000  0.4736080000000  0.4734000000000 1.0
C      1  0.5486210000000  0.5083090000000  0.4731420000000 1.0
C      1  0.5344020000000  0.4720220000000  0.4436810000000 1.0
C      1  0.5602230000000  0.4929620000000  0.4937210000000 1.0
C      1  0.4414990000000  0.5054400000000  0.5457310000000 1.0
C      1  0.4730460000000  0.5370540000000  0.4541490000000 1.0
C      1  0.5279070000000  0.4639240000000  0.4704750000000 1.0
C      1  0.4456040000000  0.4617110000000  0.4684620000000 1.0
C      1  0.5418030000000  0.5000540000000  0.4472090000000 1.0
C      1  0.4353370000000  0.4833350000000  0.5023590000000 1.0
C      1  0.5226970000000  0.5417370000000  0.4881660000000 1.0
C      1  0.5164040000000  0.5073550000000  0.4332300000000 1.0
C      1  0.4995530000000  0.5047900000000  0.4744360000000 1.0
C      1  0.4851530000000  0.4669550000000  0.4997160000000 1.0
C      1  0.4683870000000  0.5508750000000  0.5131130000000 1.0
C      1  0.5470430000000  0.4669090000000  0.4921480000000 1.0
C      1  0.5439610000000  0.4510730000000  0.5147470000000 1.0
C      1  0.5240710000000  0.5128730000000  0.4886210000000 1.0
C      1  0.4877170000000  0.4849240000000  0.5451490000000 1.0
C      1  0.5049540000000  0.5009000000000  0.5657320000000 1.0
C      1  0.5343180000000  0.5363400000000  0.5466120000000 1.0
C      1  0.4999330000000  0.5234840000000  0.4508440000000 1.0
C      1  0.4558970000000  0.4632650000000  0.4955670000000 1.0
C      1  0.4912630000000  0.4924190000000  0.5163130000000 1.0
C      1  0.5535620000000  0.5326900000000  0.5237700000000 1.0
C      1  0.4820340000000  0.5076880000000  0.5794170000000 1.0
C      1  0.4632100000000  0.4985730000000  0.5605210000000 1.0
C      1  0.4811910000000  0.5137810000000  0.4954950000000 1.0
C      1  0.5204040000000  0.4471700000000  0.5504480000000 1.0
C      1  0.5087970000000  0.4797010000000  0.4302410000000 1.0
C      1  0.5295850000000  0.5105120000000  0.5576530000000 1.0
C      1  0.5184230000000  0.5007070000000  0.5151940000000 1.0
C      1  0.5385440000000  0.5517930000000  0.5092410000000 1.0
C      1  0.5606360000000  0.5057470000000  0.5198410000000 1.0
C      1  0.4867390000000  0.5568350000000  0.4680400000000 1.0
C      1  0.4937470000000  0.4562560000000  0.5455830000000 1.0
C      1  0.4533690000000  0.5263540000000  0.5002340000000 1.0
C      1  0.5406210000000  0.4917990000000  0.5374030000000 1.0
C      1  0.4527120000000  0.5243570000000  0.4695840000000 1.0
C      1  0.5207460000000  0.4355290000000  0.5206110000000 1.0
C      1  0.4393070000000  0.5066130000000  0.5181160000000 1.0
C      1  0.5132600000000  0.5483220000000  0.4616900000000 1.0
C      1  0.5427990000000  0.4636490000000  0.5415650000000 1.0
C      1  0.4274800000000  0.4840670000000  0.4751470000000 1.0
C      1  0.4949990000000  0.4459190000000  0.5178810000000 1.0
C      1  0.4905900000000  0.5450030000000  0.4942020000000 1.0
C      1  0.4868390000000  0.4703250000000  0.4461600000000 1.0
END
