TITL C-22820-2202-5 -157.564063009952 125000 -846.640975034448 0 0 121 (C1) n - 1
REM
REM in /rds/project/t2_vol4/rds-t2-cs072/BORA/CARBON/from-Arr/AIRSS/Generating-Clusters/GAP-ML-2020/Only-C1/SD-CG/HFTN-CG
REM
REM
REM
REM
REM
REM ./C.cell (11c1c37f851c82e70ff6c80c92926a4b)
REM AIRSS Version 0.9.1 bugfix July 2018 build 013d7b7c2542+ Fri, 06 Jul 2018 19:26:36 +0100
REM compiler GCC version 9.3.0
REM options -cpp -mtune=generic -march=x86-64 -g -O0
REM seed 71644730 -23139793 1021823709 -2022093436 2018466082 -1831355908 -823144660 334182909 1815205614 -2078321055 -1739440990 1290317820 49755795 -1200777116 -491739545 -530813947 2033542338 -1030909240 337276145 757286242 508659842 -116462534 -860337105 -591267407 1140601331 504912650 784104441 1425918560 -16422482 -356780915 2022639940 -756920960 497580124
REM
CELL 1.54180   50.00000   50.00000   50.00000   90.00000   90.00000   90.00000
LATT -1
SFAC C  
C      1  0.5309220000000  0.5873670000000  0.4820310000000 1.0
C      1  0.5797130000000  0.5190630000000  0.5524900000000 1.0
C      1  0.4883940000000  0.4114210000000  0.4882340000000 1.0
C      1  0.4174090000000  0.5433780000000  0.4935850000000 1.0
C      1  0.5242070000000  0.5375740000000  0.4355150000000 1.0
C      1  0.4392040000000  0.4712880000000  0.4376840000000 1.0
C      1  0.4839750000000  0.5596160000000  0.5510770000000 1.0
C      1  0.4590820000000  0.4294780000000  0.4402590000000 1.0
C      1  0.5939190000000  0.5285550000000  0.5281860000000 1.0
C      1  0.4262160000000  0.5403850000000  0.5438710000000 1.0
C      1  0.5017790000000  0.5848560000000  0.4806640000000 1.0
C      1  0.5606950000000  0.4953480000000  0.4824890000000 1.0
C      1  0.5230110000000  0.4946910000000  0.5489970000000 1.0
C      1  0.4889130000000  0.5227180000000  0.5849050000000 1.0
C      1  0.5006590000000  0.5139680000000  0.5407460000000 1.0
C      1  0.5601480000000  0.4808480000000  0.4366410000000 1.0
C      1  0.5658590000000  0.4450930000000  0.5301770000000 1.0
C      1  0.4845740000000  0.5243820000000  0.4632870000000 1.0
C      1  0.4457550000000  0.5726360000000  0.5173270000000 1.0
C      1  0.5598810000000  0.5090450000000  0.4314720000000 1.0
C      1  0.5379920000000  0.4684660000000  0.4221930000000 1.0
C      1  0.5766590000000  0.5564770000000  0.4880380000000 1.0
C      1  0.4179170000000  0.5258160000000  0.5195280000000 1.0
C      1  0.5268510000000  0.5863310000000  0.5535260000000 1.0
C      1  0.5585260000000  0.5547250000000  0.5347110000000 1.0
C      1  0.5054170000000  0.4079640000000  0.5129700000000 1.0
C      1  0.5134520000000  0.4875920000000  0.4530500000000 1.0
C      1  0.4460160000000  0.4314690000000  0.4647890000000 1.0
C      1  0.5908870000000  0.5081780000000  0.5099460000000 1.0
C      1  0.5857850000000  0.5361340000000  0.4698370000000 1.0
C      1  0.4564040000000  0.4538160000000  0.4241660000000 1.0
C      1  0.5164170000000  0.5545690000000  0.5155240000000 1.0
C      1  0.5313450000000  0.5133870000000  0.4822520000000 1.0
C      1  0.4991990000000  0.5527630000000  0.4264330000000 1.0
C      1  0.4814610000000  0.4610790000000  0.4126940000000 1.0
C      1  0.4610750000000  0.4694180000000  0.4945920000000 1.0
C      1  0.5384780000000  0.5439600000000  0.5786300000000 1.0
C      1  0.5399080000000  0.5038640000000  0.5251360000000 1.0
C      1  0.5024190000000  0.4708150000000  0.4724120000000 1.0
C      1  0.4780910000000  0.5441390000000  0.4852820000000 1.0
C      1  0.4786870000000  0.4402150000000  0.5719350000000 1.0
C      1  0.5437150000000  0.4275040000000  0.5383880000000 1.0
C      1  0.4484380000000  0.5000920000000  0.4356710000000 1.0
C      1  0.5281580000000  0.4247180000000  0.4517750000000 1.0
C      1  0.4376000000000  0.4437650000000  0.5510080000000 1.0
C      1  0.5480590000000  0.5495890000000  0.4488060000000 1.0
C      1  0.5694690000000  0.5322540000000  0.4458310000000 1.0
C      1  0.4160240000000  0.4711810000000  0.5123830000000 1.0
C      1  0.4452850000000  0.5286460000000  0.5620040000000 1.0
C      1  0.5427590000000  0.5927120000000  0.5057010000000 1.0
C      1  0.5130130000000  0.5154410000000  0.4590440000000 1.0
C      1  0.5280340000000  0.5711050000000  0.5766730000000 1.0
C      1  0.5657400000000  0.4904820000000  0.5144660000000 1.0
C      1  0.5015570000000  0.4147030000000  0.4614770000000 1.0
C      1  0.4891400000000  0.5058570000000  0.5161500000000 1.0
C      1  0.4432080000000  0.4246880000000  0.5132580000000 1.0
C      1  0.4904210000000  0.5776710000000  0.4339910000000 1.0
C      1  0.4370730000000  0.5036870000000  0.4822990000000 1.0
C      1  0.4820010000000  0.5813500000000  0.4594400000000 1.0
C      1  0.5350160000000  0.5152950000000  0.4192490000000 1.0
C      1  0.4961360000000  0.4627600000000  0.5218610000000 1.0
C      1  0.5806980000000  0.4914630000000  0.5556350000000 1.0
C      1  0.4310810000000  0.4741740000000  0.4870570000000 1.0
C      1  0.4128240000000  0.4958170000000  0.5251230000000 1.0
C      1  0.4443700000000  0.5148860000000  0.5093460000000 1.0
C      1  0.4831810000000  0.4939580000000  0.5878160000000 1.0
C      1  0.5260710000000  0.4427750000000  0.4281000000000 1.0
C      1  0.5865030000000  0.5119310000000  0.4825720000000 1.0
C      1  0.4907900000000  0.4883730000000  0.4106440000000 1.0
C      1  0.5116370000000  0.4679190000000  0.5452600000000 1.0
C      1  0.4250160000000  0.4463740000000  0.5245710000000 1.0
C      1  0.4317290000000  0.5260840000000  0.4386320000000 1.0
C      1  0.5139510000000  0.4693010000000  0.4993540000000 1.0
C      1  0.4856220000000  0.4217720000000  0.4391820000000 1.0
C      1  0.4628740000000  0.5024340000000  0.4641850000000 1.0
C      1  0.5342480000000  0.4122930000000  0.5147020000000 1.0
C      1  0.5481750000000  0.5618550000000  0.4775970000000 1.0
C      1  0.5201020000000  0.4906140000000  0.4145220000000 1.0
C      1  0.5373590000000  0.5754960000000  0.5277960000000 1.0
C      1  0.5612030000000  0.5404690000000  0.5606580000000 1.0
C      1  0.4290810000000  0.5661330000000  0.5377190000000 1.0
C      1  0.4552390000000  0.4558030000000  0.5713250000000 1.0
C      1  0.4990450000000  0.4401230000000  0.4208200000000 1.0
C      1  0.5184940000000  0.4984190000000  0.5043550000000 1.0
C      1  0.4700560000000  0.5399690000000  0.5700540000000 1.0
C      1  0.4926400000000  0.5665890000000  0.5017590000000 1.0
C      1  0.5671190000000  0.4738830000000  0.4634440000000 1.0
C      1  0.5509350000000  0.4254930000000  0.4676500000000 1.0
C      1  0.5058390000000  0.4527020000000  0.5706340000000 1.0
C      1  0.5185380000000  0.5241320000000  0.5855300000000 1.0
C      1  0.5735910000000  0.4718180000000  0.5373900000000 1.0
C      1  0.5029220000000  0.5779510000000  0.5652640000000 1.0
C      1  0.4522370000000  0.5459070000000  0.4429290000000 1.0
C      1  0.4451300000000  0.5010200000000  0.5595870000000 1.0
C      1  0.4718470000000  0.5079500000000  0.4191920000000 1.0
C      1  0.4755030000000  0.4769570000000  0.4721300000000 1.0
C      1  0.5682510000000  0.4482790000000  0.4746050000000 1.0
C      1  0.4435780000000  0.4932540000000  0.5314700000000 1.0
C      1  0.4318770000000  0.4574630000000  0.4626160000000 1.0
C      1  0.4585940000000  0.4836590000000  0.5772300000000 1.0
C      1  0.5481250000000  0.5315750000000  0.5188120000000 1.0
C      1  0.5071080000000  0.4775900000000  0.5874920000000 1.0
C      1  0.5531770000000  0.4159350000000  0.4948480000000 1.0
C      1  0.4581230000000  0.5618030000000  0.4685860000000 1.0
C      1  0.4732600000000  0.5715790000000  0.5246840000000 1.0
C      1  0.5208190000000  0.4296850000000  0.5551050000000 1.0
C      1  0.4587010000000  0.4196660000000  0.4887580000000 1.0
C      1  0.5252450000000  0.4971510000000  0.5789400000000 1.0
C      1  0.4149180000000  0.5239470000000  0.4724480000000 1.0
C      1  0.4759050000000  0.4184460000000  0.5538820000000 1.0
C      1  0.5351800000000  0.5405160000000  0.4954450000000 1.0
C      1  0.4370250000000  0.5647120000000  0.4906890000000 1.0
C      1  0.4516830000000  0.4204230000000  0.5402630000000 1.0
C      1  0.4724300000000  0.4797440000000  0.5185150000000 1.0
C      1  0.5707510000000  0.4381940000000  0.5022520000000 1.0
C      1  0.4769760000000  0.5345420000000  0.4316520000000 1.0
C      1  0.5002330000000  0.4136980000000  0.5411240000000 1.0
C      1  0.5818330000000  0.5522590000000  0.5170390000000 1.0
C      1  0.5062240000000  0.5419230000000  0.5397690000000 1.0
C      1  0.4705280000000  0.5265680000000  0.5076920000000 1.0
C      1  0.4056570000000  0.5281730000000  0.4467960000000 1.0
END
