TITL C-22825-2284-1 103.957479979827 125000 -949.025308839382 0 0 135 (C1) n - 1
REM
REM in /rds/project/t2_vol4/rds-t2-cs072/BORA/CARBON/from-Arr/AIRSS/Generating-Clusters/GAP-ML-2020/Only-C1/SD-CG/HFTN-CG
REM
REM
REM
REM
REM
REM ./C.cell (11c1c37f851c82e70ff6c80c92926a4b)
REM AIRSS Version 0.9.1 bugfix July 2018 build 013d7b7c2542+ Fri, 06 Jul 2018 19:26:36 +0100
REM compiler GCC version 9.3.0
REM options -cpp -mtune=generic -march=x86-64 -g -O0
REM seed -69970415 1410106242 1450911099 -1627424290 -1919089515 -1841873495 -1334323173 -229352272 1408185323 1975903424 453260918 1424974737 -1227470068 2052644945 1226964045 1063358255 220687154 -1755271177 5561048 -636755090 -1951813050 -41514775 1495577347 1821164736 1018813747 -1555113571 -114294732 -1172864560 -1085947173 -1190560103 -1900010244 -1323710253 -1898254304
REM
CELL 1.54180   50.00000   50.00000   50.00000   90.00000   90.00000   90.00000
LATT -1
SFAC C  
C      1  0.5185640000000  0.5670150000000  0.4295020000000 1.0
C      1  0.5279560000000  0.3955200000000  0.4976500000000 1.0
C      1  0.5214170000000  0.4472720000000  0.4972180000000 1.0
C      1  0.5120310000000  0.5209310000000  0.4073730000000 1.0
C      1  0.5229970000000  0.4988960000000  0.5033270000000 1.0
C      1  0.4814150000000  0.4512010000000  0.4710760000000 1.0
C      1  0.4010060000000  0.5463210000000  0.5023560000000 1.0
C      1  0.4388900000000  0.5293970000000  0.5069660000000 1.0
C      1  0.5080960000000  0.4734520000000  0.5051720000000 1.0
C      1  0.5423050000000  0.4834070000000  0.4118640000000 1.0
C      1  0.5052060000000  0.5252110000000  0.5936680000000 1.0
C      1  0.5439170000000  0.4045710000000  0.5219480000000 1.0
C      1  0.5113920000000  0.4448630000000  0.4683060000000 1.0
C      1  0.5288980000000  0.5420020000000  0.4197130000000 1.0
C      1  0.4077950000000  0.4531710000000  0.5166190000000 1.0
C      1  0.5807080000000  0.4735280000000  0.4670860000000 1.0
C      1  0.5673860000000  0.4619440000000  0.5214340000000 1.0
C      1  0.5021200000000  0.5211970000000  0.5019480000000 1.0
C      1  0.5505860000000  0.5729500000000  0.4667940000000 1.0
C      1  0.4053250000000  0.4903060000000  0.4566840000000 1.0
C      1  0.4668270000000  0.4175460000000  0.5360310000000 1.0
C      1  0.4969500000000  0.4937760000000  0.4419200000000 1.0
C      1  0.5899190000000  0.5455000000000  0.5146350000000 1.0
C      1  0.4803860000000  0.5130150000000  0.5217880000000 1.0
C      1  0.4036530000000  0.4667760000000  0.4719940000000 1.0
C      1  0.5367900000000  0.5134120000000  0.5242420000000 1.0
C      1  0.4801940000000  0.4992690000000  0.4673220000000 1.0
C      1  0.4783260000000  0.5955370000000  0.4608220000000 1.0
C      1  0.5650690000000  0.5636970000000  0.5135160000000 1.0
C      1  0.4536850000000  0.5933010000000  0.4720850000000 1.0
C      1  0.4628820000000  0.5737490000000  0.5351610000000 1.0
C      1  0.4262610000000  0.4496190000000  0.4650960000000 1.0
C      1  0.5002100000000  0.5719200000000  0.5032200000000 1.0
C      1  0.4212610000000  0.5338270000000  0.4609920000000 1.0
C      1  0.4864250000000  0.5852760000000  0.5458910000000 1.0
C      1  0.4996350000000  0.3967650000000  0.4946400000000 1.0
C      1  0.4827830000000  0.4770760000000  0.4880110000000 1.0
C      1  0.5221050000000  0.5094520000000  0.5474470000000 1.0
C      1  0.5434090000000  0.4400690000000  0.5597220000000 1.0
C      1  0.5608410000000  0.5448710000000  0.4583720000000 1.0
C      1  0.4299430000000  0.5371610000000  0.5398010000000 1.0
C      1  0.4636140000000  0.5292090000000  0.4268620000000 1.0
C      1  0.5946650000000  0.4851200000000  0.4897620000000 1.0
C      1  0.4011070000000  0.5156790000000  0.4681460000000 1.0
C      1  0.5613250000000  0.4615230000000  0.5487360000000 1.0
C      1  0.4265990000000  0.5500740000000  0.4859870000000 1.0
C      1  0.4768740000000  0.5332000000000  0.5911050000000 1.0
C      1  0.5348080000000  0.5051890000000  0.4781570000000 1.0
C      1  0.5554780000000  0.4252680000000  0.4564090000000 1.0
C      1  0.5004790000000  0.5766580000000  0.4730070000000 1.0
C      1  0.4688130000000  0.5652080000000  0.5077140000000 1.0
C      1  0.4682050000000  0.4553280000000  0.4436110000000 1.0
C      1  0.5971310000000  0.5144580000000  0.4542720000000 1.0
C      1  0.4289670000000  0.4361110000000  0.5102980000000 1.0
C      1  0.3953410000000  0.4708100000000  0.4984730000000 1.0
C      1  0.4227020000000  0.5106390000000  0.5534130000000 1.0
C      1  0.4642480000000  0.4660070000000  0.5326040000000 1.0
C      1  0.5147710000000  0.5464270000000  0.5074920000000 1.0
C      1  0.4909130000000  0.5740960000000  0.4250930000000 1.0
C      1  0.4464440000000  0.5729420000000  0.4878850000000 1.0
C      1  0.5589990000000  0.5052250000000  0.5781050000000 1.0
C      1  0.4635030000000  0.4876020000000  0.5100200000000 1.0
C      1  0.5872350000000  0.5008680000000  0.5396040000000 1.0
C      1  0.4411550000000  0.5185370000000  0.4439390000000 1.0
C      1  0.5052200000000  0.4177790000000  0.4533290000000 1.0
C      1  0.5351500000000  0.4574780000000  0.4252710000000 1.0
C      1  0.4945310000000  0.4607660000000  0.5295530000000 1.0
C      1  0.5597440000000  0.5808710000000  0.4912770000000 1.0
C      1  0.4520670000000  0.5033020000000  0.4675620000000 1.0
C      1  0.5427770000000  0.5395400000000  0.5079280000000 1.0
C      1  0.4945890000000  0.4367280000000  0.5779570000000 1.0
C      1  0.6006480000000  0.5366070000000  0.4903190000000 1.0
C      1  0.5213050000000  0.4476750000000  0.5780960000000 1.0
C      1  0.4756720000000  0.5526770000000  0.4371460000000 1.0
C      1  0.5863430000000  0.4823190000000  0.5167040000000 1.0
C      1  0.5344400000000  0.4938890000000  0.5701670000000 1.0
C      1  0.4696030000000  0.4489010000000  0.5754760000000 1.0
C      1  0.4409540000000  0.4966400000000  0.5710770000000 1.0
C      1  0.5277100000000  0.4930250000000  0.4530130000000 1.0
C      1  0.5542960000000  0.5017740000000  0.4331070000000 1.0
C      1  0.4664000000000  0.5358030000000  0.5059800000000 1.0
C      1  0.5250490000000  0.5776330000000  0.4557640000000 1.0
C      1  0.5531570000000  0.4470590000000  0.4995150000000 1.0
C      1  0.5224110000000  0.4745040000000  0.5862750000000 1.0
C      1  0.5590220000000  0.4532790000000  0.4697700000000 1.0
C      1  0.4389770000000  0.4324160000000  0.4840190000000 1.0
C      1  0.5312070000000  0.5762760000000  0.5478600000000 1.0
C      1  0.4907860000000  0.5735950000000  0.5711040000000 1.0
C      1  0.5147720000000  0.4215230000000  0.4276240000000 1.0
C      1  0.4484300000000  0.4387040000000  0.5306520000000 1.0
C      1  0.5186530000000  0.5663710000000  0.5722330000000 1.0
C      1  0.5094380000000  0.5850030000000  0.5294390000000 1.0
C      1  0.5080500000000  0.4484380000000  0.4184510000000 1.0
C      1  0.4824490000000  0.4945860000000  0.5701040000000 1.0
C      1  0.5040450000000  0.4958300000000  0.5901620000000 1.0
C      1  0.4687000000000  0.5560330000000  0.5766400000000 1.0
C      1  0.4870310000000  0.4044390000000  0.4702270000000 1.0
C      1  0.4943180000000  0.5100090000000  0.5468800000000 1.0
C      1  0.5276090000000  0.5428390000000  0.5858350000000 1.0
C      1  0.4408800000000  0.4624790000000  0.4442250000000 1.0
C      1  0.5693190000000  0.5458520000000  0.5565320000000 1.0
C      1  0.4296770000000  0.4898810000000  0.4422420000000 1.0
C      1  0.3933580000000  0.4968450000000  0.5108870000000 1.0
C      1  0.4878810000000  0.5141490000000  0.4213100000000 1.0
C      1  0.6062520000000  0.5097050000000  0.4813010000000 1.0
C      1  0.4507360000000  0.5559740000000  0.5533300000000 1.0
C      1  0.5485230000000  0.4073010000000  0.4779850000000 1.0
C      1  0.4414430000000  0.5009910000000  0.4958810000000 1.0
C      1  0.4879360000000  0.5500430000000  0.4630190000000 1.0
C      1  0.4112030000000  0.4677850000000  0.5396300000000 1.0
C      1  0.4836540000000  0.4166210000000  0.5112160000000 1.0
C      1  0.5866340000000  0.5303100000000  0.5387410000000 1.0
C      1  0.4831370000000  0.5269320000000  0.4797280000000 1.0
C      1  0.3915300000000  0.5199700000000  0.4944290000000 1.0
C      1  0.4613380000000  0.4740380000000  0.5621080000000 1.0
C      1  0.5243850000000  0.4977320000000  0.3976670000000 1.0
C      1  0.5443270000000  0.4153690000000  0.5463510000000 1.0
C      1  0.5514100000000  0.5314350000000  0.4325640000000 1.0
C      1  0.5550720000000  0.5335500000000  0.5778010000000 1.0
C      1  0.5898370000000  0.5408390000000  0.4625570000000 1.0
C      1  0.5429750000000  0.4286600000000  0.4308220000000 1.0
C      1  0.4056140000000  0.4943670000000  0.5374710000000 1.0
C      1  0.5600410000000  0.4182630000000  0.5022290000000 1.0
C      1  0.4751870000000  0.4254800000000  0.5611780000000 1.0
C      1  0.4686950000000  0.4258480000000  0.4829640000000 1.0
C      1  0.5791100000000  0.4941970000000  0.4466620000000 1.0
C      1  0.4067430000000  0.5520110000000  0.5284390000000 1.0
C      1  0.5324380000000  0.4632710000000  0.4552870000000 1.0
C      1  0.4828080000000  0.5981640000000  0.4339770000000 1.0
C      1  0.4616220000000  0.5102570000000  0.5845240000000 1.0
C      1  0.5036140000000  0.4359610000000  0.5184780000000 1.0
C      1  0.4890120000000  0.4663220000000  0.4284440000000 1.0
C      1  0.5491740000000  0.5282990000000  0.4814220000000 1.0
C      1  0.5574250000000  0.5678890000000  0.5419900000000 1.0
C      1  0.5725170000000  0.4879470000000  0.5599840000000 1.0
END
