TITL C-22546-8191-1 -0.126312341259316 125000 -94.9561268322474 0 0 15 (C1) n - 1
REM
REM in /rds/project/t2_vol4/rds-t2-cs072/BORA/CARBON/from-Arr/AIRSS/Generating-Clusters/GAP-ML-2020/Only-C1/SD-CG/HFTN-CG
REM
REM
REM
REM
REM
REM ./C.cell (11c1c37f851c82e70ff6c80c92926a4b)
REM AIRSS Version 0.9.1 bugfix July 2018 build 013d7b7c2542+ Fri, 06 Jul 2018 19:26:36 +0100
REM compiler GCC version 9.3.0
REM options -cpp -mtune=generic -march=x86-64 -g -O0
REM seed -687752027 -609609809 1866012119 1701464325 451803447 -1378061995 -335504968 1896643368 -1898245367 1563625460 1064513867 1384270507 -1280529818 -2033542118 -630143498 -1422552878 -918373893 1184517699 -555235603 -565465846 -1459809713 1011627740 561793707 176685442 -1773759340 -2106200982 -1591356675 358660181 -279246469 -1052639369 44823398 -1161746004 -1510131073
REM
CELL 1.54180   50.00000   50.00000   50.00000   90.00000   90.00000   90.00000
LATT -1
SFAC C  
C      1  0.4895490000000  0.5370660000000  0.5107890000000 1.0
C      1  0.4754010000000  0.5248570000000  0.5305220000000 1.0
C      1  0.5187630000000  0.5333330000000  0.5130160000000 1.0
C      1  0.5094040000000  0.5217340000000  0.4708530000000 1.0
C      1  0.5235120000000  0.5397210000000  0.4862830000000 1.0
C      1  0.4706050000000  0.4581800000000  0.5143740000000 1.0
C      1  0.4904760000000  0.4752470000000  0.5230950000000 1.0
C      1  0.4895440000000  0.5376340000000  0.4828950000000 1.0
C      1  0.4988390000000  0.4539720000000  0.4736760000000 1.0
C      1  0.5168380000000  0.4812830000000  0.5087720000000 1.0
C      1  0.4781930000000  0.4540880000000  0.4890570000000 1.0
C      1  0.5180830000000  0.5061230000000  0.5221490000000 1.0
C      1  0.5141750000000  0.4771850000000  0.4796450000000 1.0
C      1  0.5156110000000  0.4976180000000  0.4613790000000 1.0
C      1  0.4910070000000  0.5019600000000  0.5334930000000 1.0
END
