TITL C-22857-8352-2 -0.215348771505166 125000 -399.955476367358 0 0 59 (C1) n - 1
REM
REM in /rds/project/t2_vol4/rds-t2-cs072/BORA/CARBON/from-Arr/AIRSS/Generating-Clusters/GAP-ML-2020/Only-C1/SD-CG/HFTN-CG
REM
REM
REM
REM
REM
REM ./C.cell (11c1c37f851c82e70ff6c80c92926a4b)
REM AIRSS Version 0.9.1 bugfix July 2018 build 013d7b7c2542+ Fri, 06 Jul 2018 19:26:36 +0100
REM compiler GCC version 9.3.0
REM options -cpp -mtune=generic -march=x86-64 -g -O0
REM seed 1119071403 -2044475926 -1516922260 1902638795 1260955757 -21808026 -2008316053 -402054608 -2054964124 1532413816 1553393515 2123191056 275266781 1071990746 -1272501767 131643926 1019545326 1375704837 935131399 2007323048 -1229570073 320691406 2124156501 1315011773 1279192785 -915424087 536563982 -2018771718 1713027043 994592316 -756692182 1579194263 2147408683
REM
CELL 1.54180   50.00000   50.00000   50.00000   90.00000   90.00000   90.00000
LATT -1
SFAC C  
C      1  0.4302320000000  0.4620180000000  0.5222030000000 1.0
C      1  0.5423940000000  0.4644670000000  0.5305370000000 1.0
C      1  0.5218410000000  0.4989680000000  0.4750540000000 1.0
C      1  0.4745520000000  0.5479270000000  0.5029690000000 1.0
C      1  0.5004970000000  0.5312450000000  0.4973350000000 1.0
C      1  0.5671760000000  0.4888960000000  0.4966880000000 1.0
C      1  0.5075990000000  0.4836380000000  0.5658470000000 1.0
C      1  0.5044570000000  0.5152010000000  0.5225170000000 1.0
C      1  0.5470170000000  0.4478930000000  0.5048020000000 1.0
C      1  0.5342170000000  0.5376380000000  0.4992290000000 1.0
C      1  0.5547260000000  0.4777350000000  0.4601250000000 1.0
C      1  0.5193090000000  0.5081340000000  0.5738340000000 1.0
C      1  0.4571710000000  0.5179890000000  0.4524340000000 1.0
C      1  0.4241380000000  0.4904650000000  0.5166480000000 1.0
C      1  0.5049450000000  0.4650570000000  0.4473020000000 1.0
C      1  0.5076140000000  0.4451440000000  0.4663200000000 1.0
C      1  0.5357540000000  0.5635920000000  0.5112510000000 1.0
C      1  0.5353420000000  0.5176740000000  0.5236930000000 1.0
C      1  0.4804210000000  0.4805110000000  0.5577940000000 1.0
C      1  0.4343610000000  0.4826750000000  0.5413290000000 1.0
C      1  0.4662430000000  0.5584550000000  0.4772610000000 1.0
C      1  0.4591420000000  0.4490320000000  0.4819620000000 1.0
C      1  0.4743340000000  0.5019330000000  0.4357100000000 1.0
C      1  0.4918840000000  0.5441590000000  0.4352510000000 1.0
C      1  0.4799620000000  0.4924630000000  0.4885800000000 1.0
C      1  0.4516400000000  0.4476730000000  0.5101200000000 1.0
C      1  0.4535060000000  0.5281960000000  0.5154900000000 1.0
C      1  0.4470460000000  0.5019320000000  0.4738890000000 1.0
C      1  0.5423580000000  0.5233180000000  0.4734380000000 1.0
C      1  0.4887660000000  0.5578800000000  0.5279640000000 1.0
C      1  0.4614560000000  0.5213780000000  0.5416310000000 1.0
C      1  0.4786290000000  0.4764680000000  0.4457510000000 1.0
C      1  0.5063790000000  0.5344290000000  0.5663350000000 1.0
C      1  0.5445610000000  0.5296900000000  0.5492990000000 1.0
C      1  0.5456010000000  0.4906010000000  0.5169030000000 1.0
C      1  0.5638380000000  0.5037200000000  0.4730720000000 1.0
C      1  0.4620820000000  0.4755550000000  0.4705250000000 1.0
C      1  0.5464870000000  0.5100470000000  0.5693270000000 1.0
C      1  0.5180070000000  0.5536400000000  0.4374800000000 1.0
C      1  0.5206880000000  0.4487770000000  0.4937080000000 1.0
C      1  0.4369990000000  0.5098570000000  0.5001120000000 1.0
C      1  0.5331590000000  0.5323660000000  0.4465940000000 1.0
C      1  0.5275170000000  0.4841900000000  0.4489070000000 1.0
C      1  0.5265640000000  0.5515470000000  0.5552850000000 1.0
C      1  0.4877120000000  0.5334060000000  0.5447420000000 1.0
C      1  0.4963910000000  0.5126480000000  0.4754440000000 1.0
C      1  0.5611970000000  0.4637220000000  0.4845450000000 1.0
C      1  0.4687600000000  0.5451160000000  0.4535470000000 1.0
C      1  0.4963900000000  0.5161430000000  0.4266550000000 1.0
C      1  0.5186870000000  0.4644870000000  0.5462710000000 1.0
C      1  0.5229760000000  0.5087360000000  0.4329700000000 1.0
C      1  0.4900720000000  0.4648890000000  0.5345840000000 1.0
C      1  0.4773730000000  0.4421840000000  0.5225760000000 1.0
C      1  0.4954130000000  0.4875930000000  0.5125620000000 1.0
C      1  0.5204280000000  0.4812520000000  0.4989670000000 1.0
C      1  0.4836410000000  0.4338570000000  0.4777820000000 1.0
C      1  0.4568670000000  0.4954990000000  0.5526560000000 1.0
C      1  0.5169140000000  0.5634980000000  0.5309370000000 1.0
C      1  0.4965680000000  0.4327970000000  0.5032580000000 1.0
END
