TITL C-221373-4556-11 0.0980215548792057 125000 -84.5502083587026 0 0 14 (C1) n - 1
REM
REM in /rds/project/t2_vol4/rds-t2-cs072/BORA/CARBON/from-Arr/AIRSS/Generating-Clusters/GAP-ML-2020/Only-C1/SD-CG/HFTN-CG
REM
REM
REM
REM
REM
REM ./C.cell (11c1c37f851c82e70ff6c80c92926a4b)
REM AIRSS Version 0.9.1 bugfix July 2018 build 013d7b7c2542+ Fri, 06 Jul 2018 19:26:36 +0100
REM compiler GCC version 9.3.0
REM options -cpp -mtune=generic -march=x86-64 -g -O0
REM seed -336190415 1815387371 -1868236555 1893129417 455296044 -384228008 -1480146305 -1763669799 905762362 -2046562656 1445817262 -775923598 1015779006 -81941216 -1777004010 -90351138 -267725740 471976840 -76201468 1345126112 -1453920487 -2023552438 1104900249 -804250560 1672018477 1587265577 -992011578 -1057678660 945486468 1115326131 -1180522756 -595445849 -836749685
REM
CELL 1.54180   50.00000   50.00000   50.00000   90.00000   90.00000   90.00000
LATT -1
SFAC C  
C      1  0.4573710000000  0.4746510000000  0.5466180000000 1.0
C      1  0.5049660000000  0.5324700000000  0.4961990000000 1.0
C      1  0.4713500000000  0.5045240000000  0.5225060000000 1.0
C      1  0.4519200000000  0.5001690000000  0.5435960000000 1.0
C      1  0.5204790000000  0.5030100000000  0.4572140000000 1.0
C      1  0.4755490000000  0.4748680000000  0.5229280000000 1.0
C      1  0.5050450000000  0.5214440000000  0.4427520000000 1.0
C      1  0.5259520000000  0.4809300000000  0.4709940000000 1.0
C      1  0.5282950000000  0.5232790000000  0.5080130000000 1.0
C      1  0.4856810000000  0.4561430000000  0.5072390000000 1.0
C      1  0.5488690000000  0.5103290000000  0.5143760000000 1.0
C      1  0.5357440000000  0.4664570000000  0.4896740000000 1.0
C      1  0.5066490000000  0.5276960000000  0.4687170000000 1.0
C      1  0.4821300000000  0.5240280000000  0.5091730000000 1.0
END
