TITL C-22562-8240-9 -0.0150416028987647 125000 -255.560356163407 0 0 39 (C1) n - 1
REM
REM in /rds/project/t2_vol4/rds-t2-cs072/BORA/CARBON/from-Arr/AIRSS/Generating-Clusters/GAP-ML-2020/Only-C1/SD-CG/HFTN-CG
REM
REM
REM
REM
REM
REM ./C.cell (11c1c37f851c82e70ff6c80c92926a4b)
REM AIRSS Version 0.9.1 bugfix July 2018 build 013d7b7c2542+ Fri, 06 Jul 2018 19:26:36 +0100
REM compiler GCC version 9.3.0
REM options -cpp -mtune=generic -march=x86-64 -g -O0
REM seed 568280219 1649233778 -358122328 -159873160 829513994 1591866817 1383677521 465584538 2019233796 770623087 -208925394 -1033541660 808149718 -1444010769 1071087631 -647301176 1768798361 -708395503 -478441216 -865381172 -362575656 2084387132 1113133085 1630618384 1288625964 -1128751319 855318100 -1157674459 220360243 -1328367930 -1677388799 1867892847 9556364
REM
CELL 1.54180   50.00000   50.00000   50.00000   90.00000   90.00000   90.00000
LATT -1
SFAC C  
C      1  0.4765460000000  0.4903160000000  0.4612670000000 1.0
C      1  0.4891350000000  0.5366140000000  0.4671180000000 1.0
C      1  0.5392650000000  0.4650560000000  0.5332540000000 1.0
C      1  0.4792990000000  0.5356660000000  0.4954900000000 1.0
C      1  0.5179160000000  0.4608680000000  0.4597360000000 1.0
C      1  0.5194650000000  0.4825720000000  0.4957280000000 1.0
C      1  0.5221210000000  0.5100660000000  0.5096760000000 1.0
C      1  0.4791090000000  0.4591310000000  0.4956850000000 1.0
C      1  0.5442610000000  0.5217270000000  0.4932310000000 1.0
C      1  0.4944150000000  0.4786320000000  0.5385240000000 1.0
C      1  0.4950770000000  0.5252380000000  0.5461370000000 1.0
C      1  0.4948970000000  0.4483490000000  0.4715510000000 1.0
C      1  0.5203110000000  0.5594610000000  0.5024840000000 1.0
C      1  0.4518600000000  0.5283430000000  0.5040970000000 1.0
C      1  0.4518490000000  0.4653090000000  0.4920600000000 1.0
C      1  0.4899860000000  0.4871940000000  0.4884190000000 1.0
C      1  0.5399510000000  0.5004350000000  0.5513090000000 1.0
C      1  0.4879340000000  0.5498530000000  0.5388950000000 1.0
C      1  0.4930740000000  0.4567510000000  0.5207340000000 1.0
C      1  0.4386710000000  0.4843100000000  0.5088060000000 1.0
C      1  0.4911200000000  0.5112430000000  0.5057690000000 1.0
C      1  0.5435750000000  0.5509740000000  0.4952700000000 1.0
C      1  0.4918350000000  0.4655850000000  0.4504970000000 1.0
C      1  0.4530950000000  0.5047100000000  0.5220990000000 1.0
C      1  0.5563370000000  0.4875400000000  0.5296470000000 1.0
C      1  0.4287400000000  0.4999890000000  0.4824290000000 1.0
C      1  0.5350550000000  0.5117370000000  0.4665030000000 1.0
C      1  0.5230550000000  0.5174330000000  0.5384480000000 1.0
C      1  0.5116840000000  0.5229490000000  0.4574610000000 1.0
C      1  0.5210930000000  0.4587530000000  0.5129440000000 1.0
C      1  0.5618860000000  0.4792770000000  0.4846330000000 1.0
C      1  0.4854870000000  0.5159620000000  0.4499560000000 1.0
C      1  0.5202020000000  0.4792260000000  0.5509030000000 1.0
C      1  0.5365990000000  0.4818190000000  0.4714830000000 1.0
C      1  0.4947770000000  0.5543770000000  0.5122910000000 1.0
C      1  0.4281980000000  0.5264820000000  0.4892890000000 1.0
C      1  0.5626120000000  0.4984050000000  0.5046330000000 1.0
C      1  0.4805180000000  0.5035570000000  0.5324280000000 1.0
C      1  0.4489860000000  0.4840890000000  0.4691170000000 1.0
END
