TITL C-22567-8119-2 -279.56998236209 125000 -738.610142493942 0 0 104 (C1) n - 1
REM
REM in /rds/project/t2_vol4/rds-t2-cs072/BORA/CARBON/from-Arr/AIRSS/Generating-Clusters/GAP-ML-2020/Only-C1/SD-CG/HFTN-CG
REM
REM
REM
REM
REM
REM ./C.cell (11c1c37f851c82e70ff6c80c92926a4b)
REM AIRSS Version 0.9.1 bugfix July 2018 build 013d7b7c2542+ Fri, 06 Jul 2018 19:26:36 +0100
REM compiler GCC version 9.3.0
REM options -cpp -mtune=generic -march=x86-64 -g -O0
REM seed -765917116 -128035655 -1170860859 -901153801 -505672016 -1765967596 -793017486 -1572098009 1385842500 -71205460 1250976466 64646944 -442972556 -276520281 219712625 1777276781 2076522759 125179826 1128548951 1898649664 -805162577 1451507230 1727311123 -1041012108 -1328590283 -1766151728 -726611234 1725938061 -1004324835 1284748826 -1798443989 -1879623248 -1759805758
REM
CELL 1.54180   50.00000   50.00000   50.00000   90.00000   90.00000   90.00000
LATT -1
SFAC C  
C      1  0.4873260000000  0.4848470000000  0.5171640000000 1.0
C      1  0.4538640000000  0.4954530000000  0.4316410000000 1.0
C      1  0.4648490000000  0.5874360000000  0.5247490000000 1.0
C      1  0.5323350000000  0.4578750000000  0.5705350000000 1.0
C      1  0.4153800000000  0.4900370000000  0.5144110000000 1.0
C      1  0.5580910000000  0.4560780000000  0.4703940000000 1.0
C      1  0.5074620000000  0.5790770000000  0.5383650000000 1.0
C      1  0.5337750000000  0.5686740000000  0.5395210000000 1.0
C      1  0.4351260000000  0.4556300000000  0.4604450000000 1.0
C      1  0.4407990000000  0.5055830000000  0.5101220000000 1.0
C      1  0.4326110000000  0.4489860000000  0.5118330000000 1.0
C      1  0.4866110000000  0.4074980000000  0.4820490000000 1.0
C      1  0.4899980000000  0.5532090000000  0.4442800000000 1.0
C      1  0.4809950000000  0.4831770000000  0.4291360000000 1.0
C      1  0.4597250000000  0.5248530000000  0.4291570000000 1.0
C      1  0.5182700000000  0.5415940000000  0.4845590000000 1.0
C      1  0.4708710000000  0.4666260000000  0.5031820000000 1.0
C      1  0.4807590000000  0.4346360000000  0.4449930000000 1.0
C      1  0.4346380000000  0.5546890000000  0.5166720000000 1.0
C      1  0.5383470000000  0.5484590000000  0.4408670000000 1.0
C      1  0.4762830000000  0.5021510000000  0.5787840000000 1.0
C      1  0.5040770000000  0.4609940000000  0.5737390000000 1.0
C      1  0.4444340000000  0.5668240000000  0.4587380000000 1.0
C      1  0.4576010000000  0.4559250000000  0.5614040000000 1.0
C      1  0.5073130000000  0.4051820000000  0.5009050000000 1.0
C      1  0.5449440000000  0.4839520000000  0.5746210000000 1.0
C      1  0.5646930000000  0.5216320000000  0.4747770000000 1.0
C      1  0.4437280000000  0.5519550000000  0.5447610000000 1.0
C      1  0.4240630000000  0.4686240000000  0.5308030000000 1.0
C      1  0.4622710000000  0.4390430000000  0.5115660000000 1.0
C      1  0.5227270000000  0.5008180000000  0.4504950000000 1.0
C      1  0.4978990000000  0.4147090000000  0.4564260000000 1.0
C      1  0.5002820000000  0.4885150000000  0.5823620000000 1.0
C      1  0.5912830000000  0.4801450000000  0.5067020000000 1.0
C      1  0.4563710000000  0.4366380000000  0.4613470000000 1.0
C      1  0.5348690000000  0.4823290000000  0.4298830000000 1.0
C      1  0.4556060000000  0.5012110000000  0.5565930000000 1.0
C      1  0.4670220000000  0.5060720000000  0.5279380000000 1.0
C      1  0.4735260000000  0.5070930000000  0.4795710000000 1.0
C      1  0.4465890000000  0.5789330000000  0.5055800000000 1.0
C      1  0.4685500000000  0.5336350000000  0.4894470000000 1.0
C      1  0.4893030000000  0.5809400000000  0.4846310000000 1.0
C      1  0.4584420000000  0.5814660000000  0.4797650000000 1.0
C      1  0.5359530000000  0.4721970000000  0.4871970000000 1.0
C      1  0.5087720000000  0.5249580000000  0.5080270000000 1.0
C      1  0.5076970000000  0.4174610000000  0.5267080000000 1.0
C      1  0.4633190000000  0.5725720000000  0.5488180000000 1.0
C      1  0.5231960000000  0.5327840000000  0.5745940000000 1.0
C      1  0.4910650000000  0.5873610000000  0.5146250000000 1.0
C      1  0.4404360000000  0.4748840000000  0.5536100000000 1.0
C      1  0.4322050000000  0.4827690000000  0.4473380000000 1.0
C      1  0.5363490000000  0.4244470000000  0.5318630000000 1.0
C      1  0.4632590000000  0.4225950000000  0.4864270000000 1.0
C      1  0.4209180000000  0.4565710000000  0.4858560000000 1.0
C      1  0.4837180000000  0.4311330000000  0.5344320000000 1.0
C      1  0.5630520000000  0.4846190000000  0.4269240000000 1.0
C      1  0.5261750000000  0.4183870000000  0.4609880000000 1.0
C      1  0.5503550000000  0.4218910000000  0.5058900000000 1.0
C      1  0.5681670000000  0.4842920000000  0.5576850000000 1.0
C      1  0.5161450000000  0.4859120000000  0.4746030000000 1.0
C      1  0.5334240000000  0.4705160000000  0.5135800000000 1.0
C      1  0.5228460000000  0.4570820000000  0.4327690000000 1.0
C      1  0.5698650000000  0.4586150000000  0.5435940000000 1.0
C      1  0.5360600000000  0.5275940000000  0.4632160000000 1.0
C      1  0.4970550000000  0.5459010000000  0.5747800000000 1.0
C      1  0.5759870000000  0.5081950000000  0.5442330000000 1.0
C      1  0.4983130000000  0.4999910000000  0.4915240000000 1.0
C      1  0.5332550000000  0.5679710000000  0.4896160000000 1.0
C      1  0.5392450000000  0.4407910000000  0.4507140000000 1.0
C      1  0.4220400000000  0.5518780000000  0.4640890000000 1.0
C      1  0.4900940000000  0.5509770000000  0.4752510000000 1.0
C      1  0.4153120000000  0.4987220000000  0.4660170000000 1.0
C      1  0.4878380000000  0.5282580000000  0.4281980000000 1.0
C      1  0.5847400000000  0.5044190000000  0.5168330000000 1.0
C      1  0.4493700000000  0.5309720000000  0.5629300000000 1.0
C      1  0.4081840000000  0.4817990000000  0.4881000000000 1.0
C      1  0.5696730000000  0.5132980000000  0.4309190000000 1.0
C      1  0.5473570000000  0.4422110000000  0.5514280000000 1.0
C      1  0.4555780000000  0.4874560000000  0.4893440000000 1.0
C      1  0.4365440000000  0.5319820000000  0.4976240000000 1.0
C      1  0.5686730000000  0.4406620000000  0.4961410000000 1.0
C      1  0.5789560000000  0.5042880000000  0.4574060000000 1.0
C      1  0.5806780000000  0.4567630000000  0.5163640000000 1.0
C      1  0.5251150000000  0.5040630000000  0.5809230000000 1.0
C      1  0.4999940000000  0.5038290000000  0.4320070000000 1.0
C      1  0.4809510000000  0.5309780000000  0.5163230000000 1.0
C      1  0.4827450000000  0.4463880000000  0.5594180000000 1.0
C      1  0.5727610000000  0.4758600000000  0.4536100000000 1.0
C      1  0.5578610000000  0.5366240000000  0.4247370000000 1.0
C      1  0.4195870000000  0.5268240000000  0.4734540000000 1.0
C      1  0.5172140000000  0.5826410000000  0.4704560000000 1.0
C      1  0.4596950000000  0.5527620000000  0.4392420000000 1.0
C      1  0.5640960000000  0.5344160000000  0.5447760000000 1.0
C      1  0.5477340000000  0.5672960000000  0.5143640000000 1.0
C      1  0.5151830000000  0.4851150000000  0.5275140000000 1.0
C      1  0.5746560000000  0.5261080000000  0.5005070000000 1.0
C      1  0.5419590000000  0.5468320000000  0.5576420000000 1.0
C      1  0.4900560000000  0.5680900000000  0.5581850000000 1.0
C      1  0.5661400000000  0.5460760000000  0.5185980000000 1.0
C      1  0.4735290000000  0.5308620000000  0.5796400000000 1.0
C      1  0.4934180000000  0.4568890000000  0.4320360000000 1.0
C      1  0.5169680000000  0.5680670000000  0.4448380000000 1.0
C      1  0.5321030000000  0.4099750000000  0.4877710000000 1.0
C      1  0.5226610000000  0.5119340000000  0.5287890000000 1.0
END
