TITL C-22561-9486-6 48.0357491750716 125000 -242.008170570881 0 0 35 (C1) n - 1
REM
REM in /rds/project/t2_vol4/rds-t2-cs072/BORA/CARBON/from-Arr/AIRSS/Generating-Clusters/GAP-ML-2020/Only-C1/SD-CG/HFTN-CG
REM
REM
REM
REM
REM
REM ./C.cell (11c1c37f851c82e70ff6c80c92926a4b)
REM AIRSS Version 0.9.1 bugfix July 2018 build 013d7b7c2542+ Fri, 06 Jul 2018 19:26:36 +0100
REM compiler GCC version 9.3.0
REM options -cpp -mtune=generic -march=x86-64 -g -O0
REM seed -910652428 -2050849154 1576286544 -641397141 -806604390 -1151690549 -1988840785 -1100135166 -1917121273 -1622259154 -1959753014 -1189750856 -879793527 1389957914 1058977706 -1690131280 322398091 1099649899 -1121547905 -266712843 -1152252771 640835445 -330935794 -1704957631 -763444463 -2122032716 551736295 1860693717 -1484627537 803836878 1225535354 -1585489398 259582643
REM
CELL 1.54180   50.00000   50.00000   50.00000   90.00000   90.00000   90.00000
LATT -1
SFAC C  
C      1  0.4935820000000  0.5402180000000  0.5253980000000 1.0
C      1  0.5027980000000  0.5149670000000  0.4556500000000 1.0
C      1  0.4986060000000  0.4917560000000  0.5530410000000 1.0
C      1  0.4591840000000  0.5139150000000  0.4812590000000 1.0
C      1  0.5519710000000  0.4896440000000  0.5165900000000 1.0
C      1  0.4544740000000  0.4868690000000  0.5278450000000 1.0
C      1  0.4712760000000  0.5289480000000  0.5381340000000 1.0
C      1  0.4605170000000  0.4727020000000  0.4558220000000 1.0
C      1  0.5381630000000  0.4871780000000  0.5405360000000 1.0
C      1  0.4736570000000  0.5003560000000  0.5446320000000 1.0
C      1  0.4446970000000  0.5326690000000  0.5271230000000 1.0
C      1  0.5221210000000  0.5095270000000  0.5502570000000 1.0
C      1  0.5163990000000  0.4877610000000  0.4560950000000 1.0
C      1  0.4836200000000  0.5263240000000  0.4757880000000 1.0
C      1  0.5391700000000  0.5380900000000  0.5142100000000 1.0
C      1  0.5018310000000  0.4503300000000  0.4813140000000 1.0
C      1  0.5518560000000  0.5143820000000  0.4763950000000 1.0
C      1  0.4771190000000  0.4624360000000  0.4394650000000 1.0
C      1  0.5244740000000  0.5486950000000  0.4914850000000 1.0
C      1  0.4961590000000  0.5441860000000  0.4961430000000 1.0
C      1  0.5441790000000  0.4716990000000  0.4945840000000 1.0
C      1  0.5008090000000  0.4644500000000  0.4569260000000 1.0
C      1  0.5249970000000  0.4521320000000  0.4989740000000 1.0
C      1  0.4614000000000  0.4707680000000  0.5051970000000 1.0
C      1  0.5414900000000  0.4880490000000  0.4705220000000 1.0
C      1  0.4408650000000  0.5244930000000  0.5005360000000 1.0
C      1  0.5198410000000  0.5342510000000  0.4458010000000 1.0
C      1  0.5143920000000  0.4689520000000  0.5435640000000 1.0
C      1  0.4835940000000  0.4533820000000  0.5043500000000 1.0
C      1  0.5072400000000  0.4530690000000  0.5225990000000 1.0
C      1  0.4549180000000  0.4848350000000  0.4795730000000 1.0
C      1  0.5200880000000  0.5333410000000  0.5355970000000 1.0
C      1  0.4341340000000  0.5069680000000  0.5217680000000 1.0
C      1  0.5350070000000  0.5362120000000  0.4678130000000 1.0
C      1  0.5553730000000  0.5164460000000  0.5050110000000 1.0
END
