TITL C-22849-8287-10 -0.177052017975713 125000 -731.695251126236 0 0 106 (C1) n - 1
REM
REM in /rds/project/t2_vol4/rds-t2-cs072/BORA/CARBON/from-Arr/AIRSS/Generating-Clusters/GAP-ML-2020/Only-C1/SD-CG/HFTN-CG
REM
REM
REM
REM
REM
REM ./C.cell (11c1c37f851c82e70ff6c80c92926a4b)
REM AIRSS Version 0.9.1 bugfix July 2018 build 013d7b7c2542+ Fri, 06 Jul 2018 19:26:36 +0100
REM compiler GCC version 9.3.0
REM options -cpp -mtune=generic -march=x86-64 -g -O0
REM seed -886743243 1399793327 -906374730 -938175142 291932228 376625635 1097620444 -1819477698 2140364488 -593813412 -50766652 -2119085703 -67396840 948674246 -1899957954 1398689228 -901824085 -793552445 153475799 -147510345 -1764547725 1714290650 -951290325 -976723603 -453629305 2034929972 -1081352091 -945092 246964895 2120019022 -685392263 388162412 -232134049
REM
CELL 1.54180   50.00000   50.00000   50.00000   90.00000   90.00000   90.00000
LATT -1
SFAC C  
C      1  0.4816770000000  0.4273130000000  0.4600120000000 1.0
C      1  0.5004420000000  0.5793960000000  0.5066960000000 1.0
C      1  0.4919450000000  0.5315090000000  0.5087980000000 1.0
C      1  0.5331140000000  0.5194580000000  0.5037700000000 1.0
C      1  0.5582480000000  0.4528200000000  0.5455850000000 1.0
C      1  0.4385510000000  0.5259930000000  0.4661940000000 1.0
C      1  0.5504410000000  0.4757000000000  0.4136780000000 1.0
C      1  0.4712020000000  0.5638670000000  0.4738950000000 1.0
C      1  0.5233540000000  0.4910050000000  0.4078030000000 1.0
C      1  0.4947430000000  0.5641750000000  0.5499470000000 1.0
C      1  0.5328630000000  0.5401270000000  0.5664810000000 1.0
C      1  0.5488770000000  0.4379670000000  0.4504340000000 1.0
C      1  0.3952310000000  0.4934250000000  0.5046050000000 1.0
C      1  0.5809760000000  0.5284100000000  0.5098760000000 1.0
C      1  0.5824130000000  0.5189850000000  0.4246930000000 1.0
C      1  0.5245030000000  0.5797290000000  0.4912390000000 1.0
C      1  0.5368340000000  0.5539490000000  0.4532720000000 1.0
C      1  0.4700210000000  0.5110620000000  0.4367260000000 1.0
C      1  0.4993630000000  0.4080990000000  0.5317940000000 1.0
C      1  0.5500460000000  0.4931600000000  0.4718870000000 1.0
C      1  0.5576010000000  0.5742310000000  0.5354130000000 1.0
C      1  0.5367590000000  0.4300730000000  0.5007850000000 1.0
C      1  0.4636740000000  0.4782830000000  0.5180970000000 1.0
C      1  0.5523440000000  0.5445820000000  0.5446030000000 1.0
C      1  0.5334000000000  0.5869360000000  0.5708050000000 1.0
C      1  0.5332060000000  0.5449140000000  0.5201050000000 1.0
C      1  0.5298370000000  0.4871070000000  0.5739470000000 1.0
C      1  0.5572050000000  0.4431980000000  0.5205070000000 1.0
C      1  0.5104960000000  0.4140560000000  0.5076360000000 1.0
C      1  0.5199320000000  0.5730340000000  0.4645460000000 1.0
C      1  0.4504910000000  0.5498800000000  0.4551090000000 1.0
C      1  0.5535130000000  0.5934050000000  0.5549030000000 1.0
C      1  0.4357920000000  0.4754350000000  0.4554060000000 1.0
C      1  0.5495960000000  0.5672720000000  0.5068540000000 1.0
C      1  0.5582910000000  0.4343950000000  0.4781970000000 1.0
C      1  0.4213500000000  0.5125780000000  0.5494140000000 1.0
C      1  0.4151450000000  0.5297290000000  0.5260810000000 1.0
C      1  0.5588790000000  0.4976560000000  0.5391820000000 1.0
C      1  0.5218820000000  0.5284000000000  0.4509510000000 1.0
C      1  0.4422520000000  0.5213280000000  0.5678310000000 1.0
C      1  0.5531060000000  0.4770310000000  0.5587170000000 1.0
C      1  0.5704550000000  0.5235080000000  0.5358640000000 1.0
C      1  0.4920630000000  0.5191340000000  0.4599800000000 1.0
C      1  0.4776890000000  0.5350960000000  0.4826030000000 1.0
C      1  0.4945480000000  0.4480750000000  0.5799280000000 1.0
C      1  0.5212140000000  0.5141960000000  0.5661540000000 1.0
C      1  0.4846810000000  0.5612060000000  0.4305340000000 1.0
C      1  0.4406610000000  0.4351800000000  0.4802260000000 1.0
C      1  0.5072340000000  0.5073850000000  0.5016160000000 1.0
C      1  0.5800050000000  0.5235850000000  0.4518250000000 1.0
C      1  0.4735440000000  0.4357610000000  0.5672100000000 1.0
C      1  0.4511160000000  0.5470850000000  0.5663780000000 1.0
C      1  0.4181460000000  0.4622160000000  0.5304470000000 1.0
C      1  0.4759470000000  0.4634590000000  0.4286080000000 1.0
C      1  0.4370550000000  0.5451720000000  0.5128700000000 1.0
C      1  0.4887040000000  0.4681630000000  0.5196220000000 1.0
C      1  0.4388400000000  0.4749120000000  0.5699450000000 1.0
C      1  0.5040590000000  0.4737540000000  0.5811220000000 1.0
C      1  0.4442490000000  0.5028440000000  0.4506680000000 1.0
C      1  0.3939860000000  0.5177690000000  0.5113690000000 1.0
C      1  0.4855430000000  0.4709380000000  0.4729980000000 1.0
C      1  0.5245060000000  0.4539530000000  0.4873060000000 1.0
C      1  0.5519700000000  0.4524830000000  0.4283040000000 1.0
C      1  0.5087660000000  0.4881530000000  0.5265640000000 1.0
C      1  0.4579080000000  0.4229250000000  0.5000160000000 1.0
C      1  0.4492900000000  0.5254360000000  0.4935030000000 1.0
C      1  0.4252370000000  0.4604060000000  0.4792200000000 1.0
C      1  0.4558180000000  0.4967100000000  0.5773490000000 1.0
C      1  0.4720760000000  0.5774990000000  0.5002790000000 1.0
C      1  0.4649680000000  0.5420350000000  0.4328270000000 1.0
C      1  0.4762040000000  0.4172200000000  0.5437770000000 1.0
C      1  0.4525480000000  0.4218110000000  0.5272470000000 1.0
C      1  0.4925900000000  0.5726490000000  0.4541890000000 1.0
C      1  0.5618280000000  0.5420940000000  0.4669190000000 1.0
C      1  0.5267710000000  0.4852420000000  0.4554140000000 1.0
C      1  0.4966920000000  0.5063330000000  0.5496120000000 1.0
C      1  0.5904620000000  0.5052620000000  0.4960870000000 1.0
C      1  0.4866310000000  0.4254420000000  0.4899340000000 1.0
C      1  0.4949980000000  0.4504910000000  0.4479570000000 1.0
C      1  0.4343140000000  0.4401340000000  0.5403630000000 1.0
C      1  0.4549180000000  0.4329320000000  0.4559020000000 1.0
C      1  0.4589190000000  0.5041010000000  0.5152150000000 1.0
C      1  0.4200880000000  0.4834040000000  0.5503450000000 1.0
C      1  0.5020520000000  0.4947340000000  0.4730940000000 1.0
C      1  0.5315570000000  0.5058290000000  0.4328930000000 1.0
C      1  0.5452830000000  0.4749960000000  0.4951700000000 1.0
C      1  0.4793330000000  0.4894770000000  0.4161650000000 1.0
C      1  0.4772870000000  0.5195010000000  0.5305760000000 1.0
C      1  0.5387320000000  0.4922860000000  0.5182980000000 1.0
C      1  0.5916530000000  0.4781970000000  0.4896550000000 1.0
C      1  0.4954980000000  0.4547440000000  0.4950210000000 1.0
C      1  0.5162960000000  0.5650460000000  0.5681360000000 1.0
C      1  0.5804730000000  0.4985530000000  0.4699940000000 1.0
C      1  0.4657500000000  0.5637830000000  0.5500420000000 1.0
C      1  0.4102210000000  0.4696520000000  0.5029400000000 1.0
C      1  0.5412300000000  0.5208110000000  0.4756100000000 1.0
C      1  0.4511160000000  0.4564600000000  0.4402560000000 1.0
C      1  0.5707510000000  0.5509180000000  0.4935490000000 1.0
C      1  0.4471740000000  0.4481320000000  0.5644250000000 1.0
C      1  0.4838830000000  0.4933420000000  0.5733480000000 1.0
C      1  0.5057800000000  0.5558860000000  0.5234360000000 1.0
C      1  0.5237600000000  0.4552130000000  0.4557460000000 1.0
C      1  0.5701450000000  0.4567280000000  0.4955210000000 1.0
C      1  0.4991690000000  0.4918820000000  0.3963000000000 1.0
C      1  0.4556270000000  0.5657620000000  0.5212730000000 1.0
C      1  0.5603960000000  0.5022460000000  0.4237820000000 1.0
END
