TITL C-22549-8205-1 -0.090233756903185 125000 -336.868109983863 0 0 50 (C1) n - 1
REM
REM in /rds/project/t2_vol4/rds-t2-cs072/BORA/CARBON/from-Arr/AIRSS/Generating-Clusters/GAP-ML-2020/Only-C1/SD-CG/HFTN-CG
REM
REM
REM
REM
REM
REM ./C.cell (11c1c37f851c82e70ff6c80c92926a4b)
REM AIRSS Version 0.9.1 bugfix July 2018 build 013d7b7c2542+ Fri, 06 Jul 2018 19:26:36 +0100
REM compiler GCC version 9.3.0
REM options -cpp -mtune=generic -march=x86-64 -g -O0
REM seed -2049552280 1541807296 -1160635263 776184259 -1042854215 1162124049 -629800164 -821044472 979161496 367168931 487779056 1277091642 -1032651987 252110161 787178252 1463440543 -1265247534 -906282009 1844967629 1849879257 1901999214 1600811050 174142332 579021027 1781806349 -410928805 -834572792 -45616013 325993490 -1855264135 1641177186 1732604408 -2032770014
REM
CELL 1.54180   50.00000   50.00000   50.00000   90.00000   90.00000   90.00000
LATT -1
SFAC C  
C      1  0.5647600000000  0.5245680000000  0.5312370000000 1.0
C      1  0.5309050000000  0.4541530000000  0.5104450000000 1.0
C      1  0.4628720000000  0.5494290000000  0.5023680000000 1.0
C      1  0.4788810000000  0.4468260000000  0.5285600000000 1.0
C      1  0.5334770000000  0.4778890000000  0.4445770000000 1.0
C      1  0.5550370000000  0.5080520000000  0.4725540000000 1.0
C      1  0.4872910000000  0.5565940000000  0.5412510000000 1.0
C      1  0.4775560000000  0.5201630000000  0.5517050000000 1.0
C      1  0.4589120000000  0.4496640000000  0.4784930000000 1.0
C      1  0.5374930000000  0.5060300000000  0.4495840000000 1.0
C      1  0.5495470000000  0.4990140000000  0.5308580000000 1.0
C      1  0.5117420000000  0.5501940000000  0.4999830000000 1.0
C      1  0.4422480000000  0.4737180000000  0.4804630000000 1.0
C      1  0.4413300000000  0.4713190000000  0.5092890000000 1.0
C      1  0.4953130000000  0.5006770000000  0.5054650000000 1.0
C      1  0.4873560000000  0.5189850000000  0.4433810000000 1.0
C      1  0.5281570000000  0.4476340000000  0.4812600000000 1.0
C      1  0.4588440000000  0.5435890000000  0.4748710000000 1.0
C      1  0.5602320000000  0.5417110000000  0.5086790000000 1.0
C      1  0.4475120000000  0.4969040000000  0.4652340000000 1.0
C      1  0.4866720000000  0.5582550000000  0.5136720000000 1.0
C      1  0.4549070000000  0.5125630000000  0.5335290000000 1.0
C      1  0.5137900000000  0.4817550000000  0.5725450000000 1.0
C      1  0.5156190000000  0.5239250000000  0.4496130000000 1.0
C      1  0.4703540000000  0.4708520000000  0.5418760000000 1.0
C      1  0.4952550000000  0.4845070000000  0.5314940000000 1.0
C      1  0.4807660000000  0.4705890000000  0.4397600000000 1.0
C      1  0.4782700000000  0.5464290000000  0.5633990000000 1.0
C      1  0.5465040000000  0.4639740000000  0.4671210000000 1.0
C      1  0.5162310000000  0.4594470000000  0.5599140000000 1.0
C      1  0.5417420000000  0.5414010000000  0.5385280000000 1.0
C      1  0.5253100000000  0.5166920000000  0.5356040000000 1.0
C      1  0.4812050000000  0.5427790000000  0.4589350000000 1.0
C      1  0.4691160000000  0.4961460000000  0.4444210000000 1.0
C      1  0.4604690000000  0.4473920000000  0.5074050000000 1.0
C      1  0.4482280000000  0.4853460000000  0.5324960000000 1.0
C      1  0.4441560000000  0.5195120000000  0.4816770000000 1.0
C      1  0.5034840000000  0.5037400000000  0.5515730000000 1.0
C      1  0.5084870000000  0.5462210000000  0.4688820000000 1.0
C      1  0.4920290000000  0.4883070000000  0.4831710000000 1.0
C      1  0.5373470000000  0.5586650000000  0.5159980000000 1.0
C      1  0.5061150000000  0.4450590000000  0.4619340000000 1.0
C      1  0.5491090000000  0.4776460000000  0.5119990000000 1.0
C      1  0.4774090000000  0.4477150000000  0.4585350000000 1.0
C      1  0.5469630000000  0.5250570000000  0.4915900000000 1.0
C      1  0.5173260000000  0.5202080000000  0.5074420000000 1.0
C      1  0.5091750000000  0.4539590000000  0.5309350000000 1.0
C      1  0.5583700000000  0.4826570000000  0.4851040000000 1.0
C      1  0.5090110000000  0.4657090000000  0.4403090000000 1.0
C      1  0.4471160000000  0.5263810000000  0.5102790000000 1.0
END
