TITL C-22821-2182-3 -232.091734853268 125000 -722.166710822162 0 0 103 (C1) n - 1
REM
REM in /rds/project/t2_vol4/rds-t2-cs072/BORA/CARBON/from-Arr/AIRSS/Generating-Clusters/GAP-ML-2020/Only-C1/SD-CG/HFTN-CG
REM
REM
REM
REM
REM
REM ./C.cell (11c1c37f851c82e70ff6c80c92926a4b)
REM AIRSS Version 0.9.1 bugfix July 2018 build 013d7b7c2542+ Fri, 06 Jul 2018 19:26:36 +0100
REM compiler GCC version 9.3.0
REM options -cpp -mtune=generic -march=x86-64 -g -O0
REM seed 1555927692 -1994512833 -1349774999 973475973 1462266571 -536420491 2116544547 1787528065 521190216 876550109 1089482541 -1680977533 -1828503998 1901552478 -1247431360 -1194511432 707434622 1406665369 673890416 1089562293 1321197208 -1314803068 -420052951 1238056927 2040757825 -1571986349 2107622390 1611904378 -400004711 861973759 -687923188 1746476270 2094842543
REM
CELL 1.54180   50.00000   50.00000   50.00000   90.00000   90.00000   90.00000
LATT -1
SFAC C  
C      1  0.4506790000000  0.4733360000000  0.4160760000000 1.0
C      1  0.5831310000000  0.4726410000000  0.5146120000000 1.0
C      1  0.5144560000000  0.4449700000000  0.4496930000000 1.0
C      1  0.4817470000000  0.5389600000000  0.5788690000000 1.0
C      1  0.4607380000000  0.5198570000000  0.5740490000000 1.0
C      1  0.5293080000000  0.5369570000000  0.4224110000000 1.0
C      1  0.4743100000000  0.5323180000000  0.4182210000000 1.0
C      1  0.4951520000000  0.5226140000000  0.4606660000000 1.0
C      1  0.5615370000000  0.4546510000000  0.5038600000000 1.0
C      1  0.5325000000000  0.5169430000000  0.5004460000000 1.0
C      1  0.5448350000000  0.4719090000000  0.4819460000000 1.0
C      1  0.4719370000000  0.4829680000000  0.5282160000000 1.0
C      1  0.4435590000000  0.4459420000000  0.4579280000000 1.0
C      1  0.4921660000000  0.4117960000000  0.5004520000000 1.0
C      1  0.4711730000000  0.4948090000000  0.5843150000000 1.0
C      1  0.5080570000000  0.5792090000000  0.5283680000000 1.0
C      1  0.4940320000000  0.4243700000000  0.4552580000000 1.0
C      1  0.5397570000000  0.5539810000000  0.4683850000000 1.0
C      1  0.4987450000000  0.4982080000000  0.5910090000000 1.0
C      1  0.5189780000000  0.5099230000000  0.4195940000000 1.0
C      1  0.4907150000000  0.5088220000000  0.4129220000000 1.0
C      1  0.4708690000000  0.5737910000000  0.4971240000000 1.0
C      1  0.4943960000000  0.4555300000000  0.5727230000000 1.0
C      1  0.4449020000000  0.4425970000000  0.5056350000000 1.0
C      1  0.5266500000000  0.4897280000000  0.4385730000000 1.0
C      1  0.4136130000000  0.4732720000000  0.4803970000000 1.0
C      1  0.5538360000000  0.4614530000000  0.5556240000000 1.0
C      1  0.5332150000000  0.5565180000000  0.5634830000000 1.0
C      1  0.5459830000000  0.5395110000000  0.4451210000000 1.0
C      1  0.5613440000000  0.5161040000000  0.4585440000000 1.0
C      1  0.4489720000000  0.5555880000000  0.4621450000000 1.0
C      1  0.5466580000000  0.5507880000000  0.5401350000000 1.0
C      1  0.5807520000000  0.5190280000000  0.5201370000000 1.0
C      1  0.4860490000000  0.5562220000000  0.4272290000000 1.0
C      1  0.5909920000000  0.5092610000000  0.4548230000000 1.0
C      1  0.4986150000000  0.4887340000000  0.5355970000000 1.0
C      1  0.4525170000000  0.4717460000000  0.5483710000000 1.0
C      1  0.5015950000000  0.5173460000000  0.5318130000000 1.0
C      1  0.4184900000000  0.5161740000000  0.4633380000000 1.0
C      1  0.4155350000000  0.5191260000000  0.4916380000000 1.0
C      1  0.5068960000000  0.4097340000000  0.4758880000000 1.0
C      1  0.5119180000000  0.5582140000000  0.4190700000000 1.0
C      1  0.4953880000000  0.4806900000000  0.4774780000000 1.0
C      1  0.5613010000000  0.4336450000000  0.4581420000000 1.0
C      1  0.4812960000000  0.4864190000000  0.4331290000000 1.0
C      1  0.5237010000000  0.4488830000000  0.4793280000000 1.0
C      1  0.5477340000000  0.4889790000000  0.4569630000000 1.0
C      1  0.5702210000000  0.5429190000000  0.5066400000000 1.0
C      1  0.4686890000000  0.4334610000000  0.4650850000000 1.0
C      1  0.5138680000000  0.4763640000000  0.5817370000000 1.0
C      1  0.5538310000000  0.5643110000000  0.5178720000000 1.0
C      1  0.5817120000000  0.4791950000000  0.5426160000000 1.0
C      1  0.5281870000000  0.5742520000000  0.5083730000000 1.0
C      1  0.4720830000000  0.4849290000000  0.4054990000000 1.0
C      1  0.4680580000000  0.4686270000000  0.5729120000000 1.0
C      1  0.5319880000000  0.4206350000000  0.4899540000000 1.0
C      1  0.4192700000000  0.4868030000000  0.4563080000000 1.0
C      1  0.4846990000000  0.5634830000000  0.5654010000000 1.0
C      1  0.4751440000000  0.5648430000000  0.4531700000000 1.0
C      1  0.4656060000000  0.5733940000000  0.5464510000000 1.0
C      1  0.4314860000000  0.4941870000000  0.5480470000000 1.0
C      1  0.4291940000000  0.4493130000000  0.4823290000000 1.0
C      1  0.5613280000000  0.4297630000000  0.4862770000000 1.0
C      1  0.5315290000000  0.5307560000000  0.5761250000000 1.0
C      1  0.5171700000000  0.4725980000000  0.5189760000000 1.0
C      1  0.5347340000000  0.4892720000000  0.5025920000000 1.0
C      1  0.5029280000000  0.4351970000000  0.5574590000000 1.0
C      1  0.4289950000000  0.5413340000000  0.5060590000000 1.0
C      1  0.5064310000000  0.5250490000000  0.5873260000000 1.0
C      1  0.4705930000000  0.5062890000000  0.4534520000000 1.0
C      1  0.5399800000000  0.4521130000000  0.5299500000000 1.0
C      1  0.4330880000000  0.5428390000000  0.5354850000000 1.0
C      1  0.4390610000000  0.5203280000000  0.5543730000000 1.0
C      1  0.6012970000000  0.5005290000000  0.4766270000000 1.0
C      1  0.4534480000000  0.5234560000000  0.4350010000000 1.0
C      1  0.5215160000000  0.4289550000000  0.5380950000000 1.0
C      1  0.4802610000000  0.5801710000000  0.5225970000000 1.0
C      1  0.4673150000000  0.4901510000000  0.4787060000000 1.0
C      1  0.5043820000000  0.4735710000000  0.4469630000000 1.0
C      1  0.5385060000000  0.4819740000000  0.5690690000000 1.0
C      1  0.5193640000000  0.5701720000000  0.4811880000000 1.0
C      1  0.4185140000000  0.4809770000000  0.5262320000000 1.0
C      1  0.4102610000000  0.4918750000000  0.5017120000000 1.0
C      1  0.4737170000000  0.4361080000000  0.4958550000000 1.0
C      1  0.5910220000000  0.4974870000000  0.5029310000000 1.0
C      1  0.4357950000000  0.4569870000000  0.5278600000000 1.0
C      1  0.4354550000000  0.4677790000000  0.4394210000000 1.0
C      1  0.5165780000000  0.4146470000000  0.5149890000000 1.0
C      1  0.5537080000000  0.5331210000000  0.4851740000000 1.0
C      1  0.4657770000000  0.5003510000000  0.5052320000000 1.0
C      1  0.4861860000000  0.5213550000000  0.5076100000000 1.0
C      1  0.4463880000000  0.5589910000000  0.4902660000000 1.0
C      1  0.4332100000000  0.5362270000000  0.4490160000000 1.0
C      1  0.4388600000000  0.5682230000000  0.5462950000000 1.0
C      1  0.5104740000000  0.5708160000000  0.5557990000000 1.0
C      1  0.5417790000000  0.4365960000000  0.4414580000000 1.0
C      1  0.5449050000000  0.5086590000000  0.5578890000000 1.0
C      1  0.5053720000000  0.5127340000000  0.4857170000000 1.0
C      1  0.5813610000000  0.4594140000000  0.5609330000000 1.0
C      1  0.5302480000000  0.5231890000000  0.5303210000000 1.0
C      1  0.5724380000000  0.5069140000000  0.5446130000000 1.0
C      1  0.4902640000000  0.5732270000000  0.4758070000000 1.0
C      1  0.5010030000000  0.4588260000000  0.4964150000000 1.0
END
