TITL C-221371-4336-8 31.9564020614579 125000 -85.8066738699482 0 0 14 (C1) n - 1
REM
REM in /rds/project/t2_vol4/rds-t2-cs072/BORA/CARBON/from-Arr/AIRSS/Generating-Clusters/GAP-ML-2020/Only-C1/SD-CG/HFTN-CG
REM
REM
REM
REM
REM
REM ./C.cell (11c1c37f851c82e70ff6c80c92926a4b)
REM AIRSS Version 0.9.1 bugfix July 2018 build 013d7b7c2542+ Fri, 06 Jul 2018 19:26:36 +0100
REM compiler GCC version 9.3.0
REM options -cpp -mtune=generic -march=x86-64 -g -O0
REM seed -361288791 -1218476118 -559424621 -2091985376 -382563398 -1922475173 -2046416628 1259146952 -1224884206 -580536488 883287423 -246414919 -465083918 -1408257836 -65049820 -208584792 -894805601 522526830 -1153225253 -1396624330 941175711 -686165927 -1415204036 1306242277 -842088086 -1424256360 -860479958 -1231035173 631051574 -1282451214 1750907590 867741233 489869074
REM
CELL 1.54180   50.00000   50.00000   50.00000   90.00000   90.00000   90.00000
LATT -1
SFAC C  
C      1  0.4991010000000  0.4787590000000  0.4707730000000 1.0
C      1  0.5425980000000  0.4760260000000  0.4996980000000 1.0
C      1  0.5167510000000  0.4704080000000  0.4942240000000 1.0
C      1  0.4827400000000  0.4867300000000  0.5120070000000 1.0
C      1  0.5479210000000  0.5038280000000  0.4969010000000 1.0
C      1  0.5089410000000  0.4977810000000  0.4539330000000 1.0
C      1  0.4830070000000  0.4992780000000  0.4851970000000 1.0
C      1  0.4871230000000  0.5445520000000  0.5552140000000 1.0
C      1  0.4980550000000  0.4645570000000  0.5127350000000 1.0
C      1  0.5267140000000  0.5148180000000  0.4888510000000 1.0
C      1  0.5044820000000  0.5182530000000  0.4749660000000 1.0
C      1  0.4679270000000  0.5087130000000  0.5225180000000 1.0
C      1  0.4580360000000  0.5081080000000  0.4937570000000 1.0
C      1  0.4766060000000  0.5281880000000  0.5392260000000 1.0
END
