TITL C-224020-4444-9 25.5654264529419 125000 -435.977458751106 0 0 64 (C1) n - 1
REM
REM in /rds/project/t2_vol4/rds-t2-cs072/BORA/CARBON/from-Arr/AIRSS/Generating-Clusters/GAP-ML-2020/Only-C1/SD-CG/HFTN-CG
REM
REM
REM
REM
REM
REM ./C.cell (11c1c37f851c82e70ff6c80c92926a4b)
REM AIRSS Version 0.9.1 bugfix July 2018 build 013d7b7c2542+ Fri, 06 Jul 2018 19:26:36 +0100
REM compiler GCC version 9.3.0
REM options -cpp -mtune=generic -march=x86-64 -g -O0
REM seed 337355776 -758531893 37288952 913392507 -71280434 597506432 -1238748304 1915955881 -2103489386 204735928 -1675104809 -2144910440 1816889749 2109857360 1546399671 92180315 247036118 -1087187710 -1325301513 -530687422 -1250560137 -1296607604 -1645357586 -558911548 -815247482 1602385890 112933349 -1449657683 512544886 -1990064300 -171065361 133633980 2122862376
REM
CELL 1.54180   50.00000   50.00000   50.00000   90.00000   90.00000   90.00000
LATT -1
SFAC C  
C      1  0.5123320000000  0.5244930000000  0.4326140000000 1.0
C      1  0.4778280000000  0.4359350000000  0.5021940000000 1.0
C      1  0.4773990000000  0.4897880000000  0.5635200000000 1.0
C      1  0.5283730000000  0.4848310000000  0.4846300000000 1.0
C      1  0.5203650000000  0.4360050000000  0.4589300000000 1.0
C      1  0.5460030000000  0.4456700000000  0.4658590000000 1.0
C      1  0.4516990000000  0.4939250000000  0.4500030000000 1.0
C      1  0.5643230000000  0.4695670000000  0.5211440000000 1.0
C      1  0.4787950000000  0.5184760000000  0.5641080000000 1.0
C      1  0.5121900000000  0.5506340000000  0.5455570000000 1.0
C      1  0.5509960000000  0.4773730000000  0.5436370000000 1.0
C      1  0.5236270000000  0.4981610000000  0.4358380000000 1.0
C      1  0.4784010000000  0.5461560000000  0.4750300000000 1.0
C      1  0.4287560000000  0.4498540000000  0.5024840000000 1.0
C      1  0.4598850000000  0.5400670000000  0.4994330000000 1.0
C      1  0.5543250000000  0.5283180000000  0.4905210000000 1.0
C      1  0.5267950000000  0.5106280000000  0.5676610000000 1.0
C      1  0.4522760000000  0.4435020000000  0.5144400000000 1.0
C      1  0.4609560000000  0.4536360000000  0.5405000000000 1.0
C      1  0.4545840000000  0.4794450000000  0.4731780000000 1.0
C      1  0.4889270000000  0.4475640000000  0.5445760000000 1.0
C      1  0.5434140000000  0.5209700000000  0.5472280000000 1.0
C      1  0.4660690000000  0.5361080000000  0.4509120000000 1.0
C      1  0.5168630000000  0.4643260000000  0.5037130000000 1.0
C      1  0.5282090000000  0.4812570000000  0.5653940000000 1.0
C      1  0.4612810000000  0.5300080000000  0.5443400000000 1.0
C      1  0.5027870000000  0.5262090000000  0.4738090000000 1.0
C      1  0.5206720000000  0.5662530000000  0.4672690000000 1.0
C      1  0.5028070000000  0.4959970000000  0.4694800000000 1.0
C      1  0.4928770000000  0.5638370000000  0.5283940000000 1.0
C      1  0.4976060000000  0.4308380000000  0.5227950000000 1.0
C      1  0.5704450000000  0.4707250000000  0.4960590000000 1.0
C      1  0.5015420000000  0.4730510000000  0.5550840000000 1.0
C      1  0.5321050000000  0.4289850000000  0.4839100000000 1.0
C      1  0.4666190000000  0.5525380000000  0.5264070000000 1.0
C      1  0.4995180000000  0.4541020000000  0.4578820000000 1.0
C      1  0.4910530000000  0.4572830000000  0.4863840000000 1.0
C      1  0.5474530000000  0.4982070000000  0.4524860000000 1.0
C      1  0.4997600000000  0.4803300000000  0.4429110000000 1.0
C      1  0.4444210000000  0.5011410000000  0.5312710000000 1.0
C      1  0.4340860000000  0.4750170000000  0.4925890000000 1.0
C      1  0.5491740000000  0.5244690000000  0.4630660000000 1.0
C      1  0.5035790000000  0.5749870000000  0.5049110000000 1.0
C      1  0.4386030000000  0.5232610000000  0.4892070000000 1.0
C      1  0.5466090000000  0.5505770000000  0.5076500000000 1.0
C      1  0.5102480000000  0.5224000000000  0.5014690000000 1.0
C      1  0.4552850000000  0.4804070000000  0.5483220000000 1.0
C      1  0.5383750000000  0.5457660000000  0.5350600000000 1.0
C      1  0.4916360000000  0.5015770000000  0.5107230000000 1.0
C      1  0.4306510000000  0.5002550000000  0.5062300000000 1.0
C      1  0.5097270000000  0.4842790000000  0.5260260000000 1.0
C      1  0.4757210000000  0.4946500000000  0.4333420000000 1.0
C      1  0.5388570000000  0.4994700000000  0.5284290000000 1.0
C      1  0.4815150000000  0.4848830000000  0.4863910000000 1.0
C      1  0.5240180000000  0.5395000000000  0.4555060000000 1.0
C      1  0.4939520000000  0.5709590000000  0.4781620000000 1.0
C      1  0.5050520000000  0.5290190000000  0.5644470000000 1.0
C      1  0.5371480000000  0.5079290000000  0.5007320000000 1.0
C      1  0.5235140000000  0.4359180000000  0.5092320000000 1.0
C      1  0.5299950000000  0.5682370000000  0.4945290000000 1.0
C      1  0.4833340000000  0.5218010000000  0.4317000000000 1.0
C      1  0.5529620000000  0.4732550000000  0.4707960000000 1.0
C      1  0.4448750000000  0.5193590000000  0.4607630000000 1.0
C      1  0.4667500000000  0.5158290000000  0.5191340000000 1.0
END
