TITL C-22836-2311-9 -12.2785256388553 125000 -93.8514506762467 0 0 15 (C1) n - 1
REM
REM in /rds/project/t2_vol4/rds-t2-cs072/BORA/CARBON/from-Arr/AIRSS/Generating-Clusters/GAP-ML-2020/Only-C1/SD-CG/HFTN-CG
REM
REM
REM
REM
REM
REM ./C.cell (11c1c37f851c82e70ff6c80c92926a4b)
REM AIRSS Version 0.9.1 bugfix July 2018 build 013d7b7c2542+ Fri, 06 Jul 2018 19:26:36 +0100
REM compiler GCC version 9.3.0
REM options -cpp -mtune=generic -march=x86-64 -g -O0
REM seed 317023521 -198214414 1575093408 1066447522 1767611225 758645281 -1436503943 48367121 874949810 -1259957375 -450667240 1330541845 1352155219 1546382406 -10212307 -124490690 -145365253 649623248 1824680070 1601722731 -1027716167 -1128149767 1595004590 -560295397 -1615660834 153950077 -1952744749 1118917461 1449615184 938968852 -1189387397 -1990609797 2117860385
REM
CELL 1.54180   50.00000   50.00000   50.00000   90.00000   90.00000   90.00000
LATT -1
SFAC C  
C      1  0.4712540000000  0.5049290000000  0.5133530000000 1.0
C      1  0.5256940000000  0.5096960000000  0.5133560000000 1.0
C      1  0.4986640000000  0.5326970000000  0.5318480000000 1.0
C      1  0.4733270000000  0.5266680000000  0.5309950000000 1.0
C      1  0.4627300000000  0.4784110000000  0.5199650000000 1.0
C      1  0.5452340000000  0.5190750000000  0.4481110000000 1.0
C      1  0.5249410000000  0.5332500000000  0.5299890000000 1.0
C      1  0.5277590000000  0.5139880000000  0.4652940000000 1.0
C      1  0.5342020000000  0.4597290000000  0.5172200000000 1.0
C      1  0.5119960000000  0.5105930000000  0.4868540000000 1.0
C      1  0.4667330000000  0.4635260000000  0.4705170000000 1.0
C      1  0.4659180000000  0.4661720000000  0.4971120000000 1.0
C      1  0.4843130000000  0.5076880000000  0.4859220000000 1.0
C      1  0.5331770000000  0.4845030000000  0.5211920000000 1.0
C      1  0.4740580000000  0.4890750000000  0.4682720000000 1.0
END
