TITL C-221347-4664-8 -0.492303400605393 125000 -95.3876748617477 0 0 15 (C1) n - 1
REM
REM in /rds/project/t2_vol4/rds-t2-cs072/BORA/CARBON/from-Arr/AIRSS/Generating-Clusters/GAP-ML-2020/Only-C1/SD-CG/HFTN-CG
REM
REM
REM
REM
REM
REM ./C.cell (11c1c37f851c82e70ff6c80c92926a4b)
REM AIRSS Version 0.9.1 bugfix July 2018 build 013d7b7c2542+ Fri, 06 Jul 2018 19:26:36 +0100
REM compiler GCC version 9.3.0
REM options -cpp -mtune=generic -march=x86-64 -g -O0
REM seed 1612912338 1785495515 315744824 1087680658 -1289531531 533366576 -1412018246 472765418 -2127193644 -1503427698 -1152579911 -2070927575 -466228532 1000540350 -948217897 222762096 791186439 1903177103 725625047 1098280060 1096665258 -1812306275 2055681013 -1823391431 -1492552170 1291936764 -2096753679 -930056796 53546604 1939064163 -862233003 -1032402140 1567717558
REM
CELL 1.54180   50.00000   50.00000   50.00000   90.00000   90.00000   90.00000
LATT -1
SFAC C  
C      1  0.5317250000000  0.5693570000000  0.4546210000000 1.0
C      1  0.4849120000000  0.4615400000000  0.4919690000000 1.0
C      1  0.5116880000000  0.5535570000000  0.4641130000000 1.0
C      1  0.5053600000000  0.4813270000000  0.5518480000000 1.0
C      1  0.4846510000000  0.4900880000000  0.5362860000000 1.0
C      1  0.4874760000000  0.5161010000000  0.5273680000000 1.0
C      1  0.4961550000000  0.5037370000000  0.4785460000000 1.0
C      1  0.4890730000000  0.4789900000000  0.4708110000000 1.0
C      1  0.5077830000000  0.5762660000000  0.4495930000000 1.0
C      1  0.5018810000000  0.4508710000000  0.5273960000000 1.0
C      1  0.5031290000000  0.5318940000000  0.4775800000000 1.0
C      1  0.4763880000000  0.4657630000000  0.5205490000000 1.0
C      1  0.4958770000000  0.5183390000000  0.5021260000000 1.0
C      1  0.5038740000000  0.4419590000000  0.5011730000000 1.0
C      1  0.5200280000000  0.4602100000000  0.5460200000000 1.0
END
