TITL C-224007-1681-9 -0.129988558809089 125000 -460.460534042973 0 0 67 (C1) n - 1
REM
REM in /rds/project/t2_vol4/rds-t2-cs072/BORA/CARBON/from-Arr/AIRSS/Generating-Clusters/GAP-ML-2020/Only-C1/SD-CG/HFTN-CG
REM
REM
REM
REM
REM
REM ./C.cell (11c1c37f851c82e70ff6c80c92926a4b)
REM AIRSS Version 0.9.1 bugfix July 2018 build 013d7b7c2542+ Fri, 06 Jul 2018 19:26:36 +0100
REM compiler GCC version 9.3.0
REM options -cpp -mtune=generic -march=x86-64 -g -O0
REM seed -1623407845 1607078098 216946004 -1192508188 554739900 -188510821 1557002020 -1168219928 -565641047 -1980809640 -413777408 -355660110 -1912478688 365016834 965782606 2026344744 1027891517 1500372883 -1109816185 1579705199 168583561 1908335215 -369943826 -125064875 -1372284693 1901582438 -189296323 676299433 -1919722789 -1912059489 625301365 18709775 1850255272
REM
CELL 1.54180   50.00000   50.00000   50.00000   90.00000   90.00000   90.00000
LATT -1
SFAC C  
C      1  0.4440130000000  0.5078450000000  0.4708220000000 1.0
C      1  0.5307350000000  0.4727020000000  0.5544900000000 1.0
C      1  0.4350640000000  0.5457980000000  0.5027190000000 1.0
C      1  0.5283100000000  0.4720470000000  0.4339730000000 1.0
C      1  0.4857390000000  0.4693580000000  0.5338960000000 1.0
C      1  0.4453130000000  0.5291940000000  0.5221630000000 1.0
C      1  0.4885690000000  0.4553670000000  0.5779320000000 1.0
C      1  0.5101080000000  0.4510420000000  0.4437850000000 1.0
C      1  0.5132460000000  0.5251370000000  0.5607370000000 1.0
C      1  0.4420440000000  0.4780800000000  0.5153530000000 1.0
C      1  0.4569030000000  0.4939700000000  0.4943470000000 1.0
C      1  0.5013410000000  0.4918490000000  0.4710040000000 1.0
C      1  0.5597300000000  0.4772840000000  0.5240640000000 1.0
C      1  0.5158650000000  0.4979530000000  0.5131560000000 1.0
C      1  0.5478860000000  0.5143080000000  0.4476190000000 1.0
C      1  0.4880880000000  0.5321610000000  0.4914850000000 1.0
C      1  0.4946020000000  0.4604160000000  0.5070070000000 1.0
C      1  0.4699430000000  0.5158410000000  0.5091430000000 1.0
C      1  0.5044490000000  0.5489450000000  0.5479270000000 1.0
C      1  0.4900340000000  0.4997780000000  0.5273860000000 1.0
C      1  0.4582140000000  0.5000490000000  0.4472880000000 1.0
C      1  0.5402450000000  0.5197810000000  0.5513270000000 1.0
C      1  0.5100390000000  0.5116340000000  0.4894990000000 1.0
C      1  0.5023340000000  0.5135840000000  0.4279770000000 1.0
C      1  0.4940090000000  0.4328660000000  0.4942220000000 1.0
C      1  0.5476940000000  0.4851680000000  0.4489790000000 1.0
C      1  0.4640700000000  0.5073360000000  0.5570500000000 1.0
C      1  0.4803800000000  0.4763020000000  0.4853730000000 1.0
C      1  0.5547170000000  0.5483760000000  0.4831620000000 1.0
C      1  0.5231430000000  0.4675950000000  0.5080890000000 1.0
C      1  0.5256870000000  0.5580520000000  0.5296130000000 1.0
C      1  0.5493340000000  0.4929360000000  0.5476630000000 1.0
C      1  0.5340520000000  0.4563080000000  0.4827620000000 1.0
C      1  0.4536590000000  0.5662270000000  0.4975810000000 1.0
C      1  0.4642100000000  0.4708360000000  0.4450090000000 1.0
C      1  0.4831690000000  0.5419980000000  0.4614250000000 1.0
C      1  0.5312340000000  0.4272930000000  0.5261530000000 1.0
C      1  0.5060630000000  0.4864700000000  0.4219340000000 1.0
C      1  0.5237160000000  0.5287030000000  0.4401100000000 1.0
C      1  0.4598990000000  0.4565490000000  0.5438530000000 1.0
C      1  0.4633730000000  0.4565060000000  0.4701570000000 1.0
C      1  0.4932130000000  0.5617710000000  0.5020570000000 1.0
C      1  0.4571400000000  0.5335520000000  0.5475700000000 1.0
C      1  0.4878850000000  0.4660130000000  0.4312190000000 1.0
C      1  0.4727020000000  0.5693940000000  0.5181550000000 1.0
C      1  0.4930120000000  0.5039950000000  0.5594490000000 1.0
C      1  0.4502550000000  0.4845580000000  0.5430990000000 1.0
C      1  0.5118630000000  0.4182480000000  0.5120790000000 1.0
C      1  0.5668440000000  0.4853560000000  0.4973960000000 1.0
C      1  0.5384330000000  0.4561000000000  0.5303980000000 1.0
C      1  0.4625710000000  0.4381350000000  0.4926020000000 1.0
C      1  0.4378860000000  0.5349340000000  0.4750160000000 1.0
C      1  0.4491770000000  0.4502070000000  0.5155010000000 1.0
C      1  0.5028520000000  0.4752510000000  0.5606750000000 1.0
C      1  0.5131530000000  0.5489880000000  0.4569330000000 1.0
C      1  0.5478290000000  0.5401000000000  0.5320810000000 1.0
C      1  0.5127380000000  0.4428760000000  0.4698350000000 1.0
C      1  0.4572560000000  0.5555270000000  0.4694880000000 1.0
C      1  0.5632800000000  0.5361080000000  0.5086420000000 1.0
C      1  0.4776220000000  0.5205350000000  0.4405710000000 1.0
C      1  0.5548990000000  0.4722730000000  0.4736680000000 1.0
C      1  0.5299630000000  0.5591650000000  0.4786020000000 1.0
C      1  0.5719640000000  0.5125340000000  0.4931020000000 1.0
C      1  0.4672250000000  0.4436960000000  0.5692260000000 1.0
C      1  0.4767830000000  0.5534140000000  0.5423630000000 1.0
C      1  0.5194460000000  0.5682860000000  0.5037630000000 1.0
C      1  0.5627870000000  0.5253420000000  0.4682790000000 1.0
END
