TITL C-224007-1681-3 -0.0558407510422878 125000 -238.889922338833 0 0 37 (C1) n - 1
REM
REM in /rds/project/t2_vol4/rds-t2-cs072/BORA/CARBON/from-Arr/AIRSS/Generating-Clusters/GAP-ML-2020/Only-C1/SD-CG/HFTN-CG
REM
REM
REM
REM
REM
REM ./C.cell (11c1c37f851c82e70ff6c80c92926a4b)
REM AIRSS Version 0.9.1 bugfix July 2018 build 013d7b7c2542+ Fri, 06 Jul 2018 19:26:36 +0100
REM compiler GCC version 9.3.0
REM options -cpp -mtune=generic -march=x86-64 -g -O0
REM seed -1590774961 -880943606 1417901899 958244562 -146309387 -266168108 2118103803 690801922 188796241 1724543573 1574792947 1297213457 1570674201 -2135196150 673725920 -1801266768 -1916503579 -1373382941 1193942401 -1702275179 1915477551 842486182 -107821461 1186876099 -943353092 -1437263913 -197061011 -549888702 -1688777985 -2041547685 1002744876 -1843944960 -483392137
REM
CELL 1.54180   50.00000   50.00000   50.00000   90.00000   90.00000   90.00000
LATT -1
SFAC C  
C      1  0.5335460000000  0.5144860000000  0.4464840000000 1.0
C      1  0.5578400000000  0.5087250000000  0.4939270000000 1.0
C      1  0.5331180000000  0.4819180000000  0.5279560000000 1.0
C      1  0.5181550000000  0.5096600000000  0.5681500000000 1.0
C      1  0.4807780000000  0.5294690000000  0.5446700000000 1.0
C      1  0.5131060000000  0.5487650000000  0.5219530000000 1.0
C      1  0.5499540000000  0.5320030000000  0.5064880000000 1.0
C      1  0.4450420000000  0.4830250000000  0.4709700000000 1.0
C      1  0.4703030000000  0.4809150000000  0.4586440000000 1.0
C      1  0.5297620000000  0.5493750000000  0.4962330000000 1.0
C      1  0.5087440000000  0.4676680000000  0.5265100000000 1.0
C      1  0.5405990000000  0.4730530000000  0.4799970000000 1.0
C      1  0.5139730000000  0.5063210000000  0.4797540000000 1.0
C      1  0.4706730000000  0.5220580000000  0.5168230000000 1.0
C      1  0.5424080000000  0.5019420000000  0.4697460000000 1.0
C      1  0.4986900000000  0.4857250000000  0.4609110000000 1.0
C      1  0.5501130000000  0.4825700000000  0.5057940000000 1.0
C      1  0.4440700000000  0.5153470000000  0.5086690000000 1.0
C      1  0.4562930000000  0.4714840000000  0.5149960000000 1.0
C      1  0.5125320000000  0.5363400000000  0.4506450000000 1.0
C      1  0.5099950000000  0.4996410000000  0.4364190000000 1.0
C      1  0.4723380000000  0.4503320000000  0.5013710000000 1.0
C      1  0.5083260000000  0.5364710000000  0.4799000000000 1.0
C      1  0.4781700000000  0.4928160000000  0.5146740000000 1.0
C      1  0.5003300000000  0.4563560000000  0.5016430000000 1.0
C      1  0.5321340000000  0.5068690000000  0.5442810000000 1.0
C      1  0.4944860000000  0.5068460000000  0.5553190000000 1.0
C      1  0.4952200000000  0.5534730000000  0.5421340000000 1.0
C      1  0.4393320000000  0.4902830000000  0.4983510000000 1.0
C      1  0.4902680000000  0.5404610000000  0.5025830000000 1.0
C      1  0.4602380000000  0.4712590000000  0.5436530000000 1.0
C      1  0.4957150000000  0.5241140000000  0.4324850000000 1.0
C      1  0.4603260000000  0.4354930000000  0.4813920000000 1.0
C      1  0.5138050000000  0.4646440000000  0.4778370000000 1.0
C      1  0.5369620000000  0.5316850000000  0.5313570000000 1.0
C      1  0.4868340000000  0.4815780000000  0.5421320000000 1.0
C      1  0.4558240000000  0.4568290000000  0.4651490000000 1.0
END
