TITL C-221353-5440-7 -0.0495126972095046 125000 -293.958783728532 0 0 44 (C1) n - 1
REM
REM in /rds/project/t2_vol4/rds-t2-cs072/BORA/CARBON/from-Arr/AIRSS/Generating-Clusters/GAP-ML-2020/Only-C1/SD-CG/HFTN-CG
REM
REM
REM
REM
REM
REM ./C.cell (11c1c37f851c82e70ff6c80c92926a4b)
REM AIRSS Version 0.9.1 bugfix July 2018 build 013d7b7c2542+ Fri, 06 Jul 2018 19:26:36 +0100
REM compiler GCC version 9.3.0
REM options -cpp -mtune=generic -march=x86-64 -g -O0
REM seed 257846440 1854644316 -660560051 1926736266 -264615159 -254701521 -1150891804 -741396830 1017310800 1976730003 158286416 -1833690390 134765106 1379944585 -46034928 -1734096820 1481332426 981644458 -538497748 9234041 -747960222 -1766664447 -2076967294 -1022685531 2042782880 -1696355858 270753891 -976840669 1752468426 187310149 1902397413 1125194730 1411157565
REM
CELL 1.54180   50.00000   50.00000   50.00000   90.00000   90.00000   90.00000
LATT -1
SFAC C  
C      1  0.5243630000000  0.4892170000000  0.5437380000000 1.0
C      1  0.4705090000000  0.4805020000000  0.5424420000000 1.0
C      1  0.5441360000000  0.5101500000000  0.5461440000000 1.0
C      1  0.5668650000000  0.5020460000000  0.5300810000000 1.0
C      1  0.5296370000000  0.5283000000000  0.5300650000000 1.0
C      1  0.5192470000000  0.5120430000000  0.5074470000000 1.0
C      1  0.4947380000000  0.4847640000000  0.4481040000000 1.0
C      1  0.4706130000000  0.4575280000000  0.5256540000000 1.0
C      1  0.4960540000000  0.4968360000000  0.5450650000000 1.0
C      1  0.5221660000000  0.5109850000000  0.4782120000000 1.0
C      1  0.4627180000000  0.5249350000000  0.5472820000000 1.0
C      1  0.4923300000000  0.5598190000000  0.4850000000000 1.0
C      1  0.4498490000000  0.5000740000000  0.5407550000000 1.0
C      1  0.5123100000000  0.4670290000000  0.4972010000000 1.0
C      1  0.4896230000000  0.5239530000000  0.5567970000000 1.0
C      1  0.5809570000000  0.5194450000000  0.5133380000000 1.0
C      1  0.4630820000000  0.4659610000000  0.4970580000000 1.0
C      1  0.5583050000000  0.4786390000000  0.5184690000000 1.0
C      1  0.4907540000000  0.4396150000000  0.5239240000000 1.0
C      1  0.4700120000000  0.5268930000000  0.5193590000000 1.0
C      1  0.5028330000000  0.4201040000000  0.4795520000000 1.0
C      1  0.5064310000000  0.5069580000000  0.4343220000000 1.0
C      1  0.5028990000000  0.5240110000000  0.4580110000000 1.0
C      1  0.4820480000000  0.5386960000000  0.4695240000000 1.0
C      1  0.4674820000000  0.4789020000000  0.4536200000000 1.0
C      1  0.4565310000000  0.5244660000000  0.4749040000000 1.0
C      1  0.5303480000000  0.4819490000000  0.5145920000000 1.0
C      1  0.5557710000000  0.5105250000000  0.4422570000000 1.0
C      1  0.5648710000000  0.5219410000000  0.4928950000000 1.0
C      1  0.5022080000000  0.5714010000000  0.5058190000000 1.0
C      1  0.5505020000000  0.5151030000000  0.4711660000000 1.0
C      1  0.5047350000000  0.5674910000000  0.5320720000000 1.0
C      1  0.4474350000000  0.5253920000000  0.5019070000000 1.0
C      1  0.4918110000000  0.5057960000000  0.5156570000000 1.0
C      1  0.4842580000000  0.4340320000000  0.4660900000000 1.0
C      1  0.5080240000000  0.5430370000000  0.5429430000000 1.0
C      1  0.4362480000000  0.5026030000000  0.5145330000000 1.0
C      1  0.4681560000000  0.4547910000000  0.4702220000000 1.0
C      1  0.5054520000000  0.4387380000000  0.5002050000000 1.0
C      1  0.5331840000000  0.5042340000000  0.4315790000000 1.0
C      1  0.4880790000000  0.4837240000000  0.4969860000000 1.0
C      1  0.5091040000000  0.4846410000000  0.4734580000000 1.0
C      1  0.4513960000000  0.4976860000000  0.4679670000000 1.0
C      1  0.4419290000000  0.4850420000000  0.4935820000000 1.0
END
