TITL C-22549-8205-6 -128.049341307385 125000 -554.527585007108 0 0 80 (C1) n - 1
REM
REM in /rds/project/t2_vol4/rds-t2-cs072/BORA/CARBON/from-Arr/AIRSS/Generating-Clusters/GAP-ML-2020/Only-C1/SD-CG/HFTN-CG
REM
REM
REM
REM
REM
REM ./C.cell (11c1c37f851c82e70ff6c80c92926a4b)
REM AIRSS Version 0.9.1 bugfix July 2018 build 013d7b7c2542+ Fri, 06 Jul 2018 19:26:36 +0100
REM compiler GCC version 9.3.0
REM options -cpp -mtune=generic -march=x86-64 -g -O0
REM seed 880647946 1968288971 -31890207 -1585283052 -278175813 -1862127155 1815827831 -2130566747 -935447416 182791376 -2124686781 1947295694 -569467672 -151884156 2049535915 1241359873 101152277 886705011 -864105585 696554165 1272939425 -690450261 1991844245 -913199058 2066068498 -427851791 1608354245 32777645 410047002 527092088 2124363314 1967842142 -1319927332
REM
CELL 1.54180   50.00000   50.00000   50.00000   90.00000   90.00000   90.00000
LATT -1
SFAC C  
C      1  0.5766580000000  0.5250630000000  0.4999620000000 1.0
C      1  0.4434010000000  0.5363830000000  0.5262270000000 1.0
C      1  0.4728500000000  0.4393470000000  0.4581200000000 1.0
C      1  0.5329620000000  0.4742120000000  0.4960200000000 1.0
C      1  0.5118620000000  0.5523060000000  0.4489340000000 1.0
C      1  0.5690680000000  0.5384730000000  0.4746070000000 1.0
C      1  0.4485590000000  0.4353910000000  0.4956130000000 1.0
C      1  0.5120230000000  0.4542660000000  0.5429850000000 1.0
C      1  0.4992760000000  0.5114380000000  0.5733470000000 1.0
C      1  0.5115920000000  0.4805380000000  0.4749500000000 1.0
C      1  0.5407360000000  0.4595000000000  0.5504980000000 1.0
C      1  0.4259410000000  0.4931810000000  0.5340030000000 1.0
C      1  0.5735700000000  0.4975350000000  0.5099230000000 1.0
C      1  0.4566860000000  0.4352090000000  0.5430470000000 1.0
C      1  0.5643050000000  0.4739610000000  0.4935090000000 1.0
C      1  0.5330420000000  0.4429390000000  0.4894600000000 1.0
C      1  0.4756130000000  0.4292970000000  0.4844830000000 1.0
C      1  0.4270790000000  0.5145780000000  0.5155660000000 1.0
C      1  0.5304760000000  0.5707390000000  0.5262330000000 1.0
C      1  0.4587990000000  0.4819500000000  0.5691380000000 1.0
C      1  0.5220580000000  0.4683480000000  0.4476300000000 1.0
C      1  0.5073770000000  0.5206130000000  0.4180580000000 1.0
C      1  0.4681950000000  0.5370910000000  0.4330810000000 1.0
C      1  0.4866270000000  0.4870060000000  0.5753390000000 1.0
C      1  0.5697220000000  0.5433630000000  0.5206340000000 1.0
C      1  0.5281530000000  0.5100030000000  0.5677060000000 1.0
C      1  0.5522660000000  0.5619000000000  0.4816430000000 1.0
C      1  0.5065050000000  0.5771660000000  0.5120450000000 1.0
C      1  0.4981060000000  0.4717740000000  0.4297220000000 1.0
C      1  0.5405010000000  0.4477120000000  0.4621300000000 1.0
C      1  0.5022340000000  0.4357150000000  0.4979210000000 1.0
C      1  0.4939200000000  0.5529070000000  0.5485890000000 1.0
C      1  0.4539170000000  0.5271180000000  0.5520740000000 1.0
C      1  0.4551900000000  0.5400200000000  0.4584310000000 1.0
C      1  0.4386900000000  0.4426250000000  0.5218840000000 1.0
C      1  0.5451920000000  0.4881660000000  0.5557690000000 1.0
C      1  0.5164660000000  0.5199660000000  0.5061480000000 1.0
C      1  0.4638210000000  0.5586040000000  0.4780610000000 1.0
C      1  0.4977380000000  0.5265390000000  0.4859600000000 1.0
C      1  0.5613590000000  0.4680610000000  0.4638680000000 1.0
C      1  0.5295240000000  0.5707070000000  0.4667260000000 1.0
C      1  0.4652580000000  0.4548240000000  0.5612570000000 1.0
C      1  0.5393930000000  0.5348060000000  0.5588480000000 1.0
C      1  0.5080530000000  0.5777130000000  0.4844730000000 1.0
C      1  0.4696320000000  0.5091410000000  0.4272410000000 1.0
C      1  0.4923170000000  0.5567750000000  0.4729180000000 1.0
C      1  0.4936180000000  0.4606750000000  0.5646760000000 1.0
C      1  0.5200780000000  0.5222910000000  0.4447190000000 1.0
C      1  0.4701150000000  0.4756510000000  0.5070390000000 1.0
C      1  0.4493420000000  0.4521710000000  0.4521720000000 1.0
C      1  0.5142570000000  0.4752230000000  0.5188140000000 1.0
C      1  0.5011230000000  0.5063980000000  0.4645260000000 1.0
C      1  0.4427220000000  0.5008410000000  0.5563130000000 1.0
C      1  0.4624630000000  0.5499950000000  0.5079060000000 1.0
C      1  0.5643510000000  0.5008510000000  0.5379310000000 1.0
C      1  0.4947980000000  0.5466320000000  0.4250760000000 1.0
C      1  0.4807530000000  0.5325060000000  0.5623680000000 1.0
C      1  0.5010480000000  0.4306040000000  0.5270220000000 1.0
C      1  0.4840230000000  0.5632250000000  0.5235230000000 1.0
C      1  0.4783270000000  0.4190930000000  0.5356600000000 1.0
C      1  0.5531920000000  0.5642370000000  0.5106100000000 1.0
C      1  0.4709630000000  0.5212630000000  0.4972580000000 1.0
C      1  0.5690490000000  0.5276760000000  0.4495720000000 1.0
C      1  0.4286930000000  0.5034060000000  0.4886610000000 1.0
C      1  0.5228210000000  0.5558910000000  0.5493510000000 1.0
C      1  0.5588130000000  0.4464340000000  0.5069490000000 1.0
C      1  0.4929400000000  0.4969540000000  0.4156210000000 1.0
C      1  0.4758280000000  0.5001480000000  0.5171880000000 1.0
C      1  0.4728080000000  0.4673020000000  0.4445070000000 1.0
C      1  0.5588160000000  0.4455010000000  0.5342720000000 1.0
C      1  0.4243650000000  0.4678610000000  0.5197190000000 1.0
C      1  0.4935890000000  0.4651740000000  0.4962310000000 1.0
C      1  0.5480240000000  0.5122160000000  0.4411320000000 1.0
C      1  0.5049470000000  0.5020520000000  0.5230480000000 1.0
C      1  0.4520270000000  0.5138770000000  0.4726550000000 1.0
C      1  0.4234090000000  0.4751240000000  0.4914470000000 1.0
C      1  0.5624470000000  0.5290360000000  0.5434180000000 1.0
C      1  0.5475970000000  0.4841730000000  0.4447490000000 1.0
C      1  0.4703590000000  0.4970090000000  0.4540250000000 1.0
C      1  0.4355830000000  0.4535430000000  0.4770630000000 1.0
END
