TITL C-22823-2136-8 0.224251824712262 125000 -446.733850574118 0 0 66 (C1) n - 1
REM
REM in /rds/project/t2_vol4/rds-t2-cs072/BORA/CARBON/from-Arr/AIRSS/Generating-Clusters/GAP-ML-2020/Only-C1/SD-CG/HFTN-CG
REM
REM
REM
REM
REM
REM ./C.cell (11c1c37f851c82e70ff6c80c92926a4b)
REM AIRSS Version 0.9.1 bugfix July 2018 build 013d7b7c2542+ Fri, 06 Jul 2018 19:26:36 +0100
REM compiler GCC version 9.3.0
REM options -cpp -mtune=generic -march=x86-64 -g -O0
REM seed 1546542795 575685407 -88954842 -283941978 -1241115548 -2015028238 -1217468271 93048360 -1917983483 501639595 -1256589337 604435167 1021886486 -1362400869 857049203 943242423 -1787855370 971128378 -1108417680 -370888384 1964202529 1394431688 447425410 -1506108815 1927414449 -1222275704 1844175710 11821960 -1284150748 -1540060401 -1757675823 1169570947 2053750493
REM
CELL 1.54180   50.00000   50.00000   50.00000   90.00000   90.00000   90.00000
LATT -1
SFAC C  
C      1  0.5549620000000  0.5097660000000  0.5548690000000 1.0
C      1  0.4791810000000  0.5188210000000  0.5090830000000 1.0
C      1  0.4791040000000  0.4441850000000  0.4876560000000 1.0
C      1  0.5521210000000  0.5181220000000  0.4664470000000 1.0
C      1  0.4464660000000  0.4828360000000  0.5695620000000 1.0
C      1  0.4707800000000  0.5006180000000  0.5322920000000 1.0
C      1  0.5319260000000  0.5095270000000  0.5139920000000 1.0
C      1  0.4724490000000  0.4741030000000  0.5719770000000 1.0
C      1  0.5472260000000  0.5545480000000  0.4959700000000 1.0
C      1  0.4792620000000  0.4491890000000  0.5591410000000 1.0
C      1  0.5314170000000  0.4820930000000  0.5171660000000 1.0
C      1  0.4429620000000  0.4915190000000  0.5442460000000 1.0
C      1  0.4983580000000  0.5572900000000  0.4702850000000 1.0
C      1  0.4293160000000  0.4973130000000  0.4745280000000 1.0
C      1  0.4413630000000  0.4715600000000  0.4764470000000 1.0
C      1  0.5419490000000  0.5522300000000  0.5234630000000 1.0
C      1  0.5065600000000  0.5212550000000  0.5243470000000 1.0
C      1  0.5012840000000  0.5214760000000  0.4314480000000 1.0
C      1  0.4838110000000  0.5441960000000  0.5561340000000 1.0
C      1  0.4952620000000  0.4919730000000  0.5699480000000 1.0
C      1  0.5271200000000  0.5123860000000  0.4259810000000 1.0
C      1  0.4659440000000  0.5473580000000  0.5092440000000 1.0
C      1  0.4790450000000  0.5038310000000  0.4375600000000 1.0
C      1  0.4841330000000  0.5575050000000  0.5328150000000 1.0
C      1  0.4358800000000  0.5361280000000  0.5013830000000 1.0
C      1  0.4930410000000  0.5464890000000  0.4438060000000 1.0
C      1  0.5316410000000  0.4726570000000  0.4372880000000 1.0
C      1  0.5662520000000  0.5357080000000  0.4866700000000 1.0
C      1  0.4331440000000  0.5183340000000  0.4568580000000 1.0
C      1  0.5338870000000  0.4470810000000  0.4829770000000 1.0
C      1  0.4324810000000  0.5424960000000  0.4739760000000 1.0
C      1  0.5183950000000  0.5470030000000  0.4882230000000 1.0
C      1  0.5169400000000  0.4373960000000  0.5276920000000 1.0
C      1  0.4835240000000  0.4764390000000  0.5239160000000 1.0
C      1  0.4642170000000  0.5473760000000  0.4408790000000 1.0
C      1  0.4904940000000  0.5158060000000  0.5519470000000 1.0
C      1  0.5064120000000  0.4740750000000  0.5050800000000 1.0
C      1  0.5309110000000  0.4849480000000  0.4149690000000 1.0
C      1  0.5444720000000  0.4392850000000  0.5276400000000 1.0
C      1  0.5345790000000  0.4723770000000  0.4662320000000 1.0
C      1  0.5595810000000  0.4899360000000  0.4714310000000 1.0
C      1  0.4585810000000  0.4427000000000  0.5088030000000 1.0
C      1  0.5707120000000  0.4665130000000  0.5104570000000 1.0
C      1  0.5459330000000  0.5260480000000  0.4406400000000 1.0
C      1  0.4369430000000  0.4619140000000  0.5027830000000 1.0
C      1  0.4837720000000  0.4901150000000  0.4643250000000 1.0
C      1  0.5536750000000  0.4664110000000  0.5349880000000 1.0
C      1  0.5254820000000  0.5165430000000  0.4852190000000 1.0
C      1  0.4268650000000  0.5080890000000  0.5018830000000 1.0
C      1  0.4526960000000  0.5595320000000  0.4640270000000 1.0
C      1  0.5452590000000  0.4841460000000  0.5576760000000 1.0
C      1  0.4293370000000  0.4857400000000  0.5195500000000 1.0
C      1  0.4735560000000  0.5124880000000  0.4808940000000 1.0
C      1  0.4689320000000  0.4654180000000  0.4705700000000 1.0
C      1  0.5549650000000  0.5242940000000  0.5302670000000 1.0
C      1  0.4550250000000  0.5208700000000  0.4385080000000 1.0
C      1  0.5077680000000  0.4448610000000  0.4983350000000 1.0
C      1  0.5551600000000  0.4435240000000  0.5005400000000 1.0
C      1  0.5119690000000  0.5496270000000  0.5198010000000 1.0
C      1  0.5180720000000  0.4749780000000  0.5644330000000 1.0
C      1  0.4689010000000  0.4501060000000  0.5331450000000 1.0
C      1  0.5736070000000  0.5171680000000  0.5072400000000 1.0
C      1  0.5073920000000  0.4499440000000  0.5532010000000 1.0
C      1  0.5737260000000  0.4897600000000  0.4957610000000 1.0
C      1  0.5110950000000  0.4900560000000  0.4780590000000 1.0
C      1  0.4727220000000  0.5619230000000  0.4833280000000 1.0
END
