TITL C-224023-3791-7 -0.0690247662836386 125000 -231.551542766049 0 0 35 (C1) n - 1
REM
REM in /rds/project/t2_vol4/rds-t2-cs072/BORA/CARBON/from-Arr/AIRSS/Generating-Clusters/GAP-ML-2020/Only-C1/SD-CG/HFTN-CG
REM
REM
REM
REM
REM
REM ./C.cell (11c1c37f851c82e70ff6c80c92926a4b)
REM AIRSS Version 0.9.1 bugfix July 2018 build 013d7b7c2542+ Fri, 06 Jul 2018 19:26:36 +0100
REM compiler GCC version 9.3.0
REM options -cpp -mtune=generic -march=x86-64 -g -O0
REM seed -1470256958 1405816434 806898545 -755963684 1217313271 -1586716660 1390277924 -1770037099 1082852078 2024633420 476868365 -1388400845 1398770022 1465557226 173721332 -1256048393 -1339402883 -1470871386 -1589424855 1958726744 -1079788104 -174200508 671520285 -1940247070 2128818105 -42043749 -1268566817 -1988170410 1932977218 1669240521 2085610481 1559413398 679912446
REM
CELL 1.54180   50.00000   50.00000   50.00000   90.00000   90.00000   90.00000
LATT -1
SFAC C  
C      1  0.5798240000000  0.5001150000000  0.4900300000000 1.0
C      1  0.5061060000000  0.4661840000000  0.4727850000000 1.0
C      1  0.4991130000000  0.5192950000000  0.5226120000000 1.0
C      1  0.4896120000000  0.4561270000000  0.4934780000000 1.0
C      1  0.4541210000000  0.5151350000000  0.5049980000000 1.0
C      1  0.5029370000000  0.4944500000000  0.5117110000000 1.0
C      1  0.5555090000000  0.5084920000000  0.5379400000000 1.0
C      1  0.4771140000000  0.5318320000000  0.5075970000000 1.0
C      1  0.5031460000000  0.4668930000000  0.5177960000000 1.0
C      1  0.4460210000000  0.4703020000000  0.5126200000000 1.0
C      1  0.4621730000000  0.4649470000000  0.4909880000000 1.0
C      1  0.5206370000000  0.4903570000000  0.4433290000000 1.0
C      1  0.4733170000000  0.4850520000000  0.4456630000000 1.0
C      1  0.5089360000000  0.5157390000000  0.4404120000000 1.0
C      1  0.4975060000000  0.4957430000000  0.4845180000000 1.0
C      1  0.5324920000000  0.4814580000000  0.4696780000000 1.0
C      1  0.4909120000000  0.5265420000000  0.5680060000000 1.0
C      1  0.5355580000000  0.4719290000000  0.5518360000000 1.0
C      1  0.4501040000000  0.5029530000000  0.5524030000000 1.0
C      1  0.5084830000000  0.5491880000000  0.4724710000000 1.0
C      1  0.4669150000000  0.5275220000000  0.4623860000000 1.0
C      1  0.4549140000000  0.4824280000000  0.4682370000000 1.0
C      1  0.5385770000000  0.5286370000000  0.5452980000000 1.0
C      1  0.5640520000000  0.5026400000000  0.5114660000000 1.0
C      1  0.4796310000000  0.5130720000000  0.4416620000000 1.0
C      1  0.5545060000000  0.4878870000000  0.4852980000000 1.0
C      1  0.5163070000000  0.4590490000000  0.5401250000000 1.0
C      1  0.5110130000000  0.5266510000000  0.5473740000000 1.0
C      1  0.4827950000000  0.5422550000000  0.4815400000000 1.0
C      1  0.4975880000000  0.4709970000000  0.4455390000000 1.0
C      1  0.4505230000000  0.5092180000000  0.4775580000000 1.0
C      1  0.5199660000000  0.5391400000000  0.4519170000000 1.0
C      1  0.4470080000000  0.4951430000000  0.5254280000000 1.0
C      1  0.4666450000000  0.5161250000000  0.5673030000000 1.0
C      1  0.5559360000000  0.4865030000000  0.5579980000000 1.0
END
