TITL C-22832-3289-9 0.0808308462047532 125000 -163.109284809232 0 0 26 (C1) n - 1
REM
REM in /rds/project/t2_vol4/rds-t2-cs072/BORA/CARBON/from-Arr/AIRSS/Generating-Clusters/GAP-ML-2020/Only-C1/SD-CG/HFTN-CG
REM
REM
REM
REM
REM
REM ./C.cell (11c1c37f851c82e70ff6c80c92926a4b)
REM AIRSS Version 0.9.1 bugfix July 2018 build 013d7b7c2542+ Fri, 06 Jul 2018 19:26:36 +0100
REM compiler GCC version 9.3.0
REM options -cpp -mtune=generic -march=x86-64 -g -O0
REM seed 1940242 -189229660 494351060 1487245813 451271488 -914003969 1161208134 899539593 1267835209 1080731614 -1311284466 -179320254 -1057099444 2050783659 -958450769 1837354048 971292772 -844108406 -889996275 1664994428 139792422 -2002597667 1374184432 448167297 1002093847 -860607156 1822833121 663496830 -2002352786 -1169937472 830918995 22242251 -2123286318
REM
CELL 1.54180   50.00000   50.00000   50.00000   90.00000   90.00000   90.00000
LATT -1
SFAC C  
C      1  0.5351650000000  0.5379750000000  0.4890280000000 1.0
C      1  0.4642010000000  0.4998920000000  0.4837820000000 1.0
C      1  0.4529990000000  0.5232060000000  0.4753500000000 1.0
C      1  0.5039260000000  0.4773290000000  0.4865340000000 1.0
C      1  0.4962650000000  0.5321150000000  0.5505070000000 1.0
C      1  0.5222970000000  0.4504980000000  0.4568390000000 1.0
C      1  0.5018160000000  0.5038690000000  0.5049050000000 1.0
C      1  0.4878380000000  0.5708750000000  0.5050240000000 1.0
C      1  0.4754400000000  0.4706430000000  0.5204470000000 1.0
C      1  0.5181020000000  0.5244360000000  0.5344160000000 1.0
C      1  0.4742080000000  0.4976760000000  0.5110640000000 1.0
C      1  0.5114010000000  0.5694940000000  0.5143120000000 1.0
C      1  0.5206370000000  0.5165810000000  0.4814010000000 1.0
C      1  0.4962380000000  0.4759740000000  0.5357590000000 1.0
C      1  0.5177540000000  0.4953630000000  0.5273490000000 1.0
C      1  0.5260740000000  0.5457320000000  0.5145970000000 1.0
C      1  0.5213050000000  0.4940350000000  0.4658670000000 1.0
C      1  0.5355250000000  0.4786000000000  0.5132350000000 1.0
C      1  0.4918050000000  0.4360220000000  0.4928350000000 1.0
C      1  0.5163900000000  0.4443130000000  0.4831560000000 1.0
C      1  0.5342750000000  0.4557250000000  0.5025140000000 1.0
C      1  0.4725540000000  0.4538680000000  0.4980280000000 1.0
C      1  0.4775170000000  0.5489990000000  0.5529330000000 1.0
C      1  0.4455080000000  0.5475730000000  0.4760260000000 1.0
C      1  0.4738550000000  0.4745360000000  0.4752150000000 1.0
C      1  0.5269020000000  0.4746710000000  0.4488760000000 1.0
END
