TITL C-22858-8423-9 0.0627553631419262 125000 -456.636649641125 0 0 68 (C1) n - 1
REM
REM in /rds/project/t2_vol4/rds-t2-cs072/BORA/CARBON/from-Arr/AIRSS/Generating-Clusters/GAP-ML-2020/Only-C1/SD-CG/HFTN-CG
REM
REM
REM
REM
REM
REM ./C.cell (11c1c37f851c82e70ff6c80c92926a4b)
REM AIRSS Version 0.9.1 bugfix July 2018 build 013d7b7c2542+ Fri, 06 Jul 2018 19:26:36 +0100
REM compiler GCC version 9.3.0
REM options -cpp -mtune=generic -march=x86-64 -g -O0
REM seed 2043569834 -1521883805 -1923352519 735178394 1528584448 1276439684 801407179 -1354099094 -2044755308 -1242948004 1263119287 -117634678 -2198429 1720124714 656739668 -1721093891 -1580863468 1767805844 -1099617401 -714751058 -1975911005 1113251460 1723849036 1636512936 -2145393174 505145067 1530479250 -1777229654 -801120393 985428905 -1082876305 1732841989 961498442
REM
CELL 1.54180   50.00000   50.00000   50.00000   90.00000   90.00000   90.00000
LATT -1
SFAC C  
C      1  0.5286270000000  0.4764590000000  0.5712020000000 1.0
C      1  0.4933310000000  0.5272550000000  0.4942270000000 1.0
C      1  0.4278150000000  0.5187720000000  0.4827290000000 1.0
C      1  0.5605560000000  0.4862110000000  0.4855480000000 1.0
C      1  0.4637120000000  0.4942390000000  0.4713280000000 1.0
C      1  0.5292240000000  0.5354160000000  0.4604620000000 1.0
C      1  0.5133600000000  0.4999610000000  0.5779970000000 1.0
C      1  0.5171010000000  0.5071340000000  0.5302360000000 1.0
C      1  0.4943240000000  0.4368760000000  0.5051010000000 1.0
C      1  0.5354940000000  0.5408370000000  0.5558640000000 1.0
C      1  0.4255740000000  0.4530900000000  0.5120440000000 1.0
C      1  0.4780780000000  0.4828130000000  0.5458450000000 1.0
C      1  0.5096680000000  0.5124740000000  0.4761260000000 1.0
C      1  0.4536760000000  0.4463780000000  0.5196470000000 1.0
C      1  0.5068460000000  0.4385440000000  0.4569260000000 1.0
C      1  0.4735200000000  0.5028240000000  0.4432130000000 1.0
C      1  0.5107320000000  0.5330340000000  0.4366970000000 1.0
C      1  0.4954680000000  0.5047530000000  0.5553380000000 1.0
C      1  0.4802630000000  0.5280490000000  0.5583650000000 1.0
C      1  0.5657620000000  0.5152230000000  0.5248030000000 1.0
C      1  0.4374510000000  0.4664810000000  0.5331090000000 1.0
C      1  0.5329400000000  0.4499200000000  0.4538800000000 1.0
C      1  0.5132990000000  0.5549850000000  0.5374700000000 1.0
C      1  0.4708740000000  0.5078900000000  0.4982620000000 1.0
C      1  0.4797290000000  0.5517830000000  0.4829900000000 1.0
C      1  0.5123070000000  0.4316220000000  0.4851710000000 1.0
C      1  0.5308680000000  0.5565170000000  0.4796320000000 1.0
C      1  0.4925350000000  0.4562020000000  0.5473490000000 1.0
C      1  0.5388030000000  0.4746250000000  0.4421550000000 1.0
C      1  0.5504690000000  0.4946020000000  0.5368250000000 1.0
C      1  0.4640020000000  0.5397860000000  0.5409600000000 1.0
C      1  0.5203990000000  0.5137680000000  0.4203480000000 1.0
C      1  0.4440030000000  0.5186340000000  0.5068080000000 1.0
C      1  0.4810630000000  0.4365990000000  0.5300620000000 1.0
C      1  0.5494110000000  0.4955750000000  0.5652490000000 1.0
C      1  0.4838880000000  0.5589380000000  0.5314350000000 1.0
C      1  0.4451880000000  0.5180900000000  0.5346770000000 1.0
C      1  0.4349090000000  0.4906260000000  0.4778870000000 1.0
C      1  0.5152790000000  0.5749610000000  0.4973840000000 1.0
C      1  0.4815520000000  0.4712730000000  0.4743090000000 1.0
C      1  0.5391650000000  0.4436380000000  0.4819880000000 1.0
C      1  0.4552700000000  0.4474480000000  0.4463070000000 1.0
C      1  0.4739390000000  0.4588350000000  0.5000680000000 1.0
C      1  0.5168480000000  0.4875940000000  0.4276150000000 1.0
C      1  0.4398160000000  0.5350980000000  0.4647760000000 1.0
C      1  0.4492830000000  0.4893900000000  0.5441130000000 1.0
C      1  0.5374580000000  0.4699990000000  0.5243950000000 1.0
C      1  0.4874150000000  0.5700390000000  0.5026170000000 1.0
C      1  0.5552220000000  0.4915880000000  0.4578620000000 1.0
C      1  0.5542480000000  0.5193280000000  0.4632660000000 1.0
C      1  0.4815580000000  0.4841050000000  0.5149470000000 1.0
C      1  0.4641460000000  0.5455150000000  0.4600030000000 1.0
C      1  0.4903090000000  0.4813000000000  0.4335270000000 1.0
C      1  0.4814440000000  0.5295580000000  0.4412280000000 1.0
C      1  0.5094070000000  0.4844840000000  0.4811770000000 1.0
C      1  0.4837340000000  0.4558300000000  0.4488970000000 1.0
C      1  0.5213210000000  0.4605980000000  0.5497340000000 1.0
C      1  0.5612390000000  0.5151460000000  0.4939800000000 1.0
C      1  0.5512120000000  0.4623090000000  0.4989640000000 1.0
C      1  0.5429100000000  0.5393390000000  0.5009580000000 1.0
C      1  0.4350710000000  0.4493880000000  0.4616450000000 1.0
C      1  0.5346910000000  0.5195210000000  0.5731100000000 1.0
C      1  0.5113790000000  0.4847860000000  0.5111580000000 1.0
C      1  0.5534770000000  0.5604190000000  0.5193830000000 1.0
C      1  0.5151630000000  0.5312130000000  0.5151500000000 1.0
C      1  0.5290490000000  0.5753910000000  0.5220280000000 1.0
C      1  0.5581860000000  0.5404190000000  0.5376620000000 1.0
C      1  0.4249350000000  0.4645040000000  0.4837840000000 1.0
END
