TITL C-22560-8241-10 135.745746028826 125000 -550.334527007665 0 0 80 (C1) n - 1
REM
REM in /rds/project/t2_vol4/rds-t2-cs072/BORA/CARBON/from-Arr/AIRSS/Generating-Clusters/GAP-ML-2020/Only-C1/SD-CG/HFTN-CG
REM
REM
REM
REM
REM
REM ./C.cell (11c1c37f851c82e70ff6c80c92926a4b)
REM AIRSS Version 0.9.1 bugfix July 2018 build 013d7b7c2542+ Fri, 06 Jul 2018 19:26:36 +0100
REM compiler GCC version 9.3.0
REM options -cpp -mtune=generic -march=x86-64 -g -O0
REM seed 667321728 -2114461913 33075907 -1670219349 -1796936029 2015441259 -1933414207 429586654 897326209 -1039071161 486182880 322055143 -1476223915 -1730139273 -439744436 -1221572515 -37065491 -651696587 3485030 -265688786 -959623284 571953512 1864950438 24145817 1021343546 970698832 -649480377 -1703128460 2085189988 1116779896 10649567 -1347493568 -981298427
REM
CELL 1.54180   50.00000   50.00000   50.00000   90.00000   90.00000   90.00000
LATT -1
SFAC C  
C      1  0.5624510000000  0.5092860000000  0.5103640000000 1.0
C      1  0.5826600000000  0.4944210000000  0.4720340000000 1.0
C      1  0.5184360000000  0.5196170000000  0.4974250000000 1.0
C      1  0.5149210000000  0.5539860000000  0.4972370000000 1.0
C      1  0.5305720000000  0.5418610000000  0.4526080000000 1.0
C      1  0.5559010000000  0.4733560000000  0.4380120000000 1.0
C      1  0.5057240000000  0.4815620000000  0.5196880000000 1.0
C      1  0.4666460000000  0.5008560000000  0.4328920000000 1.0
C      1  0.5847730000000  0.4937900000000  0.5012330000000 1.0
C      1  0.4746620000000  0.4308920000000  0.5205650000000 1.0
C      1  0.5055400000000  0.5216800000000  0.5734680000000 1.0
C      1  0.5282150000000  0.5142970000000  0.5556940000000 1.0
C      1  0.4216190000000  0.4992380000000  0.5124980000000 1.0
C      1  0.4592000000000  0.5315760000000  0.5679080000000 1.0
C      1  0.4661220000000  0.5050790000000  0.5184900000000 1.0
C      1  0.4719400000000  0.5222460000000  0.4964150000000 1.0
C      1  0.4332940000000  0.5452830000000  0.4982270000000 1.0
C      1  0.5465540000000  0.5190010000000  0.4408600000000 1.0
C      1  0.5328540000000  0.4346430000000  0.4612360000000 1.0
C      1  0.4705260000000  0.4729810000000  0.4380520000000 1.0
C      1  0.5014490000000  0.5250530000000  0.4523900000000 1.0
C      1  0.5392680000000  0.4944370000000  0.4290490000000 1.0
C      1  0.5544120000000  0.5535870000000  0.5009660000000 1.0
C      1  0.5261720000000  0.4653700000000  0.5074700000000 1.0
C      1  0.5251570000000  0.4392740000000  0.5189480000000 1.0
C      1  0.4985040000000  0.5694780000000  0.4810730000000 1.0
C      1  0.4779400000000  0.4793670000000  0.5102310000000 1.0
C      1  0.4903080000000  0.5001430000000  0.5830790000000 1.0
C      1  0.5358850000000  0.4762790000000  0.4826140000000 1.0
C      1  0.5669700000000  0.4820990000000  0.5493930000000 1.0
C      1  0.5512860000000  0.4586140000000  0.4634130000000 1.0
C      1  0.4913850000000  0.5528270000000  0.5392370000000 1.0
C      1  0.5817750000000  0.4846180000000  0.5273110000000 1.0
C      1  0.5433370000000  0.5051570000000  0.4878620000000 1.0
C      1  0.4813710000000  0.4393410000000  0.4707280000000 1.0
C      1  0.5207390000000  0.5574430000000  0.5355400000000 1.0
C      1  0.4250580000000  0.4743810000000  0.4989840000000 1.0
C      1  0.5622460000000  0.5169030000000  0.4663020000000 1.0
C      1  0.4443240000000  0.5506080000000  0.5244040000000 1.0
C      1  0.4412960000000  0.5321210000000  0.5456240000000 1.0
C      1  0.4331890000000  0.5055800000000  0.4677770000000 1.0
C      1  0.4627320000000  0.5048470000000  0.5768790000000 1.0
C      1  0.5062210000000  0.5623830000000  0.4542370000000 1.0
C      1  0.4860430000000  0.4836010000000  0.4818120000000 1.0
C      1  0.5536820000000  0.5446470000000  0.4733030000000 1.0
C      1  0.4871200000000  0.5216670000000  0.5298480000000 1.0
C      1  0.4240120000000  0.5191770000000  0.4919980000000 1.0
C      1  0.4875180000000  0.4257560000000  0.4953130000000 1.0
C      1  0.4739690000000  0.4638120000000  0.5600360000000 1.0
C      1  0.5159500000000  0.4203650000000  0.4990740000000 1.0
C      1  0.4966280000000  0.4742010000000  0.5745490000000 1.0
C      1  0.5119410000000  0.5090490000000  0.5252180000000 1.0
C      1  0.4402920000000  0.5037840000000  0.5353060000000 1.0
C      1  0.4369450000000  0.4776050000000  0.4732870000000 1.0
C      1  0.4976040000000  0.4655110000000  0.4337050000000 1.0
C      1  0.4579950000000  0.4525640000000  0.5166450000000 1.0
C      1  0.4574560000000  0.5450320000000  0.4540020000000 1.0
C      1  0.4839260000000  0.5482300000000  0.4453210000000 1.0
C      1  0.4692470000000  0.5644280000000  0.5217960000000 1.0
C      1  0.4726460000000  0.5699280000000  0.4934020000000 1.0
C      1  0.5214720000000  0.4652100000000  0.5638100000000 1.0
C      1  0.4854260000000  0.4409300000000  0.5453130000000 1.0
C      1  0.5117820000000  0.4887210000000  0.4235230000000 1.0
C      1  0.5058700000000  0.4479310000000  0.4560480000000 1.0
C      1  0.5415390000000  0.4863240000000  0.5597460000000 1.0
C      1  0.4858120000000  0.5420150000000  0.5656880000000 1.0
C      1  0.5770810000000  0.4723740000000  0.4553900000000 1.0
C      1  0.5401340000000  0.5380360000000  0.5434890000000 1.0
C      1  0.5589710000000  0.5349910000000  0.5217520000000 1.0
C      1  0.5329550000000  0.5683160000000  0.5122200000000 1.0
C      1  0.4935940000000  0.5101540000000  0.4284290000000 1.0
C      1  0.4488070000000  0.5179910000000  0.4478180000000 1.0
C      1  0.4632540000000  0.4647400000000  0.4646390000000 1.0
C      1  0.5326330000000  0.4131600000000  0.4775810000000 1.0
C      1  0.5140530000000  0.4424250000000  0.5463050000000 1.0
C      1  0.4939040000000  0.5128880000000  0.4810760000000 1.0
C      1  0.4506130000000  0.5577420000000  0.4787340000000 1.0
C      1  0.5100090000000  0.4720640000000  0.4718790000000 1.0
C      1  0.4536250000000  0.4854840000000  0.5585700000000 1.0
C      1  0.4318570000000  0.4535840000000  0.5149590000000 1.0
END
