TITL C-22555-8396-7 0.139348965827682 125000 -777.072205082831 0 0 111 (C1) n - 1
REM
REM in /rds/project/t2_vol4/rds-t2-cs072/BORA/CARBON/from-Arr/AIRSS/Generating-Clusters/GAP-ML-2020/Only-C1/SD-CG/HFTN-CG
REM
REM
REM
REM
REM
REM ./C.cell (11c1c37f851c82e70ff6c80c92926a4b)
REM AIRSS Version 0.9.1 bugfix July 2018 build 013d7b7c2542+ Fri, 06 Jul 2018 19:26:36 +0100
REM compiler GCC version 9.3.0
REM options -cpp -mtune=generic -march=x86-64 -g -O0
REM seed 1053755760 -1015437230 -1316116952 1066688145 -898855252 1545388756 -607332285 1022646363 -1145534569 -156942760 -634257952 806157688 1235037845 1546526280 1988355960 -1835038032 -282439066 -138770575 1612132427 -836229866 -1710254367 -860189182 1276238726 1606024603 1181567118 697792604 -841383884 -1386352399 1239400542 -657064769 641057574 1250188836 -1353762644
REM
CELL 1.54180   50.00000   50.00000   50.00000   90.00000   90.00000   90.00000
LATT -1
SFAC C  
C      1  0.4276920000000  0.5616870000000  0.5153650000000 1.0
C      1  0.4663700000000  0.4558550000000  0.5724020000000 1.0
C      1  0.4934080000000  0.5060180000000  0.4840360000000 1.0
C      1  0.5599530000000  0.5596610000000  0.4603320000000 1.0
C      1  0.4530530000000  0.4895150000000  0.5209110000000 1.0
C      1  0.5858750000000  0.5097040000000  0.5028960000000 1.0
C      1  0.5199070000000  0.4693900000000  0.4240880000000 1.0
C      1  0.4971090000000  0.4343220000000  0.4399890000000 1.0
C      1  0.4985800000000  0.4087740000000  0.5270550000000 1.0
C      1  0.4619040000000  0.4842440000000  0.5709940000000 1.0
C      1  0.4926270000000  0.4485620000000  0.5832990000000 1.0
C      1  0.4968870000000  0.5675150000000  0.5507950000000 1.0
C      1  0.5378510000000  0.4347520000000  0.5500670000000 1.0
C      1  0.5686380000000  0.4683750000000  0.5382550000000 1.0
C      1  0.4288260000000  0.4880440000000  0.5021630000000 1.0
C      1  0.4864490000000  0.4195490000000  0.4619080000000 1.0
C      1  0.4863990000000  0.5263210000000  0.5252830000000 1.0
C      1  0.4539950000000  0.4492180000000  0.4474500000000 1.0
C      1  0.5486420000000  0.4381760000000  0.4513310000000 1.0
C      1  0.5264200000000  0.5391530000000  0.5757160000000 1.0
C      1  0.4987680000000  0.5455830000000  0.5050710000000 1.0
C      1  0.5743290000000  0.4865770000000  0.4901510000000 1.0
C      1  0.5772140000000  0.4590000000000  0.4819900000000 1.0
C      1  0.5242800000000  0.4710410000000  0.4852460000000 1.0
C      1  0.4459240000000  0.4814180000000  0.4770670000000 1.0
C      1  0.4508830000000  0.5478440000000  0.4453000000000 1.0
C      1  0.4215080000000  0.5346840000000  0.5245310000000 1.0
C      1  0.4543990000000  0.5355210000000  0.5638200000000 1.0
C      1  0.5029580000000  0.4021960000000  0.4762550000000 1.0
C      1  0.4162480000000  0.4620430000000  0.5112570000000 1.0
C      1  0.4537210000000  0.5080750000000  0.4664840000000 1.0
C      1  0.5626890000000  0.5224960000000  0.5555230000000 1.0
C      1  0.4656870000000  0.4637580000000  0.5157200000000 1.0
C      1  0.5766770000000  0.5372250000000  0.4662530000000 1.0
C      1  0.5003000000000  0.5488920000000  0.5728080000000 1.0
C      1  0.4824390000000  0.5019580000000  0.5838720000000 1.0
C      1  0.4705740000000  0.4168910000000  0.5285080000000 1.0
C      1  0.5040400000000  0.5856510000000  0.4684580000000 1.0
C      1  0.5729990000000  0.5163530000000  0.4450220000000 1.0
C      1  0.5307650000000  0.5115410000000  0.5850750000000 1.0
C      1  0.4714570000000  0.4641620000000  0.4863640000000 1.0
C      1  0.4858700000000  0.5926270000000  0.4898820000000 1.0
C      1  0.5098880000000  0.3994300000000  0.5031820000000 1.0
C      1  0.5273890000000  0.5877210000000  0.4853260000000 1.0
C      1  0.5454770000000  0.5535450000000  0.4364630000000 1.0
C      1  0.4515090000000  0.5767130000000  0.5237330000000 1.0
C      1  0.5151790000000  0.4648810000000  0.5855470000000 1.0
C      1  0.4280960000000  0.5519680000000  0.4652520000000 1.0
C      1  0.5352410000000  0.5136790000000  0.4159690000000 1.0
C      1  0.5091260000000  0.5910810000000  0.5078930000000 1.0
C      1  0.5755640000000  0.4904380000000  0.5218290000000 1.0
C      1  0.4527590000000  0.5258220000000  0.4913050000000 1.0
C      1  0.5681260000000  0.4589660000000  0.4542650000000 1.0
C      1  0.4858660000000  0.5096060000000  0.4288620000000 1.0
C      1  0.4808630000000  0.5159850000000  0.4585670000000 1.0
C      1  0.5095710000000  0.4928910000000  0.5891480000000 1.0
C      1  0.5276200000000  0.4647470000000  0.5121570000000 1.0
C      1  0.4678560000000  0.4285820000000  0.5559900000000 1.0
C      1  0.5463280000000  0.4918330000000  0.4741430000000 1.0
C      1  0.5786390000000  0.5360310000000  0.4947720000000 1.0
C      1  0.4768440000000  0.5475070000000  0.4591000000000 1.0
C      1  0.5519440000000  0.4472500000000  0.5250580000000 1.0
C      1  0.4608710000000  0.5780060000000  0.4951100000000 1.0
C      1  0.4339070000000  0.5229750000000  0.5491440000000 1.0
C      1  0.4371040000000  0.5104860000000  0.4385030000000 1.0
C      1  0.4889280000000  0.4596750000000  0.5316210000000 1.0
C      1  0.5493300000000  0.4238990000000  0.4773620000000 1.0
C      1  0.5411240000000  0.4872150000000  0.4233870000000 1.0
C      1  0.4780170000000  0.4545410000000  0.4325760000000 1.0
C      1  0.4937560000000  0.4248150000000  0.5681180000000 1.0
C      1  0.5167780000000  0.5517850000000  0.4327620000000 1.0
C      1  0.5300040000000  0.4047970000000  0.4836740000000 1.0
C      1  0.5564430000000  0.5296320000000  0.4264600000000 1.0
C      1  0.4340120000000  0.4681190000000  0.4526000000000 1.0
C      1  0.5085360000000  0.4778570000000  0.5293290000000 1.0
C      1  0.4116040000000  0.5285390000000  0.4733980000000 1.0
C      1  0.5241640000000  0.4433310000000  0.4355320000000 1.0
C      1  0.5434910000000  0.5609650000000  0.5315160000000 1.0
C      1  0.5585970000000  0.5118330000000  0.5296260000000 1.0
C      1  0.5141040000000  0.4185520000000  0.5497200000000 1.0
C      1  0.4104840000000  0.5109040000000  0.4515610000000 1.0
C      1  0.4554710000000  0.5268730000000  0.4253150000000 1.0
C      1  0.5578590000000  0.4747870000000  0.5638280000000 1.0
C      1  0.4324840000000  0.5689390000000  0.4872190000000 1.0
C      1  0.4921410000000  0.4791130000000  0.4243620000000 1.0
C      1  0.5605060000000  0.4865170000000  0.4459430000000 1.0
C      1  0.5547750000000  0.5018680000000  0.5730820000000 1.0
C      1  0.5644680000000  0.4384300000000  0.4974820000000 1.0
C      1  0.4974690000000  0.4780600000000  0.4806520000000 1.0
C      1  0.5307920000000  0.5149440000000  0.5186440000000 1.0
C      1  0.4653520000000  0.4354140000000  0.4747630000000 1.0
C      1  0.5350190000000  0.5184660000000  0.4723050000000 1.0
C      1  0.4987180000000  0.5651160000000  0.4497160000000 1.0
C      1  0.4778740000000  0.5297370000000  0.5788900000000 1.0
C      1  0.5176990000000  0.5242290000000  0.4927980000000 1.0
C      1  0.4188870000000  0.4875700000000  0.4392430000000 1.0
C      1  0.5467940000000  0.5466980000000  0.5568000000000 1.0
C      1  0.5385450000000  0.4552380000000  0.5706420000000 1.0
C      1  0.4368360000000  0.4452190000000  0.5130480000000 1.0
C      1  0.4544960000000  0.4253410000000  0.5042190000000 1.0
C      1  0.5509620000000  0.5726450000000  0.4843920000000 1.0
C      1  0.5086630000000  0.5061320000000  0.5336680000000 1.0
C      1  0.5603820000000  0.5580510000000  0.5072010000000 1.0
C      1  0.4462740000000  0.4969530000000  0.5495370000000 1.0
C      1  0.4727610000000  0.5511670000000  0.4880630000000 1.0
C      1  0.4710000000000  0.5100850000000  0.5068100000000 1.0
C      1  0.4674910000000  0.5453680000000  0.5407900000000 1.0
C      1  0.5099240000000  0.5259300000000  0.4213750000000 1.0
C      1  0.4220460000000  0.5183870000000  0.5001740000000 1.0
C      1  0.5142350000000  0.5683390000000  0.5262380000000 1.0
C      1  0.4706230000000  0.5734060000000  0.5432490000000 1.0
END
