TITL C-221347-4664-6 -0.0834679266862104 125000 -483.864843345575 0 0 71 (C1) n - 1
REM
REM in /rds/project/t2_vol4/rds-t2-cs072/BORA/CARBON/from-Arr/AIRSS/Generating-Clusters/GAP-ML-2020/Only-C1/SD-CG/HFTN-CG
REM
REM
REM
REM
REM
REM ./C.cell (11c1c37f851c82e70ff6c80c92926a4b)
REM AIRSS Version 0.9.1 bugfix July 2018 build 013d7b7c2542+ Fri, 06 Jul 2018 19:26:36 +0100
REM compiler GCC version 9.3.0
REM options -cpp -mtune=generic -march=x86-64 -g -O0
REM seed -1544164372 1278085893 -1191933809 1133022071 732193085 1914901817 -1079749971 -1968024180 -2120908357 1433853569 -1159885368 2040764986 406574267 798365628 -597729354 897600177 -467617291 744690909 1447273482 1030916452 1239960066 -1528362348 1493759304 -731914569 -1256256970 295999418 -113985526 632806632 -1164918811 493304015 -1804633400 1100404835 -1007274329
REM
CELL 1.54180   50.00000   50.00000   50.00000   90.00000   90.00000   90.00000
LATT -1
SFAC C  
C      1  0.5452950000000  0.4421590000000  0.5069340000000 1.0
C      1  0.4635590000000  0.5396210000000  0.4959510000000 1.0
C      1  0.5460820000000  0.5593130000000  0.4840910000000 1.0
C      1  0.4831700000000  0.4330750000000  0.4850310000000 1.0
C      1  0.4940570000000  0.4523960000000  0.5320240000000 1.0
C      1  0.4625120000000  0.4991240000000  0.5700590000000 1.0
C      1  0.5002000000000  0.5285260000000  0.5218190000000 1.0
C      1  0.5621530000000  0.5367890000000  0.4782970000000 1.0
C      1  0.5611510000000  0.4505410000000  0.4839720000000 1.0
C      1  0.4953010000000  0.4317210000000  0.5114260000000 1.0
C      1  0.5216990000000  0.4292410000000  0.4992450000000 1.0
C      1  0.4233520000000  0.4993350000000  0.4652450000000 1.0
C      1  0.5471530000000  0.4973260000000  0.4521090000000 1.0
C      1  0.4592430000000  0.4455450000000  0.4778190000000 1.0
C      1  0.4990750000000  0.5654980000000  0.4725730000000 1.0
C      1  0.5252810000000  0.5598940000000  0.4634360000000 1.0
C      1  0.4675690000000  0.4580530000000  0.5439270000000 1.0
C      1  0.5835330000000  0.4965730000000  0.4980720000000 1.0
C      1  0.5527270000000  0.5244940000000  0.4547400000000 1.0
C      1  0.4487040000000  0.5177060000000  0.5501220000000 1.0
C      1  0.5405600000000  0.5294500000000  0.5468320000000 1.0
C      1  0.5510650000000  0.4445360000000  0.4581720000000 1.0
C      1  0.4940730000000  0.4888230000000  0.4878810000000 1.0
C      1  0.4502150000000  0.4660470000000  0.4961180000000 1.0
C      1  0.5414460000000  0.4852300000000  0.4781200000000 1.0
C      1  0.5008620000000  0.5160370000000  0.4793080000000 1.0
C      1  0.5263410000000  0.4422220000000  0.4480450000000 1.0
C      1  0.5659990000000  0.5200750000000  0.5023480000000 1.0
C      1  0.4800320000000  0.5426390000000  0.4716280000000 1.0
C      1  0.5394950000000  0.5043020000000  0.5011800000000 1.0
C      1  0.4484120000000  0.4880770000000  0.4548940000000 1.0
C      1  0.4528930000000  0.4730070000000  0.5639040000000 1.0
C      1  0.4119270000000  0.5106390000000  0.5161410000000 1.0
C      1  0.5328640000000  0.4871970000000  0.5244890000000 1.0
C      1  0.5102730000000  0.4387380000000  0.4737540000000 1.0
C      1  0.4758750000000  0.5494970000000  0.5203840000000 1.0
C      1  0.5111400000000  0.4688760000000  0.4417400000000 1.0
C      1  0.5176450000000  0.5247980000000  0.4989420000000 1.0
C      1  0.4522740000000  0.5132380000000  0.4992630000000 1.0
C      1  0.4630600000000  0.4898370000000  0.4837010000000 1.0
C      1  0.4214740000000  0.5056750000000  0.5421480000000 1.0
C      1  0.4495180000000  0.4710650000000  0.5241760000000 1.0
C      1  0.5402210000000  0.4586630000000  0.5287350000000 1.0
C      1  0.5350900000000  0.5023780000000  0.5501560000000 1.0
C      1  0.4596520000000  0.4587120000000  0.4522040000000 1.0
C      1  0.5295470000000  0.5381090000000  0.4452350000000 1.0
C      1  0.4723950000000  0.5365280000000  0.4459660000000 1.0
C      1  0.5718320000000  0.4761940000000  0.4861540000000 1.0
C      1  0.5149440000000  0.5441810000000  0.5460540000000 1.0
C      1  0.4661460000000  0.5417350000000  0.5475490000000 1.0
C      1  0.4593490000000  0.5020080000000  0.5255420000000 1.0
C      1  0.4835750000000  0.5187930000000  0.4290080000000 1.0
C      1  0.5155130000000  0.4923330000000  0.5687470000000 1.0
C      1  0.4818980000000  0.4685450000000  0.4365340000000 1.0
C      1  0.5431180000000  0.5608190000000  0.5130160000000 1.0
C      1  0.4906100000000  0.5371960000000  0.5624510000000 1.0
C      1  0.4691270000000  0.4947240000000  0.4331820000000 1.0
C      1  0.5128650000000  0.5186060000000  0.4308660000000 1.0
C      1  0.4943210000000  0.5731370000000  0.5163550000000 1.0
C      1  0.5195620000000  0.5671440000000  0.5284110000000 1.0
C      1  0.4293090000000  0.4769350000000  0.5455230000000 1.0
C      1  0.5250940000000  0.4934560000000  0.4342380000000 1.0
C      1  0.4900350000000  0.5072380000000  0.5645170000000 1.0
C      1  0.5198000000000  0.4510050000000  0.5479510000000 1.0
C      1  0.5178200000000  0.4652260000000  0.5706040000000 1.0
C      1  0.5564310000000  0.5383330000000  0.5249530000000 1.0
C      1  0.4953820000000  0.5843010000000  0.4918230000000 1.0
C      1  0.5142780000000  0.4716030000000  0.4736480000000 1.0
C      1  0.4225460000000  0.5096570000000  0.4915780000000 1.0
C      1  0.4884070000000  0.5032200000000  0.5313840000000 1.0
C      1  0.5018780000000  0.4822840000000  0.5175560000000 1.0
END
