TITL C-221350-4357-3 -0.0891741084508149 125000 -310.621010199265 0 0 46 (C1) n - 1
REM
REM in /rds/project/t2_vol4/rds-t2-cs072/BORA/CARBON/from-Arr/AIRSS/Generating-Clusters/GAP-ML-2020/Only-C1/SD-CG/HFTN-CG
REM
REM
REM
REM
REM
REM ./C.cell (11c1c37f851c82e70ff6c80c92926a4b)
REM AIRSS Version 0.9.1 bugfix July 2018 build 013d7b7c2542+ Fri, 06 Jul 2018 19:26:36 +0100
REM compiler GCC version 9.3.0
REM options -cpp -mtune=generic -march=x86-64 -g -O0
REM seed -1807362431 1697570879 1692957013 -1835852024 1177889198 -1465520258 249353724 -1033515887 217441809 1839997510 1554844177 -223034258 -1358477129 824579629 940477475 11015105 -553301504 -1902787408 819588468 -983776611 486384823 -1704915982 -997616095 1211879300 1781441111 847512638 76338114 1606984556 -1028117204 -2093221813 1417303016 1034164832 -2100824326
REM
CELL 1.54180   50.00000   50.00000   50.00000   90.00000   90.00000   90.00000
LATT -1
SFAC C  
C      1  0.4680630000000  0.4551190000000  0.5043530000000 1.0
C      1  0.5362070000000  0.4509920000000  0.4839550000000 1.0
C      1  0.5631350000000  0.5064050000000  0.4991880000000 1.0
C      1  0.5494410000000  0.4598480000000  0.5088930000000 1.0
C      1  0.5087960000000  0.4491360000000  0.4840150000000 1.0
C      1  0.4596350000000  0.5179060000000  0.4477530000000 1.0
C      1  0.4837390000000  0.4948830000000  0.4795080000000 1.0
C      1  0.4453920000000  0.4703760000000  0.5475500000000 1.0
C      1  0.4919730000000  0.4596610000000  0.4632250000000 1.0
C      1  0.5525620000000  0.5191730000000  0.4759360000000 1.0
C      1  0.4654220000000  0.4887910000000  0.5433210000000 1.0
C      1  0.4390600000000  0.5259250000000  0.4833630000000 1.0
C      1  0.5075000000000  0.4636920000000  0.5337370000000 1.0
C      1  0.5137390000000  0.5002940000000  0.4820260000000 1.0
C      1  0.5521550000000  0.4705250000000  0.4700120000000 1.0
C      1  0.4342800000000  0.4854610000000  0.5030930000000 1.0
C      1  0.4851100000000  0.5305570000000  0.5426330000000 1.0
C      1  0.4952170000000  0.4512180000000  0.5106280000000 1.0
C      1  0.4994140000000  0.4802590000000  0.4424800000000 1.0
C      1  0.4808840000000  0.5015790000000  0.4491480000000 1.0
C      1  0.5354640000000  0.4690430000000  0.5315580000000 1.0
C      1  0.4927830000000  0.4837930000000  0.5479200000000 1.0
C      1  0.5399890000000  0.4946570000000  0.4606100000000 1.0
C      1  0.4970860000000  0.5592570000000  0.5030020000000 1.0
C      1  0.5432130000000  0.5328600000000  0.5397560000000 1.0
C      1  0.5588830000000  0.5128860000000  0.5261660000000 1.0
C      1  0.4371160000000  0.5059070000000  0.4628080000000 1.0
C      1  0.4846920000000  0.5397470000000  0.4855200000000 1.0
C      1  0.5118020000000  0.5112250000000  0.5092040000000 1.0
C      1  0.5347730000000  0.5413000000000  0.4787540000000 1.0
C      1  0.4405700000000  0.4803510000000  0.4754440000000 1.0
C      1  0.5657320000000  0.4784430000000  0.4943360000000 1.0
C      1  0.4603220000000  0.5398280000000  0.4699060000000 1.0
C      1  0.5022510000000  0.5099100000000  0.5538020000000 1.0
C      1  0.5103730000000  0.5296500000000  0.4704450000000 1.0
C      1  0.5296150000000  0.5122880000000  0.5555450000000 1.0
C      1  0.4639640000000  0.5149680000000  0.5279030000000 1.0
C      1  0.5279670000000  0.5524420000000  0.5291370000000 1.0
C      1  0.5266220000000  0.5570040000000  0.5003670000000 1.0
C      1  0.5457200000000  0.4923450000000  0.5428340000000 1.0
C      1  0.4817390000000  0.5145040000000  0.5030870000000 1.0
C      1  0.5246990000000  0.4881010000000  0.4386160000000 1.0
C      1  0.4464730000000  0.4653080000000  0.5204490000000 1.0
C      1  0.4986640000000  0.5521020000000  0.5311300000000 1.0
C      1  0.4403410000000  0.5130290000000  0.5090730000000 1.0
C      1  0.4674230000000  0.4672500000000  0.4778100000000 1.0
END
