TITL C-22836-2311-6 1.02534206892984 125000 -258.819704946444 0 0 39 (C1) n - 1
REM
REM in /rds/project/t2_vol4/rds-t2-cs072/BORA/CARBON/from-Arr/AIRSS/Generating-Clusters/GAP-ML-2020/Only-C1/SD-CG/HFTN-CG
REM
REM
REM
REM
REM
REM ./C.cell (11c1c37f851c82e70ff6c80c92926a4b)
REM AIRSS Version 0.9.1 bugfix July 2018 build 013d7b7c2542+ Fri, 06 Jul 2018 19:26:36 +0100
REM compiler GCC version 9.3.0
REM options -cpp -mtune=generic -march=x86-64 -g -O0
REM seed -2115431913 -1997957090 -38100078 -1098792267 728255636 -2090368621 1574143600 541550515 -393735227 1894003785 325941738 1939249447 -1848987776 433591920 375734938 1929237357 -218741336 105046016 973715651 483385264 103240717 1844117647 575500298 -1813781974 1839383083 1386281083 311743 -1463452069 -1832454562 84048818 1234308974 851204965 -1557243054
REM
CELL 1.54180   50.00000   50.00000   50.00000   90.00000   90.00000   90.00000
LATT -1
SFAC C  
C      1  0.5081300000000  0.4669680000000  0.5264120000000 1.0
C      1  0.4927530000000  0.5396650000000  0.4492350000000 1.0
C      1  0.5344660000000  0.5375080000000  0.5369410000000 1.0
C      1  0.5146080000000  0.4950290000000  0.5334270000000 1.0
C      1  0.5218750000000  0.4581710000000  0.5041020000000 1.0
C      1  0.4908380000000  0.4236850000000  0.4884410000000 1.0
C      1  0.4697650000000  0.5305500000000  0.5274240000000 1.0
C      1  0.5507760000000  0.4993290000000  0.5083350000000 1.0
C      1  0.4500470000000  0.4359060000000  0.5083260000000 1.0
C      1  0.4799080000000  0.4952140000000  0.4428500000000 1.0
C      1  0.5014960000000  0.5136600000000  0.4403450000000 1.0
C      1  0.5076950000000  0.5553770000000  0.4678410000000 1.0
C      1  0.4670920000000  0.4187760000000  0.4968590000000 1.0
C      1  0.4604500000000  0.5077570000000  0.5134970000000 1.0
C      1  0.5101360000000  0.4606710000000  0.4595930000000 1.0
C      1  0.4865340000000  0.5297350000000  0.5513960000000 1.0
C      1  0.4992510000000  0.5031230000000  0.4850810000000 1.0
C      1  0.5397150000000  0.4783880000000  0.4928830000000 1.0
C      1  0.5100990000000  0.5146940000000  0.5085170000000 1.0
C      1  0.5080790000000  0.4438680000000  0.4836740000000 1.0
C      1  0.4936020000000  0.5403980000000  0.5130650000000 1.0
C      1  0.4838110000000  0.4589360000000  0.5369390000000 1.0
C      1  0.4588160000000  0.4572620000000  0.5216060000000 1.0
C      1  0.5313800000000  0.4802500000000  0.4654010000000 1.0
C      1  0.5487560000000  0.5214160000000  0.5530410000000 1.0
C      1  0.4539870000000  0.4861090000000  0.5307030000000 1.0
C      1  0.4596980000000  0.5097930000000  0.4603540000000 1.0
C      1  0.5176290000000  0.5053820000000  0.4624660000000 1.0
C      1  0.5342350000000  0.5637670000000  0.4686360000000 1.0
C      1  0.4694750000000  0.5368310000000  0.4673440000000 1.0
C      1  0.5081040000000  0.5459120000000  0.5392330000000 1.0
C      1  0.4881480000000  0.4696280000000  0.4451970000000 1.0
C      1  0.5380460000000  0.5270490000000  0.5056240000000 1.0
C      1  0.4740500000000  0.4832070000000  0.5514320000000 1.0
C      1  0.4864460000000  0.5520040000000  0.4879430000000 1.0
C      1  0.5416070000000  0.5483320000000  0.4879780000000 1.0
C      1  0.4943040000000  0.5024190000000  0.5541400000000 1.0
C      1  0.4701900000000  0.5045120000000  0.4858090000000 1.0
C      1  0.5440010000000  0.4987190000000  0.5379090000000 1.0
END
