TITL C-22560-8241-1 -0.0029064927459511 125000 -22.9478494954693 0 0 4 (D(inf)h) n - 1
REM
REM in /rds/project/t2_vol4/rds-t2-cs072/BORA/CARBON/from-Arr/AIRSS/Generating-Clusters/GAP-ML-2020/Only-C1/SD-CG/HFTN-CG
REM
REM
REM
REM
REM
REM ./C.cell (11c1c37f851c82e70ff6c80c92926a4b)
REM AIRSS Version 0.9.1 bugfix July 2018 build 013d7b7c2542+ Fri, 06 Jul 2018 19:26:36 +0100
REM compiler GCC version 9.3.0
REM options -cpp -mtune=generic -march=x86-64 -g -O0
REM seed -1829293242 936485312 -983433173 -942401580 1711161362 972940370 1386684394 -990664658 -1276710262 1630536042 1048978703 -557693054 -1256889267 -852551229 1100325965 1786817950 568123027 681659774 -2107555398 262351089 -1480125639 2126419068 1448877394 743124306 291658435 -457513769 493374532 118410341 127941909 543816744 264149834 -659611497 1592280272
REM
CELL 1.54180   50.00000   50.00000   50.00000   90.00000   90.00000   90.00000
LATT -1
SFAC C  
C      1  0.4996390000000  0.4960660000000  0.5128730000000 1.0
C      1  0.5010420000000  0.5113530000000  0.4628470000000 1.0
C      1  0.5003610000000  0.5039340000000  0.4871270000000 1.0
C      1  0.4989580000000  0.4886470000000  0.5371530000000 1.0
END
