TITL C-22826-2222-1 24.8429149634057 125000 -485.844480387544 0 0 71 (C1) n - 1
REM
REM in /rds/project/t2_vol4/rds-t2-cs072/BORA/CARBON/from-Arr/AIRSS/Generating-Clusters/GAP-ML-2020/Only-C1/SD-CG/HFTN-CG
REM
REM
REM
REM
REM
REM ./C.cell (11c1c37f851c82e70ff6c80c92926a4b)
REM AIRSS Version 0.9.1 bugfix July 2018 build 013d7b7c2542+ Fri, 06 Jul 2018 19:26:36 +0100
REM compiler GCC version 9.3.0
REM options -cpp -mtune=generic -march=x86-64 -g -O0
REM seed -831119411 675898882 -1366840233 836814080 707377696 -613482758 -1826946118 -1013590736 -461624012 -1300329000 -1745284827 1886432293 1115116605 981145618 35597638 1475402070 1556345671 -1511801085 -1537992331 1093088389 -2074777697 1992649987 641468424 -1184206403 587745217 1777241098 -1316717246 1748531613 1304135983 -1376844169 -1403815982 879414706 -47819834
REM
CELL 1.54180   50.00000   50.00000   50.00000   90.00000   90.00000   90.00000
LATT -1
SFAC C  
C      1  0.4494470000000  0.5401220000000  0.4524040000000 1.0
C      1  0.4629160000000  0.4919910000000  0.4436260000000 1.0
C      1  0.4883400000000  0.4531120000000  0.5594520000000 1.0
C      1  0.4651630000000  0.4644660000000  0.4402990000000 1.0
C      1  0.4383700000000  0.4768090000000  0.5087560000000 1.0
C      1  0.4777900000000  0.4428470000000  0.5347000000000 1.0
C      1  0.4344300000000  0.5068510000000  0.5126030000000 1.0
C      1  0.4836530000000  0.5009940000000  0.4964820000000 1.0
C      1  0.5512440000000  0.4595010000000  0.4632670000000 1.0
C      1  0.4903430000000  0.5540000000000  0.5061940000000 1.0
C      1  0.5527730000000  0.5158080000000  0.5500470000000 1.0
C      1  0.4741960000000  0.5467100000000  0.4612790000000 1.0
C      1  0.5196240000000  0.5246120000000  0.4822470000000 1.0
C      1  0.5501760000000  0.5439560000000  0.5512110000000 1.0
C      1  0.4443850000000  0.5210800000000  0.5367280000000 1.0
C      1  0.5408980000000  0.4551300000000  0.5111660000000 1.0
C      1  0.5352870000000  0.4855370000000  0.5110070000000 1.0
C      1  0.5344440000000  0.5049830000000  0.5694830000000 1.0
C      1  0.5001960000000  0.4857030000000  0.4748490000000 1.0
C      1  0.4691190000000  0.4636830000000  0.5756130000000 1.0
C      1  0.5236120000000  0.4425290000000  0.5301310000000 1.0
C      1  0.5533660000000  0.4876960000000  0.4663120000000 1.0
C      1  0.4530800000000  0.5474040000000  0.5304220000000 1.0
C      1  0.4866590000000  0.4757860000000  0.5131870000000 1.0
C      1  0.5343980000000  0.4508040000000  0.4415360000000 1.0
C      1  0.4933390000000  0.4607140000000  0.4870160000000 1.0
C      1  0.5452260000000  0.4428420000000  0.4865200000000 1.0
C      1  0.4994630000000  0.4228110000000  0.4936420000000 1.0
C      1  0.4996260000000  0.4295950000000  0.5213810000000 1.0
C      1  0.5159400000000  0.4628880000000  0.5513860000000 1.0
C      1  0.5235100000000  0.5243340000000  0.4386090000000 1.0
C      1  0.5280410000000  0.4954640000000  0.4826240000000 1.0
C      1  0.5002560000000  0.5293810000000  0.4575510000000 1.0
C      1  0.4796000000000  0.4352610000000  0.4729580000000 1.0
C      1  0.4877060000000  0.5248820000000  0.5526300000000 1.0
C      1  0.5579680000000  0.5533390000000  0.5258390000000 1.0
C      1  0.5068930000000  0.5677060000000  0.5468790000000 1.0
C      1  0.5205150000000  0.4277210000000  0.4516730000000 1.0
C      1  0.5249440000000  0.4234370000000  0.4795960000000 1.0
C      1  0.5489870000000  0.5311860000000  0.4524120000000 1.0
C      1  0.4814470000000  0.5526310000000  0.5377560000000 1.0
C      1  0.4897300000000  0.4544950000000  0.4308460000000 1.0
C      1  0.5124790000000  0.5263810000000  0.5699880000000 1.0
C      1  0.5105370000000  0.4848060000000  0.5287950000000 1.0
C      1  0.5324130000000  0.4782250000000  0.5690660000000 1.0
C      1  0.5539770000000  0.5079060000000  0.5219490000000 1.0
C      1  0.5105840000000  0.5754170000000  0.5004530000000 1.0
C      1  0.4396040000000  0.4710020000000  0.4802860000000 1.0
C      1  0.5246960000000  0.5511090000000  0.5625410000000 1.0
C      1  0.4601220000000  0.4673310000000  0.5276840000000 1.0
C      1  0.5580330000000  0.5320430000000  0.5069050000000 1.0
C      1  0.5133830000000  0.4979580000000  0.4313410000000 1.0
C      1  0.5440160000000  0.5424120000000  0.4812270000000 1.0
C      1  0.5653600000000  0.5090400000000  0.4541630000000 1.0
C      1  0.4284490000000  0.5296200000000  0.4939990000000 1.0
C      1  0.4600470000000  0.4807540000000  0.5558970000000 1.0
C      1  0.4552990000000  0.5040490000000  0.4906260000000 1.0
C      1  0.5464550000000  0.5765770000000  0.5162400000000 1.0
C      1  0.4901900000000  0.5019590000000  0.4495290000000 1.0
C      1  0.4683590000000  0.5568770000000  0.4874980000000 1.0
C      1  0.5147460000000  0.4693360000000  0.4277730000000 1.0
C      1  0.5003210000000  0.5243750000000  0.5051880000000 1.0
C      1  0.4449100000000  0.5513060000000  0.5027630000000 1.0
C      1  0.5066880000000  0.5142730000000  0.5314810000000 1.0
C      1  0.4424680000000  0.4968260000000  0.4638900000000 1.0
C      1  0.4305970000000  0.5240320000000  0.4646970000000 1.0
C      1  0.5372350000000  0.5703640000000  0.4894950000000 1.0
C      1  0.4934820000000  0.4315720000000  0.4474130000000 1.0
C      1  0.5204620000000  0.5827560000000  0.5268510000000 1.0
C      1  0.4556790000000  0.4519040000000  0.4653370000000 1.0
C      1  0.4623100000000  0.5089870000000  0.5546050000000 1.0
END
