TITL C-22556-8121-3 0.0683959106701933 125000 -527.882628883299 0 0 77 (C1) n - 1
REM
REM in /rds/project/t2_vol4/rds-t2-cs072/BORA/CARBON/from-Arr/AIRSS/Generating-Clusters/GAP-ML-2020/Only-C1/SD-CG/HFTN-CG
REM
REM
REM
REM
REM
REM ./C.cell (11c1c37f851c82e70ff6c80c92926a4b)
REM AIRSS Version 0.9.1 bugfix July 2018 build 013d7b7c2542+ Fri, 06 Jul 2018 19:26:36 +0100
REM compiler GCC version 9.3.0
REM options -cpp -mtune=generic -march=x86-64 -g -O0
REM seed -452925893 -973948015 1416821963 -1828319018 2022913747 -2065484696 464960308 1190252016 468519612 1351554859 1604033423 -1574556185 661810862 1615475197 -1025123941 -1260912367 1551874672 -1105757593 982693137 -793005564 -1582621893 1563022198 -1032316759 -1878372812 2000100777 -684855488 1332308061 -1598242526 -1469332098 -421044679 354771407 1374879541 47360418
REM
CELL 1.54180   50.00000   50.00000   50.00000   90.00000   90.00000   90.00000
LATT -1
SFAC C  
C      1  0.4316260000000  0.5387090000000  0.4891970000000 1.0
C      1  0.5458380000000  0.5531740000000  0.5060190000000 1.0
C      1  0.4762910000000  0.4357550000000  0.4833570000000 1.0
C      1  0.4951440000000  0.4224020000000  0.4994570000000 1.0
C      1  0.4886390000000  0.5604430000000  0.5311150000000 1.0
C      1  0.5575590000000  0.4539290000000  0.5103950000000 1.0
C      1  0.5305090000000  0.5557780000000  0.4584450000000 1.0
C      1  0.4118030000000  0.4958160000000  0.5080590000000 1.0
C      1  0.4893700000000  0.4802710000000  0.5684530000000 1.0
C      1  0.5398200000000  0.5106190000000  0.4478370000000 1.0
C      1  0.5474640000000  0.4838240000000  0.5039410000000 1.0
C      1  0.4544010000000  0.5050550000000  0.4331830000000 1.0
C      1  0.5686700000000  0.4843130000000  0.5514270000000 1.0
C      1  0.5063430000000  0.5276890000000  0.5701500000000 1.0
C      1  0.5067730000000  0.5635920000000  0.4740520000000 1.0
C      1  0.5419910000000  0.4948470000000  0.5585610000000 1.0
C      1  0.5176740000000  0.4317820000000  0.5389930000000 1.0
C      1  0.4177140000000  0.4798270000000  0.4881890000000 1.0
C      1  0.5363140000000  0.4353980000000  0.4720430000000 1.0
C      1  0.4785870000000  0.5144520000000  0.4778130000000 1.0
C      1  0.5523010000000  0.4815970000000  0.4416850000000 1.0
C      1  0.4957110000000  0.5348690000000  0.4320160000000 1.0
C      1  0.5113650000000  0.5800320000000  0.4974810000000 1.0
C      1  0.5664460000000  0.4740860000000  0.4650180000000 1.0
C      1  0.5594300000000  0.4507240000000  0.4799670000000 1.0
C      1  0.4842910000000  0.4527480000000  0.5628430000000 1.0
C      1  0.5240950000000  0.5349340000000  0.4399680000000 1.0
C      1  0.5001650000000  0.5333620000000  0.4874550000000 1.0
C      1  0.4485290000000  0.5257380000000  0.4702870000000 1.0
C      1  0.5752960000000  0.4631840000000  0.5324880000000 1.0
C      1  0.4787470000000  0.5678630000000  0.4654720000000 1.0
C      1  0.5368090000000  0.5005890000000  0.5284490000000 1.0
C      1  0.4870870000000  0.5096010000000  0.5267400000000 1.0
C      1  0.4662530000000  0.5731610000000  0.4915490000000 1.0
C      1  0.5347250000000  0.5767960000000  0.5110500000000 1.0
C      1  0.4904370000000  0.4949940000000  0.4534440000000 1.0
C      1  0.5223160000000  0.4886360000000  0.4872610000000 1.0
C      1  0.4541210000000  0.4577150000000  0.5247260000000 1.0
C      1  0.5237770000000  0.4241620000000  0.4946200000000 1.0
C      1  0.5374390000000  0.4332020000000  0.5177540000000 1.0
C      1  0.5686620000000  0.4969800000000  0.4862990000000 1.0
C      1  0.4446230000000  0.5588720000000  0.5043210000000 1.0
C      1  0.5253920000000  0.5180390000000  0.4895290000000 1.0
C      1  0.5129140000000  0.4480300000000  0.5619870000000 1.0
C      1  0.4264360000000  0.4983360000000  0.5347130000000 1.0
C      1  0.4483890000000  0.4825620000000  0.5404530000000 1.0
C      1  0.4822250000000  0.5093380000000  0.4297040000000 1.0
C      1  0.5006330000000  0.5351600000000  0.5186930000000 1.0
C      1  0.4545460000000  0.4516620000000  0.4948780000000 1.0
C      1  0.4682380000000  0.5505720000000  0.5482660000000 1.0
C      1  0.4860660000000  0.5798350000000  0.5108580000000 1.0
C      1  0.4445240000000  0.5493920000000  0.5329390000000 1.0
C      1  0.5867510000000  0.4886360000000  0.5293720000000 1.0
C      1  0.4739130000000  0.5497710000000  0.4434170000000 1.0
C      1  0.5171880000000  0.4443540000000  0.4531180000000 1.0
C      1  0.5516240000000  0.5484160000000  0.4773300000000 1.0
C      1  0.5191350000000  0.4753600000000  0.5685500000000 1.0
C      1  0.5182430000000  0.4905570000000  0.4577020000000 1.0
C      1  0.4921820000000  0.4257730000000  0.5272100000000 1.0
C      1  0.4719240000000  0.4418080000000  0.5395730000000 1.0
C      1  0.4999370000000  0.4799950000000  0.5022260000000 1.0
C      1  0.5310600000000  0.5284990000000  0.5172640000000 1.0
C      1  0.4766560000000  0.4979280000000  0.5007560000000 1.0
C      1  0.4766370000000  0.4688330000000  0.4493530000000 1.0
C      1  0.4504050000000  0.4780090000000  0.4492020000000 1.0
C      1  0.5089670000000  0.4890810000000  0.5276160000000 1.0
C      1  0.4725330000000  0.4991540000000  0.5528330000000 1.0
C      1  0.5273180000000  0.4676640000000  0.4414810000000 1.0
C      1  0.4886690000000  0.4454730000000  0.4592270000000 1.0
C      1  0.5908390000000  0.4982210000000  0.5045720000000 1.0
C      1  0.4789810000000  0.5273040000000  0.5629820000000 1.0
C      1  0.4505300000000  0.5311670000000  0.4427750000000 1.0
C      1  0.5529740000000  0.5201260000000  0.4730360000000 1.0
C      1  0.4258270000000  0.5273760000000  0.5331910000000 1.0
C      1  0.4139760000000  0.5247700000000  0.5065800000000 1.0
C      1  0.5303640000000  0.5193700000000  0.5714550000000 1.0
C      1  0.4388460000000  0.4679100000000  0.4755850000000 1.0
END
