TITL C-221370-5708-6 -0.0896908286353842 125000 -707.203414767877 0 0 101 (C1) n - 1
REM
REM in /rds/project/t2_vol4/rds-t2-cs072/BORA/CARBON/from-Arr/AIRSS/Generating-Clusters/GAP-ML-2020/Only-C1/SD-CG/HFTN-CG
REM
REM
REM
REM
REM
REM ./C.cell (11c1c37f851c82e70ff6c80c92926a4b)
REM AIRSS Version 0.9.1 bugfix July 2018 build 013d7b7c2542+ Fri, 06 Jul 2018 19:26:36 +0100
REM compiler GCC version 9.3.0
REM options -cpp -mtune=generic -march=x86-64 -g -O0
REM seed 142984501 -730544242 -1465317203 1100658403 -2124776892 -1049772915 -1231593006 -1993058713 106827863 1644856431 1513996743 1372595929 1464493879 -89698827 -1218766199 2009251512 1079826809 -1782349013 340891173 -1921552478 -2077327531 -1483395727 -1469249291 -371859215 -268647873 1633628021 1272798074 -227448143 -1934228128 1085272790 900274543 290621614 1289256982
REM
CELL 1.54180   50.00000   50.00000   50.00000   90.00000   90.00000   90.00000
LATT -1
SFAC C  
C      1  0.5684500000000  0.4339200000000  0.4833800000000 1.0
C      1  0.5669130000000  0.5608950000000  0.4885050000000 1.0
C      1  0.4547510000000  0.5496350000000  0.4497020000000 1.0
C      1  0.5747350000000  0.5438400000000  0.5098150000000 1.0
C      1  0.5629290000000  0.5009920000000  0.5459610000000 1.0
C      1  0.4498750000000  0.5223090000000  0.4422520000000 1.0
C      1  0.4996520000000  0.4993560000000  0.4722130000000 1.0
C      1  0.5430920000000  0.5702020000000  0.5348080000000 1.0
C      1  0.4721990000000  0.4122560000000  0.4765300000000 1.0
C      1  0.4971270000000  0.4539160000000  0.4926030000000 1.0
C      1  0.4440680000000  0.5730170000000  0.4900660000000 1.0
C      1  0.5117500000000  0.5391750000000  0.4996400000000 1.0
C      1  0.4224440000000  0.5228280000000  0.5057450000000 1.0
C      1  0.5207390000000  0.4822220000000  0.4036220000000 1.0
C      1  0.4801280000000  0.4725690000000  0.5815910000000 1.0
C      1  0.4727060000000  0.5232420000000  0.5101630000000 1.0
C      1  0.4949410000000  0.5386750000000  0.5262680000000 1.0
C      1  0.5017220000000  0.5221610000000  0.5493080000000 1.0
C      1  0.5711330000000  0.5527070000000  0.4612110000000 1.0
C      1  0.5152960000000  0.5676400000000  0.4875690000000 1.0
C      1  0.4208040000000  0.4584350000000  0.4759140000000 1.0
C      1  0.4609990000000  0.4401640000000  0.5363060000000 1.0
C      1  0.4677360000000  0.4526580000000  0.4861640000000 1.0
C      1  0.5409330000000  0.5242780000000  0.4228500000000 1.0
C      1  0.4204490000000  0.5024430000000  0.5269970000000 1.0
C      1  0.4792840000000  0.5174660000000  0.5729910000000 1.0
C      1  0.5460570000000  0.5632590000000  0.4517830000000 1.0
C      1  0.4673840000000  0.4112400000000  0.5247560000000 1.0
C      1  0.4998020000000  0.4597040000000  0.5668220000000 1.0
C      1  0.5366610000000  0.4375080000000  0.5195340000000 1.0
C      1  0.4459730000000  0.5661730000000  0.5177050000000 1.0
C      1  0.5692860000000  0.4633540000000  0.4836750000000 1.0
C      1  0.5232060000000  0.4192220000000  0.4781460000000 1.0
C      1  0.5227920000000  0.4799130000000  0.5634780000000 1.0
C      1  0.4921780000000  0.4978600000000  0.5891040000000 1.0
C      1  0.4423480000000  0.4605690000000  0.5483750000000 1.0
C      1  0.4596910000000  0.4810820000000  0.4796330000000 1.0
C      1  0.5246340000000  0.4645690000000  0.4246320000000 1.0
C      1  0.5516260000000  0.5261730000000  0.5522100000000 1.0
C      1  0.4851780000000  0.5616910000000  0.5674210000000 1.0
C      1  0.4624810000000  0.4367930000000  0.4608810000000 1.0
C      1  0.4728520000000  0.4928270000000  0.5079420000000 1.0
C      1  0.4402820000000  0.5323230000000  0.5718510000000 1.0
C      1  0.4876650000000  0.5261380000000  0.4847470000000 1.0
C      1  0.5656980000000  0.5136380000000  0.4332870000000 1.0
C      1  0.4250800000000  0.4559610000000  0.5054760000000 1.0
C      1  0.4542060000000  0.4119250000000  0.4998690000000 1.0
C      1  0.5819770000000  0.4840030000000  0.4660890000000 1.0
C      1  0.4936670000000  0.5212870000000  0.4224250000000 1.0
C      1  0.5072640000000  0.4958730000000  0.5398710000000 1.0
C      1  0.5719660000000  0.4707590000000  0.5123330000000 1.0
C      1  0.4243880000000  0.4731550000000  0.5281900000000 1.0
C      1  0.5459840000000  0.4238800000000  0.4957130000000 1.0
C      1  0.4984900000000  0.4071700000000  0.4866920000000 1.0
C      1  0.4535240000000  0.4763310000000  0.5696410000000 1.0
C      1  0.4342280000000  0.4398160000000  0.4615680000000 1.0
C      1  0.4366980000000  0.5543800000000  0.4713040000000 1.0
C      1  0.4220910000000  0.5302650000000  0.4785320000000 1.0
C      1  0.4712230000000  0.5066590000000  0.4333190000000 1.0
C      1  0.4886020000000  0.4519110000000  0.5398630000000 1.0
C      1  0.4793030000000  0.4556880000000  0.4439780000000 1.0
C      1  0.5258320000000  0.5283480000000  0.5679730000000 1.0
C      1  0.5785080000000  0.4968310000000  0.5217600000000 1.0
C      1  0.5538650000000  0.4579750000000  0.5301360000000 1.0
C      1  0.5199020000000  0.5012170000000  0.5832050000000 1.0
C      1  0.4814310000000  0.5611020000000  0.4495160000000 1.0
C      1  0.4904860000000  0.5756870000000  0.4735620000000 1.0
C      1  0.5289450000000  0.5005470000000  0.4725540000000 1.0
C      1  0.4296020000000  0.5104320000000  0.4594730000000 1.0
C      1  0.4773420000000  0.4850100000000  0.4541980000000 1.0
C      1  0.4994630000000  0.4831180000000  0.4975440000000 1.0
C      1  0.4828190000000  0.4812880000000  0.5325700000000 1.0
C      1  0.4496590000000  0.4411400000000  0.5070650000000 1.0
C      1  0.5143710000000  0.5561490000000  0.5717690000000 1.0
C      1  0.5064820000000  0.4383010000000  0.5193690000000 1.0
C      1  0.5492490000000  0.4760470000000  0.5517290000000 1.0
C      1  0.5003740000000  0.5469850000000  0.4333380000000 1.0
C      1  0.5794630000000  0.5275490000000  0.4543950000000 1.0
C      1  0.4710310000000  0.5814480000000  0.5211270000000 1.0
C      1  0.4902470000000  0.5677800000000  0.5382990000000 1.0
C      1  0.5413860000000  0.5729040000000  0.4790240000000 1.0
C      1  0.5854170000000  0.5177630000000  0.5035310000000 1.0
C      1  0.4945700000000  0.4112170000000  0.5155260000000 1.0
C      1  0.5171150000000  0.4465370000000  0.4690660000000 1.0
C      1  0.5884620000000  0.5097880000000  0.4758750000000 1.0
C      1  0.5594610000000  0.5478120000000  0.5340380000000 1.0
C      1  0.4352840000000  0.5203260000000  0.5457700000000 1.0
C      1  0.5059940000000  0.4498570000000  0.4411090000000 1.0
C      1  0.5313800000000  0.5158380000000  0.4970090000000 1.0
C      1  0.5186910000000  0.5086310000000  0.4129050000000 1.0
C      1  0.5295500000000  0.5481090000000  0.4342370000000 1.0
C      1  0.5691390000000  0.4863890000000  0.4402760000000 1.0
C      1  0.5201870000000  0.5719050000000  0.5476510000000 1.0
C      1  0.4328770000000  0.4835030000000  0.4691270000000 1.0
C      1  0.4711110000000  0.5846670000000  0.4917700000000 1.0
C      1  0.5395300000000  0.4683640000000  0.4692410000000 1.0
C      1  0.5201530000000  0.4955220000000  0.5140890000000 1.0
C      1  0.5476810000000  0.4684190000000  0.4410230000000 1.0
C      1  0.4665480000000  0.5440050000000  0.5780540000000 1.0
C      1  0.4521070000000  0.5053230000000  0.5675570000000 1.0
C      1  0.4449450000000  0.5360650000000  0.5205230000000 1.0
END
