TITL C-22821-2182-4 39.9679206731327 125000 -614.491024233094 0 0 90 (C1) n - 1
REM
REM in /rds/project/t2_vol4/rds-t2-cs072/BORA/CARBON/from-Arr/AIRSS/Generating-Clusters/GAP-ML-2020/Only-C1/SD-CG/HFTN-CG
REM
REM
REM
REM
REM
REM ./C.cell (11c1c37f851c82e70ff6c80c92926a4b)
REM AIRSS Version 0.9.1 bugfix July 2018 build 013d7b7c2542+ Fri, 06 Jul 2018 19:26:36 +0100
REM compiler GCC version 9.3.0
REM options -cpp -mtune=generic -march=x86-64 -g -O0
REM seed 1273178842 345859206 -1859242782 1928934505 -1836044996 -394636232 1736104056 1975928583 2060789616 -646650404 27515838 -653341358 -1752946991 -2133059737 1782069484 -259678781 975660917 -1211667759 825733274 -689930460 -14827387 956855940 1042473132 855373503 591041143 -1004633365 -1438950474 -95502405 1997387785 1244010412 780977301 1031921255 1865772901
REM
CELL 1.54180   50.00000   50.00000   50.00000   90.00000   90.00000   90.00000
LATT -1
SFAC C  
C      1  0.5174690000000  0.4392090000000  0.5573220000000 1.0
C      1  0.5768200000000  0.5079510000000  0.5317600000000 1.0
C      1  0.5412430000000  0.4924900000000  0.5232760000000 1.0
C      1  0.4949310000000  0.5506090000000  0.5693500000000 1.0
C      1  0.5131360000000  0.4651430000000  0.4937220000000 1.0
C      1  0.5462600000000  0.5144530000000  0.4349640000000 1.0
C      1  0.4448100000000  0.5526670000000  0.4983750000000 1.0
C      1  0.5750270000000  0.5361210000000  0.5255390000000 1.0
C      1  0.4671750000000  0.4624620000000  0.5673020000000 1.0
C      1  0.5646280000000  0.5059920000000  0.4554810000000 1.0
C      1  0.4278350000000  0.4621020000000  0.5277420000000 1.0
C      1  0.4389380000000  0.5376570000000  0.5230140000000 1.0
C      1  0.5097380000000  0.4328010000000  0.4520800000000 1.0
C      1  0.5733340000000  0.4710280000000  0.4889050000000 1.0
C      1  0.4319230000000  0.4871040000000  0.5423170000000 1.0
C      1  0.5189160000000  0.5520860000000  0.4890530000000 1.0
C      1  0.4608330000000  0.4334590000000  0.4974850000000 1.0
C      1  0.4697510000000  0.5098960000000  0.5636880000000 1.0
C      1  0.4538240000000  0.5195120000000  0.4307320000000 1.0
C      1  0.4711240000000  0.4767190000000  0.5170550000000 1.0
C      1  0.4373030000000  0.4883290000000  0.4592810000000 1.0
C      1  0.5203550000000  0.4703180000000  0.5218210000000 1.0
C      1  0.4769220000000  0.4709830000000  0.4378910000000 1.0
C      1  0.5482220000000  0.5443260000000  0.5260860000000 1.0
C      1  0.5742240000000  0.5675330000000  0.4849890000000 1.0
C      1  0.4540030000000  0.5493430000000  0.5445870000000 1.0
C      1  0.5184830000000  0.5106850000000  0.5720330000000 1.0
C      1  0.4675340000000  0.5376660000000  0.5668290000000 1.0
C      1  0.4201190000000  0.4457660000000  0.4824570000000 1.0
C      1  0.4526710000000  0.4866950000000  0.5617330000000 1.0
C      1  0.5491220000000  0.5776860000000  0.4856380000000 1.0
C      1  0.5059540000000  0.5125130000000  0.4226250000000 1.0
C      1  0.5349220000000  0.4218120000000  0.4834930000000 1.0
C      1  0.4870300000000  0.4765220000000  0.4933410000000 1.0
C      1  0.4935210000000  0.5904900000000  0.5019000000000 1.0
C      1  0.5188680000000  0.5051680000000  0.4749630000000 1.0
C      1  0.4338930000000  0.5099140000000  0.5239990000000 1.0
C      1  0.4956610000000  0.4808950000000  0.5369340000000 1.0
C      1  0.4456850000000  0.4959370000000  0.5015370000000 1.0
C      1  0.4548000000000  0.4499110000000  0.5230970000000 1.0
C      1  0.4815830000000  0.5134720000000  0.4623300000000 1.0
C      1  0.4537320000000  0.5104710000000  0.4759680000000 1.0
C      1  0.5284350000000  0.4950510000000  0.4221770000000 1.0
C      1  0.4947710000000  0.4690790000000  0.5658070000000 1.0
C      1  0.5148890000000  0.5358400000000  0.5815380000000 1.0
C      1  0.4236480000000  0.4829620000000  0.4864590000000 1.0
C      1  0.5302640000000  0.5215060000000  0.5190860000000 1.0
C      1  0.5130610000000  0.5797950000000  0.5239910000000 1.0
C      1  0.4860900000000  0.4201850000000  0.4983150000000 1.0
C      1  0.4932880000000  0.5037670000000  0.4864960000000 1.0
C      1  0.5670420000000  0.4960380000000  0.5044890000000 1.0
C      1  0.5283240000000  0.4786150000000  0.4743400000000 1.0
C      1  0.4963540000000  0.5072440000000  0.5501430000000 1.0
C      1  0.5772630000000  0.5421830000000  0.4961830000000 1.0
C      1  0.4660910000000  0.4404240000000  0.5491860000000 1.0
C      1  0.5230280000000  0.5745850000000  0.4680130000000 1.0
C      1  0.4133480000000  0.4620950000000  0.5026000000000 1.0
C      1  0.5678340000000  0.4472960000000  0.5002840000000 1.0
C      1  0.5569840000000  0.4940750000000  0.5483830000000 1.0
C      1  0.5258620000000  0.4396490000000  0.5282520000000 1.0
C      1  0.5628870000000  0.5186380000000  0.4843570000000 1.0
C      1  0.5471040000000  0.4316350000000  0.5078380000000 1.0
C      1  0.5351320000000  0.5669170000000  0.5113940000000 1.0
C      1  0.4717710000000  0.5667430000000  0.5329450000000 1.0
C      1  0.5262360000000  0.4691540000000  0.4306920000000 1.0
C      1  0.4707140000000  0.5699000000000  0.5045930000000 1.0
C      1  0.5381210000000  0.4350210000000  0.4582120000000 1.0
C      1  0.4434790000000  0.5389340000000  0.4740710000000 1.0
C      1  0.5216460000000  0.4631010000000  0.5719290000000 1.0
C      1  0.4911930000000  0.4274320000000  0.5485560000000 1.0
C      1  0.5005290000000  0.4224030000000  0.5226310000000 1.0
C      1  0.5058210000000  0.4186400000000  0.4775710000000 1.0
C      1  0.5234360000000  0.5344960000000  0.4329190000000 1.0
C      1  0.5328470000000  0.5254890000000  0.4891010000000 1.0
C      1  0.5375970000000  0.4879170000000  0.5684630000000 1.0
C      1  0.4845510000000  0.5443170000000  0.4600570000000 1.0
C      1  0.4327730000000  0.5034880000000  0.4346630000000 1.0
C      1  0.5052620000000  0.5942400000000  0.4780560000000 1.0
C      1  0.5029310000000  0.5279690000000  0.5288790000000 1.0
C      1  0.5109310000000  0.5544990000000  0.4482170000000 1.0
C      1  0.4535960000000  0.4643970000000  0.4534240000000 1.0
C      1  0.4566230000000  0.5436610000000  0.4487370000000 1.0
C      1  0.5010430000000  0.4556550000000  0.4363310000000 1.0
C      1  0.5447360000000  0.4621430000000  0.4520250000000 1.0
C      1  0.4891010000000  0.5490590000000  0.4902920000000 1.0
C      1  0.4806130000000  0.5017320000000  0.4348170000000 1.0
C      1  0.5682980000000  0.4779000000000  0.4597330000000 1.0
C      1  0.4991930000000  0.5603430000000  0.5411310000000 1.0
C      1  0.4467020000000  0.4432820000000  0.4740460000000 1.0
C      1  0.4862340000000  0.5246110000000  0.5058850000000 1.0
END
