TITL C-22852-8435-4 0.109292377908646 125000 -813.872125344344 0 0 117 (C1) n - 1
REM
REM in /rds/project/t2_vol4/rds-t2-cs072/BORA/CARBON/from-Arr/AIRSS/Generating-Clusters/GAP-ML-2020/Only-C1/SD-CG/HFTN-CG
REM
REM
REM
REM
REM
REM ./C.cell (11c1c37f851c82e70ff6c80c92926a4b)
REM AIRSS Version 0.9.1 bugfix July 2018 build 013d7b7c2542+ Fri, 06 Jul 2018 19:26:36 +0100
REM compiler GCC version 9.3.0
REM options -cpp -mtune=generic -march=x86-64 -g -O0
REM seed -765779765 -656968074 1624671873 1708554354 -596630958 -1305641006 -507611872 1721980334 -405508582 -1781199123 -1004369711 -138449966 782342453 -857234137 -1913649526 604007508 1669149510 -1863624711 213539102 755571393 1110760281 -1503120142 -224335635 972333287 -1370425244 -1883766609 178734997 -187473692 1261684347 572004014 -1508725472 1581151833 -397455098
REM
CELL 1.54180   50.00000   50.00000   50.00000   90.00000   90.00000   90.00000
LATT -1
SFAC C  
C      1  0.5281180000000  0.5351520000000  0.4964400000000 1.0
C      1  0.4271780000000  0.5444690000000  0.5532590000000 1.0
C      1  0.4678360000000  0.5709290000000  0.4379660000000 1.0
C      1  0.5201620000000  0.4512720000000  0.5043930000000 1.0
C      1  0.4926770000000  0.4084370000000  0.5209910000000 1.0
C      1  0.5332420000000  0.4257050000000  0.4664830000000 1.0
C      1  0.4184210000000  0.5044710000000  0.4960440000000 1.0
C      1  0.4465480000000  0.5745530000000  0.4712900000000 1.0
C      1  0.5129190000000  0.5248820000000  0.4736490000000 1.0
C      1  0.5184420000000  0.4785490000000  0.4399760000000 1.0
C      1  0.4061550000000  0.5263340000000  0.5081630000000 1.0
C      1  0.4172380000000  0.5399750000000  0.4840330000000 1.0
C      1  0.5455910000000  0.4823440000000  0.5794090000000 1.0
C      1  0.4585330000000  0.4808130000000  0.4894030000000 1.0
C      1  0.5169660000000  0.4976140000000  0.4834730000000 1.0
C      1  0.5382290000000  0.5099410000000  0.5730710000000 1.0
C      1  0.5738170000000  0.4989030000000  0.4369420000000 1.0
C      1  0.4897640000000  0.4418120000000  0.5555540000000 1.0
C      1  0.4921580000000  0.5368500000000  0.4626510000000 1.0
C      1  0.4637300000000  0.4598080000000  0.4322410000000 1.0
C      1  0.5634250000000  0.4634640000000  0.5638100000000 1.0
C      1  0.4977090000000  0.4552440000000  0.4850930000000 1.0
C      1  0.5019100000000  0.5841410000000  0.4713100000000 1.0
C      1  0.4487060000000  0.4325340000000  0.5288700000000 1.0
C      1  0.4730530000000  0.5292410000000  0.4094600000000 1.0
C      1  0.5732540000000  0.4633050000000  0.4663310000000 1.0
C      1  0.5524800000000  0.5379560000000  0.5799850000000 1.0
C      1  0.4472370000000  0.5028600000000  0.5054660000000 1.0
C      1  0.4426190000000  0.5579900000000  0.4475720000000 1.0
C      1  0.4683260000000  0.5766240000000  0.5502440000000 1.0
C      1  0.5347640000000  0.5407240000000  0.5378020000000 1.0
C      1  0.5006530000000  0.4920090000000  0.5101660000000 1.0
C      1  0.5487680000000  0.5138580000000  0.5422670000000 1.0
C      1  0.5614650000000  0.4541970000000  0.4415060000000 1.0
C      1  0.5215990000000  0.5284700000000  0.4133570000000 1.0
C      1  0.5037760000000  0.4685490000000  0.5561840000000 1.0
C      1  0.5197340000000  0.4741740000000  0.5251480000000 1.0
C      1  0.5198490000000  0.4982170000000  0.4128330000000 1.0
C      1  0.4610200000000  0.4200790000000  0.4869190000000 1.0
C      1  0.4918260000000  0.4869940000000  0.4079920000000 1.0
C      1  0.4727930000000  0.4928170000000  0.4648170000000 1.0
C      1  0.4483510000000  0.4634490000000  0.5628210000000 1.0
C      1  0.4227670000000  0.5005910000000  0.5496360000000 1.0
C      1  0.4395420000000  0.5321450000000  0.5779580000000 1.0
C      1  0.4655350000000  0.4152800000000  0.5136800000000 1.0
C      1  0.4893810000000  0.5178870000000  0.5209570000000 1.0
C      1  0.5836670000000  0.5046920000000  0.5097710000000 1.0
C      1  0.5429640000000  0.5406340000000  0.4272230000000 1.0
C      1  0.4692220000000  0.5027060000000  0.4140550000000 1.0
C      1  0.4811420000000  0.4707240000000  0.5036060000000 1.0
C      1  0.4881160000000  0.4933490000000  0.5667340000000 1.0
C      1  0.5679580000000  0.4558190000000  0.4931970000000 1.0
C      1  0.4742660000000  0.5210960000000  0.4738480000000 1.0
C      1  0.5042570000000  0.4205700000000  0.5445260000000 1.0
C      1  0.4582210000000  0.4858770000000  0.5770070000000 1.0
C      1  0.4426580000000  0.4377080000000  0.4734030000000 1.0
C      1  0.4740160000000  0.5095920000000  0.5449180000000 1.0
C      1  0.5255120000000  0.4624530000000  0.5750330000000 1.0
C      1  0.4942130000000  0.5394410000000  0.5810220000000 1.0
C      1  0.5766110000000  0.5211130000000  0.5315200000000 1.0
C      1  0.5450440000000  0.4360720000000  0.4932790000000 1.0
C      1  0.5120230000000  0.4047340000000  0.5006830000000 1.0
C      1  0.5699790000000  0.5350680000000  0.4650170000000 1.0
C      1  0.5631750000000  0.4763970000000  0.4226190000000 1.0
C      1  0.5480920000000  0.4009300000000  0.5329210000000 1.0
C      1  0.4552240000000  0.4895470000000  0.4375670000000 1.0
C      1  0.4321810000000  0.4721720000000  0.5409340000000 1.0
C      1  0.4316750000000  0.4536290000000  0.5184750000000 1.0
C      1  0.5545890000000  0.5567950000000  0.5223300000000 1.0
C      1  0.4350220000000  0.5614360000000  0.4929520000000 1.0
C      1  0.5789910000000  0.5492730000000  0.5379820000000 1.0
C      1  0.4732740000000  0.5833830000000  0.4642180000000 1.0
C      1  0.5727260000000  0.4768730000000  0.5168050000000 1.0
C      1  0.5161530000000  0.5798310000000  0.4963350000000 1.0
C      1  0.5427600000000  0.5066050000000  0.4968170000000 1.0
C      1  0.5139900000000  0.5757200000000  0.4456820000000 1.0
C      1  0.5440040000000  0.4916540000000  0.5227520000000 1.0
C      1  0.5804380000000  0.4697970000000  0.5437400000000 1.0
C      1  0.5428500000000  0.5630520000000  0.4949070000000 1.0
C      1  0.5329100000000  0.4195020000000  0.5488190000000 1.0
C      1  0.4616800000000  0.4409490000000  0.5532590000000 1.0
C      1  0.4682600000000  0.5360720000000  0.5558850000000 1.0
C      1  0.4889680000000  0.4605830000000  0.4182360000000 1.0
C      1  0.4192930000000  0.4871130000000  0.4732600000000 1.0
C      1  0.4935130000000  0.5669880000000  0.4268050000000 1.0
C      1  0.4841930000000  0.4292400000000  0.4702490000000 1.0
C      1  0.5790560000000  0.4906820000000  0.4628900000000 1.0
C      1  0.4484930000000  0.4972070000000  0.5331230000000 1.0
C      1  0.5024970000000  0.4797970000000  0.4654000000000 1.0
C      1  0.5088440000000  0.4130590000000  0.4738880000000 1.0
C      1  0.5724740000000  0.5474710000000  0.5645600000000 1.0
C      1  0.5337940000000  0.5543570000000  0.5649990000000 1.0
C      1  0.5397170000000  0.4100090000000  0.5091400000000 1.0
C      1  0.4952190000000  0.5771600000000  0.5473980000000 1.0
C      1  0.5074230000000  0.5131010000000  0.5774040000000 1.0
C      1  0.4615620000000  0.4401040000000  0.4515290000000 1.0
C      1  0.4274420000000  0.5321430000000  0.4567380000000 1.0
C      1  0.5424590000000  0.4419690000000  0.5642120000000 1.0
C      1  0.5150590000000  0.4520260000000  0.4281200000000 1.0
C      1  0.5372860000000  0.4384340000000  0.4419430000000 1.0
C      1  0.5080970000000  0.5626750000000  0.5703800000000 1.0
C      1  0.5649850000000  0.5258150000000  0.4387960000000 1.0
C      1  0.4667410000000  0.5260490000000  0.5021550000000 1.0
C      1  0.5436170000000  0.4824150000000  0.4046820000000 1.0
C      1  0.4658140000000  0.5404430000000  0.5843830000000 1.0
C      1  0.5393410000000  0.5634700000000  0.4449170000000 1.0
C      1  0.4336460000000  0.4618170000000  0.4880510000000 1.0
C      1  0.4517270000000  0.5562900000000  0.5400700000000 1.0
C      1  0.4124790000000  0.5257460000000  0.5366560000000 1.0
C      1  0.5109640000000  0.5402220000000  0.5203290000000 1.0
C      1  0.5719110000000  0.5106760000000  0.4832160000000 1.0
C      1  0.4302470000000  0.5022970000000  0.4509450000000 1.0
C      1  0.5043900000000  0.5703790000000  0.5206250000000 1.0
C      1  0.4540860000000  0.5519910000000  0.5116730000000 1.0
C      1  0.4968320000000  0.5430100000000  0.4119000000000 1.0
C      1  0.5559960000000  0.5599680000000  0.4684910000000 1.0
C      1  0.4357040000000  0.5044170000000  0.5753870000000 1.0
END
