TITL C-22822-2289-3 -0.224523469969748 125000 -274.0132635055 0 0 42 (C1) n - 1
REM
REM in /rds/project/t2_vol4/rds-t2-cs072/BORA/CARBON/from-Arr/AIRSS/Generating-Clusters/GAP-ML-2020/Only-C1/SD-CG/HFTN-CG
REM
REM
REM
REM
REM
REM ./C.cell (11c1c37f851c82e70ff6c80c92926a4b)
REM AIRSS Version 0.9.1 bugfix July 2018 build 013d7b7c2542+ Fri, 06 Jul 2018 19:26:36 +0100
REM compiler GCC version 9.3.0
REM options -cpp -mtune=generic -march=x86-64 -g -O0
REM seed -97744855 1746112006 -793225837 -1630233305 1441473713 -1680542137 -489139503 752697255 -1377923849 453816779 673040424 -540331224 319950530 1034326834 1606949176 -1150966487 -844525624 1786086352 -480290538 1144573954 -1685218203 -1114830403 599789100 518963196 942543737 1294430670 1951574228 203172838 1166552999 930277049 -3539831 2088485131 -698305422
REM
CELL 1.54180   50.00000   50.00000   50.00000   90.00000   90.00000   90.00000
LATT -1
SFAC C  
C      1  0.4645360000000  0.4984760000000  0.5530190000000 1.0
C      1  0.4897200000000  0.4288230000000  0.5028950000000 1.0
C      1  0.5762300000000  0.4959180000000  0.4587710000000 1.0
C      1  0.4460740000000  0.5250000000000  0.5164100000000 1.0
C      1  0.4623390000000  0.5348890000000  0.4697060000000 1.0
C      1  0.4579910000000  0.4459340000000  0.5347490000000 1.0
C      1  0.4898700000000  0.5363300000000  0.5370880000000 1.0
C      1  0.4814330000000  0.4974240000000  0.4439160000000 1.0
C      1  0.5406980000000  0.5311260000000  0.4575420000000 1.0
C      1  0.5007560000000  0.5175500000000  0.4855820000000 1.0
C      1  0.5130890000000  0.5196090000000  0.5319400000000 1.0
C      1  0.5031540000000  0.4566740000000  0.5015340000000 1.0
C      1  0.4628880000000  0.5223510000000  0.5386220000000 1.0
C      1  0.5337070000000  0.5556220000000  0.4650640000000 1.0
C      1  0.5184470000000  0.5258640000000  0.4399060000000 1.0
C      1  0.5042730000000  0.4396250000000  0.5459320000000 1.0
C      1  0.4714550000000  0.5251760000000  0.4453110000000 1.0
C      1  0.5552870000000  0.4876240000000  0.5187720000000 1.0
C      1  0.4885480000000  0.5648320000000  0.5314330000000 1.0
C      1  0.5022810000000  0.4869720000000  0.5676940000000 1.0
C      1  0.5211970000000  0.4992120000000  0.5497620000000 1.0
C      1  0.5513220000000  0.5026110000000  0.4696370000000 1.0
C      1  0.4937860000000  0.4638460000000  0.5530210000000 1.0
C      1  0.4810950000000  0.4775780000000  0.5093740000000 1.0
C      1  0.5190930000000  0.4554260000000  0.5279980000000 1.0
C      1  0.4962170000000  0.5426060000000  0.4378540000000 1.0
C      1  0.5468890000000  0.5050000000000  0.4996630000000 1.0
C      1  0.4696510000000  0.4727560000000  0.5362540000000 1.0
C      1  0.4895500000000  0.5601900000000  0.5063950000000 1.0
C      1  0.4795400000000  0.4298060000000  0.5281820000000 1.0
C      1  0.4780360000000  0.5006940000000  0.4944110000000 1.0
C      1  0.5148060000000  0.4618720000000  0.4739170000000 1.0
C      1  0.5372230000000  0.4779690000000  0.5364270000000 1.0
C      1  0.5053210000000  0.5583510000000  0.4598430000000 1.0
C      1  0.4891080000000  0.5467850000000  0.4819060000000 1.0
C      1  0.4797420000000  0.4705970000000  0.4403220000000 1.0
C      1  0.5263780000000  0.4853190000000  0.4642590000000 1.0
C      1  0.4786750000000  0.4987130000000  0.5767580000000 1.0
C      1  0.5077360000000  0.5051000000000  0.4573820000000 1.0
C      1  0.4542420000000  0.5176840000000  0.4920290000000 1.0
C      1  0.5222270000000  0.5173900000000  0.5048810000000 1.0
C      1  0.4953900000000  0.4546760000000  0.4538380000000 1.0
END
