TITL C-22854-8419-2 -0.0698781328114019 125000 -253.770882314816 0 0 39 (C1) n - 1
REM
REM in /rds/project/t2_vol4/rds-t2-cs072/BORA/CARBON/from-Arr/AIRSS/Generating-Clusters/GAP-ML-2020/Only-C1/SD-CG/HFTN-CG
REM
REM
REM
REM
REM
REM ./C.cell (11c1c37f851c82e70ff6c80c92926a4b)
REM AIRSS Version 0.9.1 bugfix July 2018 build 013d7b7c2542+ Fri, 06 Jul 2018 19:26:36 +0100
REM compiler GCC version 9.3.0
REM options -cpp -mtune=generic -march=x86-64 -g -O0
REM seed 1675301158 -913429459 -1737982887 -480769512 -373276263 -835947634 -1415069349 -1972897227 -1733125843 -1407995822 364490681 -521384329 -332665851 -369072150 1879591679 2110044712 -1394654357 -1171587491 1388881761 -1148803339 789414987 -1425448905 2097765520 1821034830 2017381839 2125101421 -178202287 1688547147 -1467263898 -1725606939 -2116175411 -732664544 -68208161
REM
CELL 1.54180   50.00000   50.00000   50.00000   90.00000   90.00000   90.00000
LATT -1
SFAC C  
C      1  0.5002380000000  0.5108880000000  0.5547000000000 1.0
C      1  0.4553860000000  0.4976790000000  0.4770290000000 1.0
C      1  0.4708720000000  0.4557980000000  0.5248900000000 1.0
C      1  0.5420810000000  0.5214820000000  0.5125930000000 1.0
C      1  0.4742750000000  0.4981190000000  0.5587980000000 1.0
C      1  0.5069270000000  0.4899020000000  0.4778250000000 1.0
C      1  0.4724560000000  0.5541110000000  0.5000470000000 1.0
C      1  0.4906840000000  0.4972490000000  0.5150650000000 1.0
C      1  0.5191970000000  0.5374960000000  0.5130570000000 1.0
C      1  0.5274450000000  0.4399050000000  0.4822790000000 1.0
C      1  0.5102700000000  0.5480540000000  0.4870770000000 1.0
C      1  0.4972400000000  0.5258770000000  0.5293840000000 1.0
C      1  0.5722210000000  0.4975570000000  0.4807730000000 1.0
C      1  0.5423400000000  0.4992180000000  0.5310020000000 1.0
C      1  0.4521440000000  0.5037280000000  0.5432880000000 1.0
C      1  0.4896660000000  0.5086820000000  0.4391490000000 1.0
C      1  0.5392170000000  0.4613820000000  0.4686270000000 1.0
C      1  0.4480500000000  0.4712580000000  0.4862750000000 1.0
C      1  0.5217620000000  0.4797940000000  0.4563320000000 1.0
C      1  0.5213090000000  0.4920810000000  0.5500890000000 1.0
C      1  0.5555560000000  0.4771640000000  0.4870000000000 1.0
C      1  0.5149990000000  0.4486360000000  0.5046340000000 1.0
C      1  0.5337560000000  0.5271630000000  0.4623230000000 1.0
C      1  0.4541920000000  0.4514350000000  0.5019880000000 1.0
C      1  0.5178290000000  0.5063160000000  0.4458200000000 1.0
C      1  0.5267250000000  0.5534770000000  0.4655020000000 1.0
C      1  0.4841910000000  0.5361340000000  0.4795660000000 1.0
C      1  0.5120250000000  0.4659170000000  0.5480230000000 1.0
C      1  0.4725800000000  0.5400420000000  0.5244610000000 1.0
C      1  0.4836850000000  0.5059060000000  0.4861080000000 1.0
C      1  0.4547550000000  0.5444640000000  0.4824850000000 1.0
C      1  0.4512530000000  0.5215330000000  0.5216250000000 1.0
C      1  0.5123610000000  0.4789650000000  0.5036800000000 1.0
C      1  0.4698360000000  0.4837210000000  0.5321960000000 1.0
C      1  0.4999180000000  0.4493010000000  0.5289000000000 1.0
C      1  0.5517380000000  0.5163000000000  0.4844380000000 1.0
C      1  0.4432060000000  0.5202540000000  0.4937450000000 1.0
C      1  0.5420450000000  0.4778690000000  0.5120980000000 1.0
C      1  0.4655720000000  0.5051420000000  0.4471290000000 1.0
END
