TITL C-22834-2139-5 -0.0379906993318502 125000 -256.869150744719 0 0 39 (C1) n - 1
REM
REM in /rds/project/t2_vol4/rds-t2-cs072/BORA/CARBON/from-Arr/AIRSS/Generating-Clusters/GAP-ML-2020/Only-C1/SD-CG/HFTN-CG
REM
REM
REM
REM
REM
REM ./C.cell (11c1c37f851c82e70ff6c80c92926a4b)
REM AIRSS Version 0.9.1 bugfix July 2018 build 013d7b7c2542+ Fri, 06 Jul 2018 19:26:36 +0100
REM compiler GCC version 9.3.0
REM options -cpp -mtune=generic -march=x86-64 -g -O0
REM seed -1355648065 -720989367 -1774769426 -120912979 -292173354 -783332836 1444285614 273846031 -1962251353 1591926321 -1315914430 144025970 1663894460 -1844934462 -513354466 -1465754974 91503640 -709539853 1787542435 1621617246 -1300102779 -58980986 597917801 -1079580650 -1638917320 -372819139 2147160274 1218954434 1082875118 1059448416 -1554500405 1577148061 -299875025
REM
CELL 1.54180   50.00000   50.00000   50.00000   90.00000   90.00000   90.00000
LATT -1
SFAC C  
C      1  0.5331950000000  0.5090080000000  0.4795260000000 1.0
C      1  0.4948400000000  0.5199430000000  0.4507680000000 1.0
C      1  0.4896160000000  0.5446780000000  0.4630080000000 1.0
C      1  0.5380860000000  0.5389040000000  0.4802440000000 1.0
C      1  0.4959160000000  0.4574970000000  0.4813680000000 1.0
C      1  0.4526710000000  0.5076460000000  0.5147280000000 1.0
C      1  0.5637880000000  0.4720180000000  0.4685810000000 1.0
C      1  0.4726390000000  0.4646390000000  0.4649360000000 1.0
C      1  0.5505610000000  0.5188260000000  0.5238090000000 1.0
C      1  0.5123280000000  0.5538220000000  0.4784050000000 1.0
C      1  0.4678610000000  0.5059690000000  0.5620680000000 1.0
C      1  0.5087950000000  0.5516010000000  0.5066080000000 1.0
C      1  0.5176790000000  0.4531200000000  0.5212240000000 1.0
C      1  0.4604250000000  0.4939070000000  0.5383570000000 1.0
C      1  0.5354380000000  0.4971900000000  0.5106410000000 1.0
C      1  0.4643000000000  0.5387110000000  0.4783510000000 1.0
C      1  0.4515700000000  0.5149790000000  0.4722110000000 1.0
C      1  0.5036900000000  0.5080730000000  0.4777080000000 1.0
C      1  0.4971250000000  0.4418320000000  0.5044060000000 1.0
C      1  0.4921690000000  0.5131160000000  0.5672490000000 1.0
C      1  0.5077240000000  0.4959080000000  0.5178480000000 1.0
C      1  0.5155370000000  0.5223910000000  0.5600000000000 1.0
C      1  0.5322890000000  0.5549060000000  0.5233760000000 1.0
C      1  0.5590430000000  0.4595000000000  0.4917150000000 1.0
C      1  0.5027970000000  0.4726610000000  0.5358280000000 1.0
C      1  0.5411440000000  0.4669400000000  0.5110470000000 1.0
C      1  0.4499410000000  0.4678730000000  0.4838290000000 1.0
C      1  0.4963130000000  0.4841290000000  0.4923820000000 1.0
C      1  0.4433660000000  0.4952310000000  0.4904440000000 1.0
C      1  0.5508660000000  0.5421220000000  0.5053900000000 1.0
C      1  0.4684950000000  0.5301150000000  0.5052190000000 1.0
C      1  0.4463800000000  0.4486110000000  0.5025260000000 1.0
C      1  0.4706430000000  0.4518880000000  0.5141960000000 1.0
C      1  0.4749320000000  0.4799860000000  0.4429840000000 1.0
C      1  0.5338740000000  0.5328360000000  0.5439270000000 1.0
C      1  0.4971680000000  0.5241240000000  0.5051800000000 1.0
C      1  0.4819280000000  0.5029330000000  0.4326800000000 1.0
C      1  0.4745450000000  0.4688330000000  0.5354960000000 1.0
C      1  0.5503220000000  0.4935340000000  0.4617350000000 1.0
END
