TITL C-224021-6324-3 -0.0106176671233906 125000 -93.1300278733114 0 0 15 (C1) n - 1
REM
REM in /rds/project/t2_vol4/rds-t2-cs072/BORA/CARBON/from-Arr/AIRSS/Generating-Clusters/GAP-ML-2020/Only-C1/SD-CG/HFTN-CG
REM
REM
REM
REM
REM
REM ./C.cell (11c1c37f851c82e70ff6c80c92926a4b)
REM AIRSS Version 0.9.1 bugfix July 2018 build 013d7b7c2542+ Fri, 06 Jul 2018 19:26:36 +0100
REM compiler GCC version 9.3.0
REM options -cpp -mtune=generic -march=x86-64 -g -O0
REM seed 2077222303 1528663370 -1455471425 892403085 -1822559158 151858941 1482380241 -1231065402 1764053803 1937499853 -238238968 -1521445419 -669261725 -1578263537 -1770372001 -690164028 -2014388081 -618661322 -1004615547 1305407521 -718392155 -768150935 847736101 841792880 1672688130 -1007043217 -364016040 -1086400279 1592811869 474928341 2006151438 -81328317 -222146663
REM
CELL 1.54180   50.00000   50.00000   50.00000   90.00000   90.00000   90.00000
LATT -1
SFAC C  
C      1  0.5227120000000  0.5120580000000  0.4727180000000 1.0
C      1  0.4978970000000  0.5000500000000  0.5416140000000 1.0
C      1  0.5290880000000  0.4445960000000  0.4891140000000 1.0
C      1  0.5023960000000  0.5136050000000  0.4542090000000 1.0
C      1  0.5201200000000  0.4952350000000  0.4987810000000 1.0
C      1  0.5096740000000  0.5377810000000  0.5172100000000 1.0
C      1  0.4572320000000  0.4759200000000  0.5113000000000 1.0
C      1  0.4819180000000  0.5150240000000  0.4398630000000 1.0
C      1  0.4434400000000  0.4708700000000  0.4897820000000 1.0
C      1  0.5421020000000  0.5311930000000  0.4735650000000 1.0
C      1  0.4668510000000  0.4790120000000  0.5351780000000 1.0
C      1  0.5098660000000  0.5590110000000  0.5041330000000 1.0
C      1  0.4813390000000  0.4863150000000  0.5562600000000 1.0
C      1  0.5242130000000  0.4685000000000  0.4958040000000 1.0
C      1  0.5111530000000  0.5108320000000  0.5204690000000 1.0
END
