TITL C-22567-8119-7 2.58489075102505 125000 -770.453377056131 0 0 111 (C1) n - 1
REM
REM in /rds/project/t2_vol4/rds-t2-cs072/BORA/CARBON/from-Arr/AIRSS/Generating-Clusters/GAP-ML-2020/Only-C1/SD-CG/HFTN-CG
REM
REM
REM
REM
REM
REM ./C.cell (11c1c37f851c82e70ff6c80c92926a4b)
REM AIRSS Version 0.9.1 bugfix July 2018 build 013d7b7c2542+ Fri, 06 Jul 2018 19:26:36 +0100
REM compiler GCC version 9.3.0
REM options -cpp -mtune=generic -march=x86-64 -g -O0
REM seed 1754827284 -1251464853 -1856791695 730773825 -1309230697 -1811661931 -1556065176 2120109233 -1663616278 189439946 -268137623 -117575411 1053570206 -716744455 -1784182399 -501312740 -1148439393 -1347184998 -417910401 -285921112 -978079829 861892432 1902933139 -970777056 -1282193739 1799975463 1773098574 -1926819996 666876963 1021146032 1683828257 112847925 1116220233
REM
CELL 1.54180   50.00000   50.00000   50.00000   90.00000   90.00000   90.00000
LATT -1
SFAC C  
C      1  0.4746830000000  0.5787760000000  0.5622650000000 1.0
C      1  0.5434910000000  0.5307100000000  0.5880770000000 1.0
C      1  0.5216260000000  0.5811430000000  0.5380550000000 1.0
C      1  0.4519010000000  0.5448800000000  0.5147710000000 1.0
C      1  0.5588060000000  0.5152150000000  0.5713300000000 1.0
C      1  0.4792250000000  0.4737230000000  0.4293680000000 1.0
C      1  0.4957980000000  0.4514320000000  0.4195180000000 1.0
C      1  0.5754890000000  0.5303620000000  0.5525480000000 1.0
C      1  0.4908270000000  0.5637550000000  0.4543550000000 1.0
C      1  0.4755830000000  0.5238250000000  0.4276220000000 1.0
C      1  0.4965230000000  0.5868350000000  0.4961640000000 1.0
C      1  0.4459100000000  0.4791880000000  0.4699750000000 1.0
C      1  0.4856090000000  0.5752100000000  0.5195350000000 1.0
C      1  0.4376430000000  0.4356420000000  0.5475010000000 1.0
C      1  0.5359970000000  0.5514040000000  0.4722450000000 1.0
C      1  0.5436260000000  0.4560010000000  0.4251730000000 1.0
C      1  0.4896540000000  0.5007520000000  0.4197780000000 1.0
C      1  0.5194220000000  0.5580730000000  0.4499130000000 1.0
C      1  0.5194060000000  0.5083600000000  0.4290880000000 1.0
C      1  0.5735120000000  0.4405640000000  0.5150540000000 1.0
C      1  0.5017470000000  0.4592890000000  0.4809500000000 1.0
C      1  0.4638290000000  0.4440570000000  0.5082530000000 1.0
C      1  0.5210470000000  0.4199840000000  0.4484490000000 1.0
C      1  0.5642230000000  0.4481230000000  0.5395060000000 1.0
C      1  0.5721250000000  0.4709350000000  0.4592240000000 1.0
C      1  0.4919410000000  0.5310980000000  0.4959330000000 1.0
C      1  0.4955660000000  0.4280890000000  0.4361130000000 1.0
C      1  0.5935000000000  0.5160490000000  0.5382230000000 1.0
C      1  0.4388500000000  0.5483720000000  0.5414660000000 1.0
C      1  0.5441320000000  0.4360290000000  0.4452660000000 1.0
C      1  0.5125660000000  0.4861450000000  0.5625770000000 1.0
C      1  0.4884850000000  0.5484420000000  0.4279320000000 1.0
C      1  0.5104570000000  0.4277000000000  0.5168450000000 1.0
C      1  0.5437030000000  0.4934530000000  0.5561830000000 1.0
C      1  0.4125510000000  0.4963390000000  0.4330240000000 1.0
C      1  0.5474410000000  0.4626350000000  0.5538810000000 1.0
C      1  0.4744340000000  0.5062630000000  0.4973650000000 1.0
C      1  0.4971540000000  0.5318270000000  0.5730290000000 1.0
C      1  0.5149230000000  0.5390100000000  0.4291030000000 1.0
C      1  0.5996410000000  0.4513540000000  0.5103180000000 1.0
C      1  0.5225600000000  0.5261690000000  0.4904100000000 1.0
C      1  0.4821420000000  0.5870310000000  0.4710960000000 1.0
C      1  0.4562100000000  0.5589900000000  0.5630000000000 1.0
C      1  0.5420520000000  0.5685790000000  0.4961950000000 1.0
C      1  0.4458980000000  0.5168720000000  0.5027920000000 1.0
C      1  0.4691560000000  0.5404770000000  0.5811420000000 1.0
C      1  0.4283670000000  0.5034290000000  0.5243890000000 1.0
C      1  0.5310300000000  0.4202150000000  0.4971650000000 1.0
C      1  0.5608490000000  0.4449520000000  0.4668200000000 1.0
C      1  0.5895460000000  0.5142670000000  0.4888500000000 1.0
C      1  0.5590110000000  0.4784190000000  0.4337110000000 1.0
C      1  0.4975620000000  0.5014200000000  0.5822490000000 1.0
C      1  0.4564550000000  0.4690160000000  0.5814480000000 1.0
C      1  0.4411350000000  0.4795630000000  0.5377580000000 1.0
C      1  0.4267850000000  0.5237650000000  0.5470650000000 1.0
C      1  0.4245480000000  0.4743650000000  0.4262960000000 1.0
C      1  0.4355240000000  0.5365900000000  0.4516550000000 1.0
C      1  0.4492940000000  0.4660430000000  0.4409450000000 1.0
C      1  0.5254860000000  0.4985960000000  0.4816620000000 1.0
C      1  0.4771880000000  0.5434510000000  0.4733480000000 1.0
C      1  0.5340920000000  0.5054340000000  0.5306250000000 1.0
C      1  0.4379360000000  0.4839350000000  0.5665090000000 1.0
C      1  0.5984120000000  0.4765690000000  0.5023520000000 1.0
C      1  0.4882680000000  0.4141920000000  0.4774710000000 1.0
C      1  0.5982920000000  0.5040910000000  0.5149510000000 1.0
C      1  0.4350990000000  0.5611670000000  0.4655470000000 1.0
C      1  0.4134840000000  0.4881340000000  0.5027220000000 1.0
C      1  0.4890130000000  0.4353880000000  0.4974280000000 1.0
C      1  0.4637650000000  0.5228580000000  0.4548150000000 1.0
C      1  0.5056630000000  0.4350010000000  0.5447780000000 1.0
C      1  0.4195450000000  0.4590360000000  0.5044090000000 1.0
C      1  0.4785070000000  0.4300750000000  0.5518260000000 1.0
C      1  0.5168020000000  0.4928050000000  0.4553210000000 1.0
C      1  0.4531090000000  0.5580110000000  0.4884050000000 1.0
C      1  0.4245110000000  0.4546720000000  0.5320960000000 1.0
C      1  0.4329280000000  0.5111040000000  0.5718240000000 1.0
C      1  0.4182110000000  0.5143700000000  0.4540720000000 1.0
C      1  0.5768760000000  0.5395660000000  0.4885720000000 1.0
C      1  0.5617540000000  0.5530360000000  0.5408090000000 1.0
C      1  0.5230240000000  0.5843290000000  0.5086690000000 1.0
C      1  0.4938720000000  0.5854590000000  0.5449260000000 1.0
C      1  0.4587370000000  0.4441100000000  0.5671300000000 1.0
C      1  0.5206200000000  0.4588020000000  0.4110820000000 1.0
C      1  0.4703010000000  0.4956430000000  0.4704160000000 1.0
C      1  0.5129620000000  0.4778330000000  0.4986420000000 1.0
C      1  0.5405630000000  0.5244940000000  0.5122040000000 1.0
C      1  0.5566550000000  0.4329650000000  0.4926880000000 1.0
C      1  0.4262560000000  0.5002870000000  0.4794330000000 1.0
C      1  0.5196340000000  0.4571870000000  0.5580640000000 1.0
C      1  0.5242480000000  0.5457510000000  0.5748590000000 1.0
C      1  0.5489850000000  0.5034220000000  0.4229360000000 1.0
C      1  0.4915580000000  0.5272760000000  0.5432350000000 1.0
C      1  0.4735870000000  0.4232130000000  0.4544560000000 1.0
C      1  0.4578710000000  0.4250340000000  0.5309690000000 1.0
C      1  0.5593090000000  0.5497010000000  0.5113140000000 1.0
C      1  0.4548980000000  0.5174710000000  0.5880740000000 1.0
C      1  0.5652490000000  0.5262800000000  0.4208300000000 1.0
C      1  0.4919780000000  0.4777550000000  0.4590980000000 1.0
C      1  0.5371960000000  0.5625850000000  0.5527920000000 1.0
C      1  0.5637050000000  0.5457520000000  0.4645460000000 1.0
C      1  0.5042520000000  0.5025470000000  0.5361670000000 1.0
C      1  0.4719670000000  0.4927980000000  0.5893680000000 1.0
C      1  0.5730630000000  0.5438440000000  0.4376780000000 1.0
C      1  0.4513470000000  0.4402100000000  0.4579400000000 1.0
C      1  0.4823060000000  0.5445200000000  0.5207930000000 1.0
C      1  0.5868610000000  0.4871910000000  0.4775400000000 1.0
C      1  0.4682210000000  0.4690220000000  0.5256810000000 1.0
C      1  0.4520360000000  0.5824430000000  0.4740450000000 1.0
C      1  0.4886070000000  0.4872220000000  0.5156650000000 1.0
C      1  0.4435650000000  0.4517230000000  0.4860090000000 1.0
C      1  0.5164600000000  0.4104300000000  0.4742470000000 1.0
END
