TITL C-22561-9486-2 -428.037038329787 125000 -541.783016005617 0 0 77 (C1) n - 1
REM
REM in /rds/project/t2_vol4/rds-t2-cs072/BORA/CARBON/from-Arr/AIRSS/Generating-Clusters/GAP-ML-2020/Only-C1/SD-CG/HFTN-CG
REM
REM
REM
REM
REM
REM ./C.cell (11c1c37f851c82e70ff6c80c92926a4b)
REM AIRSS Version 0.9.1 bugfix July 2018 build 013d7b7c2542+ Fri, 06 Jul 2018 19:26:36 +0100
REM compiler GCC version 9.3.0
REM options -cpp -mtune=generic -march=x86-64 -g -O0
REM seed -1709450943 1790790341 830207818 -293846877 -218085910 -436857751 -93630553 1676078079 346675311 -1831472624 -243334188 1979610523 -898396553 -1577659328 1740627677 2115164189 -1249046903 -1673829643 417385118 431197016 -1123468654 -1550034946 -335105168 1991756843 -618189915 1010953170 -1628805255 -386790257 1486301011 998134187 1383481069 1246075380 2143766666
REM
CELL 1.54180   50.00000   50.00000   50.00000   90.00000   90.00000   90.00000
LATT -1
SFAC C  
C      1  0.5162940000000  0.5433900000000  0.5633510000000 1.0
C      1  0.5030810000000  0.4729000000000  0.5699400000000 1.0
C      1  0.5138030000000  0.5754670000000  0.4759500000000 1.0
C      1  0.4711860000000  0.4972950000000  0.4326960000000 1.0
C      1  0.4369600000000  0.4544070000000  0.5239410000000 1.0
C      1  0.5534040000000  0.4578280000000  0.5201730000000 1.0
C      1  0.5079470000000  0.4306110000000  0.4960600000000 1.0
C      1  0.5643430000000  0.4817850000000  0.5337520000000 1.0
C      1  0.5279260000000  0.4650030000000  0.5589680000000 1.0
C      1  0.5565610000000  0.5275490000000  0.5459800000000 1.0
C      1  0.4998990000000  0.5013560000000  0.5775670000000 1.0
C      1  0.4640730000000  0.4511750000000  0.4385870000000 1.0
C      1  0.5125260000000  0.5370490000000  0.5015620000000 1.0
C      1  0.5472040000000  0.5097930000000  0.5661810000000 1.0
C      1  0.5287190000000  0.4448690000000  0.4830260000000 1.0
C      1  0.5132190000000  0.5602460000000  0.4516120000000 1.0
C      1  0.5672820000000  0.4608060000000  0.4688700000000 1.0
C      1  0.4904080000000  0.5449710000000  0.4441730000000 1.0
C      1  0.4665000000000  0.5669760000000  0.4818300000000 1.0
C      1  0.5303330000000  0.4484800000000  0.5355840000000 1.0
C      1  0.4438490000000  0.5101910000000  0.4770010000000 1.0
C      1  0.4556460000000  0.5669750000000  0.5264050000000 1.0
C      1  0.4900360000000  0.4759750000000  0.4729080000000 1.0
C      1  0.5549650000000  0.4502110000000  0.4921410000000 1.0
C      1  0.4757010000000  0.4821940000000  0.4971870000000 1.0
C      1  0.5721980000000  0.4846740000000  0.4536260000000 1.0
C      1  0.4806030000000  0.4578710000000  0.5606370000000 1.0
C      1  0.4686370000000  0.5534710000000  0.4583920000000 1.0
C      1  0.5238190000000  0.5097770000000  0.5060490000000 1.0
C      1  0.4879530000000  0.5457130000000  0.5606800000000 1.0
C      1  0.4472330000000  0.5578050000000  0.5019910000000 1.0
C      1  0.5805990000000  0.5209110000000  0.5023600000000 1.0
C      1  0.5381590000000  0.5469530000000  0.4501580000000 1.0
C      1  0.4868620000000  0.4373550000000  0.4494700000000 1.0
C      1  0.4956440000000  0.5066970000000  0.4686240000000 1.0
C      1  0.5497690000000  0.4831500000000  0.5579230000000 1.0
C      1  0.5719210000000  0.5299270000000  0.4777400000000 1.0
C      1  0.4947340000000  0.5149180000000  0.4393750000000 1.0
C      1  0.5252150000000  0.5612320000000  0.5188880000000 1.0
C      1  0.4818520000000  0.4388110000000  0.5377550000000 1.0
C      1  0.5256050000000  0.4740090000000  0.4415910000000 1.0
C      1  0.4333400000000  0.5010640000000  0.5429320000000 1.0
C      1  0.5071380000000  0.4348630000000  0.5245280000000 1.0
C      1  0.5037360000000  0.4564280000000  0.4321680000000 1.0
C      1  0.5195270000000  0.4715780000000  0.4717210000000 1.0
C      1  0.4267940000000  0.5121080000000  0.5166560000000 1.0
C      1  0.4899470000000  0.4815170000000  0.5196050000000 1.0
C      1  0.4486440000000  0.4935780000000  0.4518240000000 1.0
C      1  0.4572900000000  0.4735870000000  0.5637580000000 1.0
C      1  0.4610010000000  0.4338100000000  0.4911210000000 1.0
C      1  0.5229340000000  0.5035760000000  0.4329820000000 1.0
C      1  0.4798460000000  0.4710610000000  0.4249510000000 1.0
C      1  0.5368720000000  0.5497080000000  0.5437250000000 1.0
C      1  0.4279100000000  0.4652130000000  0.4990840000000 1.0
C      1  0.5225340000000  0.5000490000000  0.4805260000000 1.0
C      1  0.4411410000000  0.4512980000000  0.4788520000000 1.0
C      1  0.5223760000000  0.5179620000000  0.5755640000000 1.0
C      1  0.4863960000000  0.5269330000000  0.5091410000000 1.0
C      1  0.4339580000000  0.5333250000000  0.4978970000000 1.0
C      1  0.4982010000000  0.5736270000000  0.5203470000000 1.0
C      1  0.4856580000000  0.4288630000000  0.4776220000000 1.0
C      1  0.4738260000000  0.5123860000000  0.4876780000000 1.0
C      1  0.5026920000000  0.5045330000000  0.5237700000000 1.0
C      1  0.4261890000000  0.4927630000000  0.4955790000000 1.0
C      1  0.4356890000000  0.4716280000000  0.5451140000000 1.0
C      1  0.5437680000000  0.5209280000000  0.4400510000000 1.0
C      1  0.5675940000000  0.5124710000000  0.4542910000000 1.0
C      1  0.4909290000000  0.5775580000000  0.4924470000000 1.0
C      1  0.5365900000000  0.5681760000000  0.4916980000000 1.0
C      1  0.4593400000000  0.4370650000000  0.5198860000000 1.0
C      1  0.5719570000000  0.5105980000000  0.5262810000000 1.0
C      1  0.4773780000000  0.5190940000000  0.5704360000000 1.0
C      1  0.5539570000000  0.4663820000000  0.4446040000000 1.0
C      1  0.5532110000000  0.5521380000000  0.4738280000000 1.0
C      1  0.4546200000000  0.5033710000000  0.5637310000000 1.0
C      1  0.4789560000000  0.5651830000000  0.5404220000000 1.0
C      1  0.4453950000000  0.4648040000000  0.4544730000000 1.0
END
