TITL C-221371-4336-3 197.801005546338 125000 -678.524123722775 0 0 98 (C1) n - 1
REM
REM in /rds/project/t2_vol4/rds-t2-cs072/BORA/CARBON/from-Arr/AIRSS/Generating-Clusters/GAP-ML-2020/Only-C1/SD-CG/HFTN-CG
REM
REM
REM
REM
REM
REM ./C.cell (11c1c37f851c82e70ff6c80c92926a4b)
REM AIRSS Version 0.9.1 bugfix July 2018 build 013d7b7c2542+ Fri, 06 Jul 2018 19:26:36 +0100
REM compiler GCC version 9.3.0
REM options -cpp -mtune=generic -march=x86-64 -g -O0
REM seed 1567015502 1355410728 1560762327 596207149 1836700456 1257817119 -1301610574 -262029351 2127335326 1510196056 59731142 -1421149384 388475858 -1039123837 -1726457466 1350661544 -710988663 1564620257 -1520690868 1754768844 -986818692 461349984 1732825736 1513059987 930076918 -2027013572 1371436661 854112764 619863787 331829282 -1270586590 -1181215540 527190231
REM
CELL 1.54180   50.00000   50.00000   50.00000   90.00000   90.00000   90.00000
LATT -1
SFAC C  
C      1  0.4574330000000  0.4465160000000  0.4787260000000 1.0
C      1  0.4050230000000  0.5250310000000  0.4897610000000 1.0
C      1  0.5228870000000  0.4959870000000  0.5776400000000 1.0
C      1  0.4173330000000  0.4773440000000  0.4909610000000 1.0
C      1  0.4708530000000  0.4755000000000  0.5276470000000 1.0
C      1  0.4291480000000  0.5334640000000  0.5625920000000 1.0
C      1  0.4537580000000  0.4879460000000  0.5057820000000 1.0
C      1  0.5449230000000  0.4545940000000  0.4647600000000 1.0
C      1  0.4758190000000  0.5474550000000  0.5480840000000 1.0
C      1  0.4978310000000  0.5380050000000  0.5672150000000 1.0
C      1  0.5087970000000  0.5061870000000  0.4734990000000 1.0
C      1  0.5470230000000  0.4610950000000  0.5388000000000 1.0
C      1  0.5794890000000  0.4900410000000  0.4741600000000 1.0
C      1  0.4982490000000  0.5111750000000  0.5778490000000 1.0
C      1  0.4701130000000  0.5212480000000  0.5325850000000 1.0
C      1  0.5244060000000  0.5513670000000  0.4445590000000 1.0
C      1  0.4310640000000  0.4923760000000  0.5442970000000 1.0
C      1  0.4737820000000  0.4311270000000  0.4571720000000 1.0
C      1  0.4892120000000  0.4100240000000  0.4705110000000 1.0
C      1  0.5517880000000  0.5459040000000  0.4494880000000 1.0
C      1  0.4462300000000  0.5542410000000  0.5553430000000 1.0
C      1  0.5416140000000  0.4688420000000  0.4909620000000 1.0
C      1  0.5615110000000  0.5195030000000  0.4439800000000 1.0
C      1  0.4772520000000  0.4921270000000  0.5737840000000 1.0
C      1  0.5085660000000  0.5331930000000  0.4294570000000 1.0
C      1  0.4300210000000  0.4589560000000  0.4716300000000 1.0
C      1  0.5433600000000  0.4980010000000  0.4341380000000 1.0
C      1  0.5665380000000  0.5448830000000  0.5370770000000 1.0
C      1  0.4185360000000  0.5095690000000  0.5624330000000 1.0
C      1  0.5793300000000  0.5360730000000  0.4865800000000 1.0
C      1  0.4523900000000  0.5741900000000  0.4948410000000 1.0
C      1  0.4634990000000  0.5134810000000  0.4245570000000 1.0
C      1  0.4274020000000  0.4810660000000  0.5180560000000 1.0
C      1  0.4240880000000  0.5007890000000  0.4507020000000 1.0
C      1  0.5144420000000  0.4163470000000  0.5194840000000 1.0
C      1  0.5008540000000  0.4749290000000  0.5229370000000 1.0
C      1  0.5169690000000  0.4680920000000  0.5750360000000 1.0
C      1  0.4951510000000  0.4815080000000  0.4781260000000 1.0
C      1  0.4605750000000  0.5406870000000  0.4567850000000 1.0
C      1  0.4318860000000  0.4728570000000  0.4459720000000 1.0
C      1  0.4910710000000  0.5175590000000  0.4907270000000 1.0
C      1  0.5230570000000  0.5495450000000  0.5602820000000 1.0
C      1  0.5133610000000  0.4172570000000  0.4547420000000 1.0
C      1  0.5527830000000  0.4491060000000  0.5118500000000 1.0
C      1  0.5478170000000  0.5343860000000  0.5584640000000 1.0
C      1  0.5112090000000  0.4668550000000  0.4970100000000 1.0
C      1  0.5260310000000  0.5480760000000  0.4909130000000 1.0
C      1  0.5106790000000  0.4381800000000  0.4909750000000 1.0
C      1  0.5340070000000  0.5166610000000  0.4817310000000 1.0
C      1  0.4767480000000  0.4408340000000  0.5787130000000 1.0
C      1  0.5325390000000  0.4293070000000  0.4718090000000 1.0
C      1  0.4888420000000  0.5754480000000  0.4749950000000 1.0
C      1  0.5097120000000  0.4292350000000  0.5443400000000 1.0
C      1  0.4524490000000  0.4679320000000  0.4283570000000 1.0
C      1  0.5278990000000  0.4497240000000  0.5557010000000 1.0
C      1  0.5183860000000  0.5066630000000  0.4223370000000 1.0
C      1  0.4351280000000  0.5720460000000  0.5371750000000 1.0
C      1  0.4712330000000  0.4866320000000  0.4192110000000 1.0
C      1  0.4990240000000  0.5189750000000  0.5196340000000 1.0
C      1  0.4908780000000  0.5651420000000  0.5267010000000 1.0
C      1  0.5467190000000  0.5740170000000  0.5219440000000 1.0
C      1  0.5758470000000  0.5285180000000  0.5149490000000 1.0
C      1  0.5004530000000  0.4841900000000  0.4188850000000 1.0
C      1  0.4419310000000  0.5212230000000  0.4417750000000 1.0
C      1  0.4819270000000  0.4350080000000  0.5522830000000 1.0
C      1  0.4320130000000  0.5639390000000  0.5109640000000 1.0
C      1  0.4653160000000  0.4456440000000  0.5300210000000 1.0
C      1  0.5466550000000  0.4912150000000  0.5379330000000 1.0
C      1  0.4798140000000  0.5782910000000  0.5034430000000 1.0
C      1  0.5897190000000  0.4788900000000  0.5166230000000 1.0
C      1  0.5639690000000  0.5560860000000  0.4750440000000 1.0
C      1  0.5126520000000  0.4608540000000  0.4299140000000 1.0
C      1  0.4111200000000  0.5015810000000  0.4764730000000 1.0
C      1  0.4893980000000  0.4165380000000  0.4987020000000 1.0
C      1  0.5676810000000  0.5003850000000  0.5176990000000 1.0
C      1  0.5812110000000  0.5158310000000  0.4656560000000 1.0
C      1  0.5127950000000  0.5628010000000  0.4680190000000 1.0
C      1  0.5208850000000  0.5655440000000  0.5360950000000 1.0
C      1  0.5450170000000  0.5067560000000  0.5633160000000 1.0
C      1  0.5466410000000  0.5675180000000  0.4937730000000 1.0
C      1  0.4664820000000  0.4758980000000  0.4810250000000 1.0
C      1  0.4808640000000  0.5337320000000  0.4337090000000 1.0
C      1  0.5156460000000  0.4973130000000  0.5287760000000 1.0
C      1  0.4980900000000  0.4376730000000  0.4395250000000 1.0
C      1  0.5940220000000  0.4721340000000  0.4899490000000 1.0
C      1  0.5817050000000  0.4540640000000  0.5078370000000 1.0
C      1  0.4517010000000  0.5193680000000  0.5075670000000 1.0
C      1  0.5385340000000  0.4695360000000  0.4415690000000 1.0
C      1  0.4615920000000  0.4952250000000  0.5484880000000 1.0
C      1  0.4664380000000  0.5275240000000  0.4842370000000 1.0
C      1  0.4612890000000  0.5690130000000  0.4672600000000 1.0
C      1  0.4243640000000  0.5357560000000  0.5049950000000 1.0
C      1  0.5110610000000  0.5454650000000  0.5159270000000 1.0
C      1  0.5702550000000  0.5731310000000  0.5352980000000 1.0
C      1  0.5363440000000  0.4252850000000  0.5025800000000 1.0
C      1  0.4650510000000  0.4324160000000  0.5049890000000 1.0
C      1  0.5542180000000  0.4948550000000  0.4906780000000 1.0
C      1  0.4885810000000  0.4655000000000  0.5784470000000 1.0
END
