TITL C-22858-8423-8 -179.363798973724 125000 -384.990915538648 0 0 57 (C1) n - 1
REM
REM in /rds/project/t2_vol4/rds-t2-cs072/BORA/CARBON/from-Arr/AIRSS/Generating-Clusters/GAP-ML-2020/Only-C1/SD-CG/HFTN-CG
REM
REM
REM
REM
REM
REM ./C.cell (11c1c37f851c82e70ff6c80c92926a4b)
REM AIRSS Version 0.9.1 bugfix July 2018 build 013d7b7c2542+ Fri, 06 Jul 2018 19:26:36 +0100
REM compiler GCC version 9.3.0
REM options -cpp -mtune=generic -march=x86-64 -g -O0
REM seed -463589043 17788707 1492712959 -1724983730 -947815556 1816244027 508709604 -1955351527 1705039605 1590467282 -1171123112 -708983585 433631295 -304326149 1689457338 -170833049 -255032560 -300011855 1952469790 -769054268 1900457023 2063304201 -304977604 1676335947 1313043503 1243968265 347971235 1773407543 1169165215 -1700698624 33223020 -563451201 1912178526
REM
CELL 1.54180   50.00000   50.00000   50.00000   90.00000   90.00000   90.00000
LATT -1
SFAC C  
C      1  0.4640400000000  0.4421230000000  0.4760320000000 1.0
C      1  0.4755820000000  0.4644200000000  0.4432870000000 1.0
C      1  0.5373840000000  0.5381700000000  0.4541890000000 1.0
C      1  0.4888200000000  0.5175210000000  0.5041730000000 1.0
C      1  0.5464840000000  0.4644190000000  0.4641170000000 1.0
C      1  0.5275350000000  0.5446490000000  0.5488200000000 1.0
C      1  0.4230400000000  0.4900660000000  0.5247850000000 1.0
C      1  0.5330410000000  0.5165770000000  0.5533170000000 1.0
C      1  0.4874510000000  0.5236930000000  0.5622110000000 1.0
C      1  0.5135110000000  0.4966040000000  0.4365500000000 1.0
C      1  0.4837890000000  0.4991920000000  0.4814790000000 1.0
C      1  0.4919850000000  0.4575520000000  0.5393720000000 1.0
C      1  0.4987390000000  0.4300340000000  0.5032730000000 1.0
C      1  0.5103390000000  0.4388170000000  0.5269910000000 1.0
C      1  0.5386390000000  0.5200700000000  0.4970120000000 1.0
C      1  0.5043830000000  0.4792480000000  0.4778700000000 1.0
C      1  0.4542730000000  0.4886730000000  0.4804570000000 1.0
C      1  0.5635470000000  0.5027660000000  0.4939730000000 1.0
C      1  0.4741990000000  0.5617660000000  0.5207090000000 1.0
C      1  0.4640290000000  0.5202090000000  0.5478200000000 1.0
C      1  0.5687140000000  0.4986570000000  0.5224850000000 1.0
C      1  0.5164370000000  0.5583140000000  0.4998480000000 1.0
C      1  0.4878740000000  0.4411830000000  0.4585760000000 1.0
C      1  0.5253030000000  0.4804590000000  0.4557630000000 1.0
C      1  0.5366670000000  0.4710140000000  0.5451450000000 1.0
C      1  0.5325050000000  0.5429380000000  0.4823730000000 1.0
C      1  0.4898500000000  0.5475530000000  0.5015790000000 1.0
C      1  0.4544690000000  0.4653570000000  0.4635620000000 1.0
C      1  0.5097340000000  0.4760530000000  0.5533630000000 1.0
C      1  0.5161730000000  0.4806490000000  0.5025010000000 1.0
C      1  0.4695790000000  0.5135470000000  0.4419720000000 1.0
C      1  0.4465970000000  0.5546880000000  0.5197170000000 1.0
C      1  0.5779950000000  0.5156420000000  0.4703970000000 1.0
C      1  0.5512120000000  0.4960880000000  0.5421440000000 1.0
C      1  0.4933230000000  0.5685570000000  0.5402840000000 1.0
C      1  0.4508260000000  0.4845450000000  0.5123650000000 1.0
C      1  0.4353940000000  0.5547000000000  0.4935170000000 1.0
C      1  0.5213940000000  0.5638340000000  0.5273570000000 1.0
C      1  0.5374070000000  0.4485240000000  0.5275490000000 1.0
C      1  0.4200550000000  0.5138040000000  0.5331880000000 1.0
C      1  0.4679610000000  0.4599140000000  0.5222400000000 1.0
C      1  0.5506170000000  0.4496980000000  0.5022890000000 1.0
C      1  0.5604470000000  0.4734850000000  0.4884950000000 1.0
C      1  0.4507090000000  0.5139640000000  0.4647270000000 1.0
C      1  0.5104060000000  0.4322070000000  0.4772190000000 1.0
C      1  0.4403340000000  0.5333460000000  0.5383310000000 1.0
C      1  0.4667180000000  0.5082180000000  0.5221910000000 1.0
C      1  0.5165460000000  0.5079710000000  0.5103440000000 1.0
C      1  0.5643450000000  0.5286040000000  0.4532540000000 1.0
C      1  0.4721220000000  0.4402470000000  0.5023110000000 1.0
C      1  0.5082710000000  0.5038460000000  0.5605030000000 1.0
C      1  0.5368310000000  0.4410340000000  0.4781320000000 1.0
C      1  0.4846530000000  0.4892220000000  0.4356680000000 1.0
C      1  0.5006820000000  0.5495760000000  0.5607460000000 1.0
C      1  0.4889460000000  0.5333370000000  0.4380940000000 1.0
C      1  0.4426020000000  0.5370180000000  0.4766940000000 1.0
C      1  0.5154920000000  0.5256370000000  0.4386370000000 1.0
END
