TITL C-22867-8277-9 -0.00600860970394114 125000 -65.6110807613597 0 0 11 (C1) n - 1
REM
REM in /rds/project/t2_vol4/rds-t2-cs072/BORA/CARBON/from-Arr/AIRSS/Generating-Clusters/GAP-ML-2020/Only-C1/SD-CG/HFTN-CG
REM
REM
REM
REM
REM
REM ./C.cell (11c1c37f851c82e70ff6c80c92926a4b)
REM AIRSS Version 0.9.1 bugfix July 2018 build 013d7b7c2542+ Fri, 06 Jul 2018 19:26:36 +0100
REM compiler GCC version 9.3.0
REM options -cpp -mtune=generic -march=x86-64 -g -O0
REM seed -1820657644 -899779888 -814995917 1689077028 -1901499056 -93958475 1398485601 -848182758 771725242 -1756373375 -1648898023 -28163515 -625920893 863260758 -1072836447 -1587425547 -1753149977 893006771 1136494811 668989264 332395768 -337493350 105611856 2122433313 -1891174374 1747703217 1725200015 -902596085 -246090126 -1102926223 1924845064 758737773 -2019453493
REM
CELL 1.54180   50.00000   50.00000   50.00000   90.00000   90.00000   90.00000
LATT -1
SFAC C  
C      1  0.5171700000000  0.4959880000000  0.4635350000000 1.0
C      1  0.4710460000000  0.4627360000000  0.5028290000000 1.0
C      1  0.5494160000000  0.4862380000000  0.5019790000000 1.0
C      1  0.5302130000000  0.5241350000000  0.5260480000000 1.0
C      1  0.5341910000000  0.4902670000000  0.4817720000000 1.0
C      1  0.4938700000000  0.5040250000000  0.4771820000000 1.0
C      1  0.4779990000000  0.4868520000000  0.4929130000000 1.0
C      1  0.4530910000000  0.5042780000000  0.5352650000000 1.0
C      1  0.5104440000000  0.5272630000000  0.5100250000000 1.0
C      1  0.4955830000000  0.5291170000000  0.4891530000000 1.0
C      1  0.4669770000000  0.4891020000000  0.5193010000000 1.0
END
