TITL C-22851-8313-3 29.5377089880955 125000 -86.4891931866304 0 0 14 (C1) n - 1
REM
REM in /rds/project/t2_vol4/rds-t2-cs072/BORA/CARBON/from-Arr/AIRSS/Generating-Clusters/GAP-ML-2020/Only-C1/SD-CG/HFTN-CG
REM
REM
REM
REM
REM
REM ./C.cell (11c1c37f851c82e70ff6c80c92926a4b)
REM AIRSS Version 0.9.1 bugfix July 2018 build 013d7b7c2542+ Fri, 06 Jul 2018 19:26:36 +0100
REM compiler GCC version 9.3.0
REM options -cpp -mtune=generic -march=x86-64 -g -O0
REM seed -1663777853 2079547313 -764175505 181382988 -608307507 -1541133245 -524583536 -451685242 922040690 -1301425038 996137881 -1760699244 913608432 1431926019 -2018088655 1272473814 449210623 1509293957 -355685263 -782571102 -1158070818 1960724637 1719351380 -110105663 550187558 -507736188 -1232285258 181637043 84235108 2060118846 -334435145 1420378685 -932135268
REM
CELL 1.54180   50.00000   50.00000   50.00000   90.00000   90.00000   90.00000
LATT -1
SFAC C  
C      1  0.4818900000000  0.4988280000000  0.4639970000000 1.0
C      1  0.5390910000000  0.4828460000000  0.4880090000000 1.0
C      1  0.4853600000000  0.5213610000000  0.5217470000000 1.0
C      1  0.5610140000000  0.5186960000000  0.5162860000000 1.0
C      1  0.5212360000000  0.4688290000000  0.4767790000000 1.0
C      1  0.4956560000000  0.4753540000000  0.4732960000000 1.0
C      1  0.4718480000000  0.4700590000000  0.4897780000000 1.0
C      1  0.4565930000000  0.4883650000000  0.4775010000000 1.0
C      1  0.5547820000000  0.4984080000000  0.5015840000000 1.0
C      1  0.4851880000000  0.5070220000000  0.5442710000000 1.0
C      1  0.4830570000000  0.4924400000000  0.5647740000000 1.0
C      1  0.5068660000000  0.5258300000000  0.5007320000000 1.0
C      1  0.4695070000000  0.5312210000000  0.5004530000000 1.0
C      1  0.4879100000000  0.5207410000000  0.4807930000000 1.0
END
