TITL C-224002-1084-1 0.0487848775472247 125000 -507.134802774008 0 0 73 (C1) n - 1
REM
REM in /rds/project/t2_vol4/rds-t2-cs072/BORA/CARBON/from-Arr/AIRSS/Generating-Clusters/GAP-ML-2020/Only-C1/SD-CG/HFTN-CG
REM
REM
REM
REM
REM
REM ./C.cell (11c1c37f851c82e70ff6c80c92926a4b)
REM AIRSS Version 0.9.1 bugfix July 2018 build 013d7b7c2542+ Fri, 06 Jul 2018 19:26:36 +0100
REM compiler GCC version 9.3.0
REM options -cpp -mtune=generic -march=x86-64 -g -O0
REM seed 60876748 470824285 -442152398 1889860662 -227628995 -1295446961 1352168990 -1277477884 -1218914660 -1949922061 445459272 -484318313 1002868110 -1547690018 -2077321834 1210071497 -1107905434 -1824004803 -1718116510 865606685 -685231704 -472651295 -651755225 1145863253 -1565281868 472994907 -1747774286 1940935431 948118786 -703589352 -1315982368 -1253104476 -1543420176
REM
CELL 1.54180   50.00000   50.00000   50.00000   90.00000   90.00000   90.00000
LATT -1
SFAC C  
C      1  0.5110490000000  0.5143020000000  0.5694230000000 1.0
C      1  0.5534720000000  0.4850310000000  0.5431510000000 1.0
C      1  0.5015090000000  0.4999060000000  0.4334440000000 1.0
C      1  0.4824000000000  0.4755860000000  0.5622390000000 1.0
C      1  0.4275590000000  0.4967160000000  0.5152770000000 1.0
C      1  0.4607930000000  0.5192060000000  0.4425420000000 1.0
C      1  0.5439580000000  0.5573730000000  0.5257510000000 1.0
C      1  0.5129440000000  0.4875590000000  0.5096240000000 1.0
C      1  0.4489380000000  0.5363250000000  0.5385410000000 1.0
C      1  0.4958460000000  0.4440160000000  0.4554570000000 1.0
C      1  0.5188340000000  0.5213920000000  0.4802800000000 1.0
C      1  0.5005530000000  0.5557360000000  0.5497100000000 1.0
C      1  0.4683760000000  0.5090330000000  0.4848430000000 1.0
C      1  0.5466470000000  0.5150750000000  0.4420390000000 1.0
C      1  0.4886030000000  0.5253010000000  0.4365920000000 1.0
C      1  0.4253360000000  0.5397980000000  0.4985230000000 1.0
C      1  0.5317150000000  0.4718940000000  0.5578920000000 1.0
C      1  0.5015970000000  0.4365680000000  0.5383800000000 1.0
C      1  0.4788940000000  0.4513560000000  0.5470520000000 1.0
C      1  0.4285990000000  0.5242360000000  0.5222670000000 1.0
C      1  0.4637350000000  0.5217360000000  0.5577900000000 1.0
C      1  0.5038390000000  0.5703550000000  0.4962790000000 1.0
C      1  0.5318450000000  0.5369470000000  0.4575110000000 1.0
C      1  0.5285740000000  0.5529630000000  0.5493660000000 1.0
C      1  0.5319500000000  0.5632770000000  0.4990060000000 1.0
C      1  0.5038120000000  0.5469850000000  0.4486560000000 1.0
C      1  0.4944360000000  0.5048980000000  0.5233150000000 1.0
C      1  0.4862200000000  0.4811890000000  0.4480640000000 1.0
C      1  0.5684350000000  0.5060460000000  0.4555680000000 1.0
C      1  0.4465920000000  0.5585410000000  0.4975490000000 1.0
C      1  0.5704610000000  0.4749010000000  0.4943360000000 1.0
C      1  0.4924220000000  0.4706020000000  0.4976720000000 1.0
C      1  0.5013210000000  0.4686260000000  0.4699390000000 1.0
C      1  0.4784280000000  0.4242090000000  0.4971860000000 1.0
C      1  0.5029920000000  0.4253660000000  0.5114560000000 1.0
C      1  0.5300300000000  0.4304540000000  0.5008540000000 1.0
C      1  0.4614320000000  0.4927150000000  0.4562270000000 1.0
C      1  0.5344250000000  0.4660990000000  0.4391540000000 1.0
C      1  0.4735220000000  0.4335110000000  0.4696650000000 1.0
C      1  0.5665770000000  0.5303360000000  0.4935110000000 1.0
C      1  0.4553310000000  0.4389330000000  0.5059340000000 1.0
C      1  0.4722560000000  0.4913110000000  0.5072070000000 1.0
C      1  0.5444220000000  0.4443720000000  0.5221240000000 1.0
C      1  0.5292020000000  0.4930870000000  0.4325690000000 1.0
C      1  0.4969120000000  0.5315750000000  0.5140810000000 1.0
C      1  0.5233050000000  0.4392610000000  0.4487630000000 1.0
C      1  0.4609490000000  0.4932010000000  0.5552710000000 1.0
C      1  0.5605350000000  0.5334770000000  0.5217930000000 1.0
C      1  0.5349340000000  0.5270090000000  0.5598880000000 1.0
C      1  0.4510360000000  0.4505620000000  0.4784980000000 1.0
C      1  0.4560180000000  0.4536200000000  0.5299110000000 1.0
C      1  0.4601610000000  0.5582190000000  0.5225450000000 1.0
C      1  0.5548830000000  0.5138620000000  0.5436950000000 1.0
C      1  0.4408930000000  0.4756730000000  0.4699120000000 1.0
C      1  0.5399360000000  0.4349810000000  0.4740710000000 1.0
C      1  0.5289060000000  0.4970990000000  0.4882750000000 1.0
C      1  0.5613500000000  0.4676670000000  0.5204740000000 1.0
C      1  0.5731130000000  0.5037220000000  0.4824650000000 1.0
C      1  0.5312310000000  0.4755110000000  0.4679330000000 1.0
C      1  0.4889410000000  0.5567660000000  0.4732140000000 1.0
C      1  0.4588440000000  0.5581400000000  0.4718860000000 1.0
C      1  0.4253970000000  0.5229430000000  0.4754780000000 1.0
C      1  0.5496180000000  0.5502430000000  0.4778400000000 1.0
C      1  0.5087200000000  0.4857810000000  0.5687200000000 1.0
C      1  0.4899460000000  0.5281750000000  0.4852260000000 1.0
C      1  0.4255120000000  0.4953060000000  0.4855020000000 1.0
C      1  0.5271280000000  0.4470910000000  0.5450850000000 1.0
C      1  0.5559200000000  0.4592210000000  0.4746250000000 1.0
C      1  0.4485040000000  0.4818770000000  0.5299120000000 1.0
C      1  0.4894270000000  0.5324790000000  0.5640030000000 1.0
C      1  0.4888020000000  0.5609790000000  0.5229360000000 1.0
C      1  0.5244060000000  0.5349740000000  0.5066010000000 1.0
C      1  0.4447900000000  0.5367170000000  0.4574350000000 1.0
END
