TITL C-22859-8348-7 0.00631324958930621 125000 -410.203436973887 0 0 59 (C1) n - 1
REM
REM in /rds/project/t2_vol4/rds-t2-cs072/BORA/CARBON/from-Arr/AIRSS/Generating-Clusters/GAP-ML-2020/Only-C1/SD-CG/HFTN-CG
REM
REM
REM
REM
REM
REM ./C.cell (11c1c37f851c82e70ff6c80c92926a4b)
REM AIRSS Version 0.9.1 bugfix July 2018 build 013d7b7c2542+ Fri, 06 Jul 2018 19:26:36 +0100
REM compiler GCC version 9.3.0
REM options -cpp -mtune=generic -march=x86-64 -g -O0
REM seed -987821672 1267377397 -347639075 482258135 -1749515245 -1869555043 1236361315 1128645841 -1888138632 -897876587 -562776533 -458769121 -364320958 -946751784 1912728423 -1329853958 -963729548 -667439956 -916485624 1509548273 1655397220 1260607323 628069898 703326899 -1653600617 -1609465442 -520225459 -56310411 723418806 962702148 1052635868 -2068037031 900301019
REM
CELL 1.54180   50.00000   50.00000   50.00000   90.00000   90.00000   90.00000
LATT -1
SFAC C  
C      1  0.4518790000000  0.5053560000000  0.4454170000000 1.0
C      1  0.4559680000000  0.5226060000000  0.4923020000000 1.0
C      1  0.4999140000000  0.5264250000000  0.5587480000000 1.0
C      1  0.5499800000000  0.4668030000000  0.4685590000000 1.0
C      1  0.5531980000000  0.5436350000000  0.5082830000000 1.0
C      1  0.4294570000000  0.5096170000000  0.4957460000000 1.0
C      1  0.5703970000000  0.4784450000000  0.4852880000000 1.0
C      1  0.4991620000000  0.5609410000000  0.4611650000000 1.0
C      1  0.5198050000000  0.4932850000000  0.5043480000000 1.0
C      1  0.4937020000000  0.4788290000000  0.5493400000000 1.0
C      1  0.5720620000000  0.5068320000000  0.4794220000000 1.0
C      1  0.5012710000000  0.4624400000000  0.4729150000000 1.0
C      1  0.4483920000000  0.5412820000000  0.5159740000000 1.0
C      1  0.5518480000000  0.4572890000000  0.5235450000000 1.0
C      1  0.5029620000000  0.5135590000000  0.4957050000000 1.0
C      1  0.4535540000000  0.5103300000000  0.5589970000000 1.0
C      1  0.4977360000000  0.5145080000000  0.4645750000000 1.0
C      1  0.4378700000000  0.4839370000000  0.4585740000000 1.0
C      1  0.4733820000000  0.4525570000000  0.4675730000000 1.0
C      1  0.4781980000000  0.4829390000000  0.5227000000000 1.0
C      1  0.5026650000000  0.5773460000000  0.5084470000000 1.0
C      1  0.4684610000000  0.4849900000000  0.4302930000000 1.0
C      1  0.4567680000000  0.4646120000000  0.4479590000000 1.0
C      1  0.5396220000000  0.5537760000000  0.4850180000000 1.0
C      1  0.5085360000000  0.4870560000000  0.4526910000000 1.0
C      1  0.4503080000000  0.4760500000000  0.5250000000000 1.0
C      1  0.5382990000000  0.4885650000000  0.4536410000000 1.0
C      1  0.5524670000000  0.5133070000000  0.5438930000000 1.0
C      1  0.4394660000000  0.4999100000000  0.5384680000000 1.0
C      1  0.5299700000000  0.4497270000000  0.4783970000000 1.0
C      1  0.5145270000000  0.5687720000000  0.4853050000000 1.0
C      1  0.5368860000000  0.4936190000000  0.5563060000000 1.0
C      1  0.4941270000000  0.4870500000000  0.4254560000000 1.0
C      1  0.5399670000000  0.5374480000000  0.4610700000000 1.0
C      1  0.4574280000000  0.4440060000000  0.4905040000000 1.0
C      1  0.4778310000000  0.5104040000000  0.5091630000000 1.0
C      1  0.4995760000000  0.4702050000000  0.5036640000000 1.0
C      1  0.5072480000000  0.4438220000000  0.5187360000000 1.0
C      1  0.5532290000000  0.5127330000000  0.4592150000000 1.0
C      1  0.5715890000000  0.5219950000000  0.5033400000000 1.0
C      1  0.5408990000000  0.5383680000000  0.5343370000000 1.0
C      1  0.4715870000000  0.5304670000000  0.5561030000000 1.0
C      1  0.4940300000000  0.5613570000000  0.5290200000000 1.0
C      1  0.5346520000000  0.4421950000000  0.5055310000000 1.0
C      1  0.5701950000000  0.4762250000000  0.5137540000000 1.0
C      1  0.4674740000000  0.5250560000000  0.4624420000000 1.0
C      1  0.5143180000000  0.5454230000000  0.5431070000000 1.0
C      1  0.5132200000000  0.5369480000000  0.4530290000000 1.0
C      1  0.5376960000000  0.4661620000000  0.5469710000000 1.0
C      1  0.4625840000000  0.4197300000000  0.5040000000000 1.0
C      1  0.4735140000000  0.5538150000000  0.4564090000000 1.0
C      1  0.4847460000000  0.4278460000000  0.5144380000000 1.0
C      1  0.4401330000000  0.4640940000000  0.5017250000000 1.0
C      1  0.5710850000000  0.5031070000000  0.5248720000000 1.0
C      1  0.4276610000000  0.4836450000000  0.4846280000000 1.0
C      1  0.5112810000000  0.4569670000000  0.5456250000000 1.0
C      1  0.4286810000000  0.5206640000000  0.5222420000000 1.0
C      1  0.5092660000000  0.5001640000000  0.5607690000000 1.0
C      1  0.4672670000000  0.5507610000000  0.5352570000000 1.0
END
