TITL C-221346-4336-5 -0.155494745946779 125000 -731.445300076986 0 0 103 (C1) n - 1
REM
REM in /rds/project/t2_vol4/rds-t2-cs072/BORA/CARBON/from-Arr/AIRSS/Generating-Clusters/GAP-ML-2020/Only-C1/SD-CG/HFTN-CG
REM
REM
REM
REM
REM
REM ./C.cell (11c1c37f851c82e70ff6c80c92926a4b)
REM AIRSS Version 0.9.1 bugfix July 2018 build 013d7b7c2542+ Fri, 06 Jul 2018 19:26:36 +0100
REM compiler GCC version 9.3.0
REM options -cpp -mtune=generic -march=x86-64 -g -O0
REM seed -2128693727 -1396115249 628546751 -1483557375 -1554212477 10128013 -1170492818 -509342534 70676468 1158867078 -1802746061 256388015 -63089282 -1765721075 1910904012 -774038468 -137946664 357864413 -423048001 603576658 2078031563 -537516465 1791982826 -342493134 -735672122 -2019174810 -1113042300 696446639 -517386504 -2043475044 -1399329004 1249125112 -1612333391
REM
CELL 1.54180   50.00000   50.00000   50.00000   90.00000   90.00000   90.00000
LATT -1
SFAC C  
C      1  0.5673240000000  0.5484620000000  0.5189690000000 1.0
C      1  0.5302620000000  0.4978610000000  0.4978820000000 1.0
C      1  0.4304930000000  0.5454040000000  0.4755890000000 1.0
C      1  0.5300910000000  0.4986230000000  0.4505460000000 1.0
C      1  0.5113460000000  0.5388300000000  0.5048220000000 1.0
C      1  0.4112250000000  0.4809740000000  0.5181190000000 1.0
C      1  0.5832170000000  0.4706480000000  0.4806130000000 1.0
C      1  0.5132370000000  0.5307270000000  0.5316920000000 1.0
C      1  0.4648990000000  0.4999720000000  0.5068350000000 1.0
C      1  0.4810160000000  0.4263400000000  0.4937110000000 1.0
C      1  0.5167960000000  0.4859430000000  0.5196840000000 1.0
C      1  0.4570940000000  0.4561690000000  0.4411580000000 1.0
C      1  0.4238800000000  0.5196350000000  0.4636250000000 1.0
C      1  0.4202910000000  0.5298940000000  0.5227720000000 1.0
C      1  0.4947240000000  0.5799400000000  0.4622160000000 1.0
C      1  0.5733170000000  0.5228090000000  0.5320780000000 1.0
C      1  0.4964700000000  0.4180940000000  0.5330750000000 1.0
C      1  0.5792410000000  0.4621270000000  0.5093520000000 1.0
C      1  0.4438460000000  0.4467700000000  0.5310160000000 1.0
C      1  0.5643310000000  0.4988320000000  0.5468690000000 1.0
C      1  0.5214870000000  0.5101910000000  0.5803490000000 1.0
C      1  0.5300960000000  0.5244070000000  0.4904110000000 1.0
C      1  0.4496860000000  0.5683370000000  0.5150660000000 1.0
C      1  0.4305610000000  0.5224730000000  0.5487100000000 1.0
C      1  0.4848650000000  0.4483740000000  0.4335780000000 1.0
C      1  0.4862650000000  0.4524930000000  0.5639450000000 1.0
C      1  0.5514540000000  0.4603640000000  0.4342920000000 1.0
C      1  0.4674160000000  0.5831150000000  0.4984310000000 1.0
C      1  0.5425440000000  0.4935400000000  0.5675450000000 1.0
C      1  0.4504190000000  0.5577410000000  0.4590480000000 1.0
C      1  0.5013360000000  0.5048150000000  0.5341210000000 1.0
C      1  0.4080950000000  0.5088570000000  0.5100570000000 1.0
C      1  0.4838740000000  0.4533470000000  0.5097990000000 1.0
C      1  0.4719530000000  0.4746790000000  0.4948100000000 1.0
C      1  0.5033220000000  0.5622730000000  0.4424810000000 1.0
C      1  0.5346890000000  0.5259050000000  0.4614750000000 1.0
C      1  0.4884500000000  0.5385210000000  0.4908040000000 1.0
C      1  0.5231570000000  0.4572570000000  0.4839500000000 1.0
C      1  0.5258770000000  0.4531040000000  0.4251620000000 1.0
C      1  0.5775120000000  0.4936770000000  0.4652430000000 1.0
C      1  0.5579720000000  0.4903650000000  0.4402250000000 1.0
C      1  0.5699550000000  0.4364100000000  0.4996490000000 1.0
C      1  0.4346480000000  0.4937400000000  0.5567870000000 1.0
C      1  0.4447350000000  0.4419900000000  0.4628790000000 1.0
C      1  0.4846790000000  0.5699530000000  0.5502750000000 1.0
C      1  0.5379280000000  0.4643690000000  0.5666130000000 1.0
C      1  0.4108000000000  0.5023440000000  0.4817470000000 1.0
C      1  0.5341220000000  0.5333390000000  0.4194330000000 1.0
C      1  0.5304400000000  0.5521090000000  0.4435630000000 1.0
C      1  0.4869660000000  0.5422600000000  0.4295190000000 1.0
C      1  0.4674570000000  0.5777850000000  0.4703850000000 1.0
C      1  0.5068490000000  0.4966510000000  0.4294000000000 1.0
C      1  0.5451450000000  0.4280930000000  0.5367290000000 1.0
C      1  0.5747320000000  0.4440430000000  0.4724520000000 1.0
C      1  0.4369920000000  0.4363050000000  0.5048130000000 1.0
C      1  0.4778760000000  0.5150470000000  0.4863540000000 1.0
C      1  0.4436340000000  0.5128150000000  0.4424190000000 1.0
C      1  0.5190460000000  0.4252590000000  0.5478650000000 1.0
C      1  0.4559950000000  0.4865830000000  0.4376040000000 1.0
C      1  0.4581660000000  0.5636060000000  0.5418790000000 1.0
C      1  0.5542110000000  0.4406870000000  0.4546010000000 1.0
C      1  0.4282570000000  0.4713660000000  0.5383980000000 1.0
C      1  0.4831440000000  0.4915230000000  0.4456600000000 1.0
C      1  0.5118510000000  0.4595280000000  0.5107350000000 1.0
C      1  0.4746720000000  0.5051910000000  0.5315260000000 1.0
C      1  0.5142450000000  0.4471340000000  0.5655430000000 1.0
C      1  0.4709110000000  0.5123610000000  0.5872560000000 1.0
C      1  0.4787050000000  0.4743440000000  0.5794620000000 1.0
C      1  0.4112090000000  0.4739420000000  0.4898130000000 1.0
C      1  0.4680850000000  0.5379550000000  0.5781270000000 1.0
C      1  0.5301560000000  0.5730130000000  0.5360950000000 1.0
C      1  0.5283650000000  0.5476250000000  0.5508820000000 1.0
C      1  0.4552980000000  0.4243400000000  0.4845700000000 1.0
C      1  0.5486540000000  0.5701760000000  0.5145440000000 1.0
C      1  0.5540230000000  0.5134830000000  0.4213590000000 1.0
C      1  0.5563150000000  0.4520210000000  0.5485990000000 1.0
C      1  0.5102350000000  0.4345100000000  0.4414740000000 1.0
C      1  0.5017220000000  0.4109160000000  0.5051470000000 1.0
C      1  0.5035190000000  0.5832740000000  0.5330260000000 1.0
C      1  0.5645320000000  0.5378910000000  0.4632750000000 1.0
C      1  0.5059870000000  0.5235260000000  0.4175250000000 1.0
C      1  0.4960790000000  0.4975610000000  0.5872690000000 1.0
C      1  0.4548220000000  0.4909420000000  0.5768180000000 1.0
C      1  0.4918890000000  0.5524150000000  0.5727300000000 1.0
C      1  0.4306810000000  0.5500280000000  0.5045010000000 1.0
C      1  0.5492400000000  0.4207210000000  0.5094260000000 1.0
C      1  0.5197380000000  0.4840540000000  0.4747200000000 1.0
C      1  0.5803540000000  0.5196000000000  0.4772330000000 1.0
C      1  0.5025290000000  0.4689290000000  0.4201160000000 1.0
C      1  0.4596990000000  0.5383120000000  0.4390570000000 1.0
C      1  0.4739300000000  0.4418060000000  0.5382580000000 1.0
C      1  0.5397140000000  0.5773210000000  0.4864760000000 1.0
C      1  0.4899990000000  0.4890890000000  0.4740610000000 1.0
C      1  0.4244480000000  0.4506850000000  0.4825210000000 1.0
C      1  0.5171710000000  0.5393510000000  0.5755170000000 1.0
C      1  0.5806800000000  0.5284980000000  0.5051240000000 1.0
C      1  0.5506810000000  0.5634110000000  0.4637150000000 1.0
C      1  0.5266820000000  0.4141220000000  0.4922000000000 1.0
C      1  0.4478570000000  0.5426390000000  0.5585160000000 1.0
C      1  0.4944730000000  0.5897740000000  0.5069140000000 1.0
C      1  0.5268890000000  0.4322070000000  0.4668330000000 1.0
C      1  0.5122220000000  0.5870120000000  0.4843350000000 1.0
C      1  0.5718330000000  0.4721290000000  0.5355530000000 1.0
END
