TITL C-224013-2819-6 38.4105652246367 125000 -257.356163027746 0 0 39 (C1) n - 1
REM
REM in /rds/project/t2_vol4/rds-t2-cs072/BORA/CARBON/from-Arr/AIRSS/Generating-Clusters/GAP-ML-2020/Only-C1/SD-CG/HFTN-CG
REM
REM
REM
REM
REM
REM ./C.cell (11c1c37f851c82e70ff6c80c92926a4b)
REM AIRSS Version 0.9.1 bugfix July 2018 build 013d7b7c2542+ Fri, 06 Jul 2018 19:26:36 +0100
REM compiler GCC version 9.3.0
REM options -cpp -mtune=generic -march=x86-64 -g -O0
REM seed -910500081 1930385216 944665301 1521484171 1319173890 -1292319317 295774946 -940668343 1191185911 -639630693 -2072213550 -8952071 -957054203 831663213 504047415 -1988987975 605928070 1458516931 1062501251 -199053757 1509812425 -113361602 2082713011 63306094 1600019643 383153157 1981160518 547276374 691041728 -1423065496 1721327232 -242841508 -2033010981
REM
CELL 1.54180   50.00000   50.00000   50.00000   90.00000   90.00000   90.00000
LATT -1
SFAC C  
C      1  0.4994070000000  0.5448430000000  0.4883920000000 1.0
C      1  0.5191740000000  0.4749170000000  0.5494060000000 1.0
C      1  0.4556440000000  0.5317320000000  0.5143950000000 1.0
C      1  0.4964970000000  0.5364260000000  0.5406510000000 1.0
C      1  0.4961050000000  0.4357100000000  0.4964020000000 1.0
C      1  0.5181080000000  0.4938130000000  0.5059680000000 1.0
C      1  0.4912370000000  0.4687950000000  0.5434250000000 1.0
C      1  0.5224500000000  0.4457050000000  0.5056110000000 1.0
C      1  0.4770770000000  0.5246530000000  0.4952010000000 1.0
C      1  0.4794830000000  0.4773470000000  0.4818220000000 1.0
C      1  0.5367660000000  0.4873960000000  0.4810870000000 1.0
C      1  0.5287390000000  0.4596610000000  0.4806300000000 1.0
C      1  0.4372840000000  0.5099220000000  0.5151430000000 1.0
C      1  0.5413090000000  0.5174060000000  0.5417370000000 1.0
C      1  0.5548080000000  0.5083180000000  0.4972480000000 1.0
C      1  0.4792900000000  0.4443620000000  0.5386860000000 1.0
C      1  0.5325830000000  0.5016200000000  0.4560530000000 1.0
C      1  0.4493970000000  0.4862290000000  0.5188980000000 1.0
C      1  0.4625540000000  0.5373450000000  0.4485700000000 1.0
C      1  0.4586590000000  0.4648820000000  0.4993650000000 1.0
C      1  0.5237410000000  0.5444540000000  0.5040790000000 1.0
C      1  0.5224230000000  0.5382920000000  0.5318120000000 1.0
C      1  0.4623590000000  0.5187880000000  0.4685140000000 1.0
C      1  0.4686730000000  0.5393250000000  0.5383560000000 1.0
C      1  0.4918040000000  0.5028060000000  0.4376850000000 1.0
C      1  0.5306820000000  0.4973960000000  0.5579940000000 1.0
C      1  0.5607590000000  0.5090370000000  0.5236010000000 1.0
C      1  0.4886640000000  0.4980870000000  0.5034560000000 1.0
C      1  0.4886020000000  0.5332450000000  0.4416290000000 1.0
C      1  0.5074530000000  0.5434190000000  0.4602830000000 1.0
C      1  0.5164750000000  0.4924040000000  0.4354380000000 1.0
C      1  0.4802240000000  0.5150450000000  0.5478920000000 1.0
C      1  0.4727770000000  0.4433580000000  0.5117270000000 1.0
C      1  0.4997230000000  0.4561800000000  0.4768070000000 1.0
C      1  0.5216650000000  0.4691050000000  0.5216220000000 1.0
C      1  0.5442370000000  0.5333890000000  0.4879400000000 1.0
C      1  0.4774220000000  0.4910210000000  0.5314120000000 1.0
C      1  0.4736420000000  0.4940210000000  0.4587250000000 1.0
C      1  0.5321030000000  0.5295490000000  0.4623380000000 1.0
END
