TITL C-224015-2841-2 0.209462528337999 125000 -760.043831563196 0 0 107 (C1) n - 1
REM
REM in /rds/project/t2_vol4/rds-t2-cs072/BORA/CARBON/from-Arr/AIRSS/Generating-Clusters/GAP-ML-2020/Only-C1/SD-CG/HFTN-CG
REM
REM
REM
REM
REM
REM ./C.cell (11c1c37f851c82e70ff6c80c92926a4b)
REM AIRSS Version 0.9.1 bugfix July 2018 build 013d7b7c2542+ Fri, 06 Jul 2018 19:26:36 +0100
REM compiler GCC version 9.3.0
REM options -cpp -mtune=generic -march=x86-64 -g -O0
REM seed -1743884152 -1713213546 -315833454 -1048530409 702284805 489229827 -1777965297 2068553141 -1614040876 1411307212 -1306050904 184845924 613595009 1368989192 182750315 826590034 1893576332 -201609499 -1013264827 1614764916 -298707624 -744459507 -1125505489 -224916661 1315906373 -611948939 1808413376 -337913688 -1472801568 1772845054 -557976711 600193225 24890163
REM
CELL 1.54180   50.00000   50.00000   50.00000   90.00000   90.00000   90.00000
LATT -1
SFAC C  
C      1  0.5659440000000  0.4349670000000  0.5161500000000 1.0
C      1  0.5017990000000  0.4486180000000  0.5714030000000 1.0
C      1  0.5448270000000  0.5710460000000  0.4823560000000 1.0
C      1  0.5113820000000  0.4999150000000  0.4683730000000 1.0
C      1  0.4599940000000  0.4368860000000  0.5517000000000 1.0
C      1  0.5413260000000  0.5158580000000  0.5629270000000 1.0
C      1  0.5559190000000  0.5474170000000  0.4484200000000 1.0
C      1  0.5662480000000  0.4652500000000  0.4500320000000 1.0
C      1  0.4766260000000  0.6022740000000  0.5299080000000 1.0
C      1  0.4765240000000  0.4937140000000  0.5392720000000 1.0
C      1  0.5636100000000  0.5022900000000  0.5519380000000 1.0
C      1  0.4173910000000  0.4784140000000  0.4862710000000 1.0
C      1  0.5046300000000  0.5387180000000  0.5447890000000 1.0
C      1  0.4979690000000  0.5338620000000  0.4294690000000 1.0
C      1  0.5913700000000  0.5153170000000  0.4856060000000 1.0
C      1  0.5297370000000  0.4773980000000  0.5143960000000 1.0
C      1  0.5265510000000  0.4625210000000  0.4234760000000 1.0
C      1  0.4930240000000  0.5500690000000  0.5691030000000 1.0
C      1  0.5316460000000  0.5625100000000  0.4571610000000 1.0
C      1  0.5107880000000  0.4263830000000  0.5558770000000 1.0
C      1  0.5083350000000  0.5790680000000  0.5179480000000 1.0
C      1  0.4799580000000  0.4764430000000  0.5159280000000 1.0
C      1  0.4749350000000  0.4539360000000  0.5693930000000 1.0
C      1  0.5027590000000  0.5082580000000  0.5417460000000 1.0
C      1  0.4213850000000  0.5377890000000  0.5083510000000 1.0
C      1  0.4396920000000  0.4701800000000  0.4375950000000 1.0
C      1  0.5322430000000  0.5023060000000  0.4463350000000 1.0
C      1  0.5742610000000  0.5422210000000  0.5201390000000 1.0
C      1  0.4373940000000  0.4791310000000  0.5569610000000 1.0
C      1  0.5167240000000  0.5169150000000  0.4923740000000 1.0
C      1  0.4873190000000  0.5771640000000  0.5640900000000 1.0
C      1  0.4605350000000  0.5474830000000  0.4526570000000 1.0
C      1  0.5153460000000  0.4392010000000  0.4364390000000 1.0
C      1  0.4827030000000  0.4284780000000  0.4796350000000 1.0
C      1  0.4367660000000  0.4521180000000  0.5476470000000 1.0
C      1  0.4842230000000  0.5567830000000  0.4688930000000 1.0
C      1  0.4373760000000  0.4376240000000  0.5002210000000 1.0
C      1  0.5359680000000  0.5718860000000  0.5099560000000 1.0
C      1  0.4672030000000  0.4824640000000  0.5673320000000 1.0
C      1  0.4912420000000  0.5534560000000  0.5217430000000 1.0
C      1  0.5689440000000  0.5025710000000  0.5016960000000 1.0
C      1  0.4313670000000  0.4969400000000  0.4456710000000 1.0
C      1  0.4527350000000  0.5078380000000  0.4278580000000 1.0
C      1  0.4440890000000  0.5717550000000  0.4861770000000 1.0
C      1  0.4713640000000  0.4210680000000  0.5292230000000 1.0
C      1  0.5896440000000  0.4797200000000  0.4553950000000 1.0
C      1  0.4478230000000  0.5357750000000  0.5465990000000 1.0
C      1  0.5346820000000  0.5405170000000  0.5480940000000 1.0
C      1  0.4636940000000  0.5844190000000  0.5481550000000 1.0
C      1  0.4996790000000  0.4576760000000  0.4819350000000 1.0
C      1  0.4697230000000  0.4342400000000  0.4531330000000 1.0
C      1  0.4211190000000  0.4944190000000  0.5376220000000 1.0
C      1  0.4608860000000  0.5156930000000  0.5286820000000 1.0
C      1  0.5580810000000  0.5407800000000  0.4194690000000 1.0
C      1  0.4847940000000  0.5940800000000  0.5040920000000 1.0
C      1  0.5009470000000  0.5923480000000  0.5436340000000 1.0
C      1  0.4691720000000  0.5309690000000  0.4315020000000 1.0
C      1  0.4790650000000  0.5289170000000  0.5827950000000 1.0
C      1  0.5455800000000  0.4568460000000  0.5632020000000 1.0
C      1  0.5698430000000  0.5591840000000  0.4745150000000 1.0
C      1  0.4716420000000  0.4917520000000  0.4922380000000 1.0
C      1  0.4445510000000  0.4483630000000  0.4541340000000 1.0
C      1  0.5664160000000  0.4730170000000  0.5527120000000 1.0
C      1  0.5218440000000  0.4691920000000  0.5729340000000 1.0
C      1  0.5409630000000  0.5256720000000  0.4077260000000 1.0
C      1  0.4154380000000  0.4762820000000  0.5152320000000 1.0
C      1  0.5063050000000  0.5539350000000  0.4487020000000 1.0
C      1  0.5741080000000  0.5147440000000  0.5282090000000 1.0
C      1  0.4713790000000  0.5807880000000  0.4836000000000 1.0
C      1  0.5434930000000  0.4212130000000  0.5255120000000 1.0
C      1  0.5506860000000  0.5211080000000  0.4586280000000 1.0
C      1  0.4874670000000  0.4425650000000  0.4326530000000 1.0
C      1  0.5165690000000  0.5116560000000  0.4200730000000 1.0
C      1  0.5598090000000  0.4742150000000  0.5048470000000 1.0
C      1  0.4249570000000  0.4504260000000  0.5224300000000 1.0
C      1  0.4186230000000  0.5029500000000  0.4702770000000 1.0
C      1  0.5729560000000  0.4604370000000  0.5288910000000 1.0
C      1  0.5630330000000  0.4473020000000  0.4904210000000 1.0
C      1  0.5077810000000  0.4814460000000  0.4137110000000 1.0
C      1  0.4367870000000  0.5506340000000  0.4672580000000 1.0
C      1  0.5379720000000  0.4308720000000  0.5518670000000 1.0
C      1  0.4835140000000  0.4671910000000  0.4165050000000 1.0
C      1  0.5057960000000  0.4642670000000  0.5094750000000 1.0
C      1  0.4298300000000  0.4531190000000  0.4777440000000 1.0
C      1  0.4877020000000  0.5023050000000  0.5822440000000 1.0
C      1  0.4595200000000  0.4807440000000  0.4198200000000 1.0
C      1  0.5115330000000  0.4179190000000  0.4827220000000 1.0
C      1  0.4247280000000  0.5224030000000  0.5324400000000 1.0
C      1  0.4895680000000  0.4829080000000  0.4715610000000 1.0
C      1  0.5285150000000  0.4286960000000  0.4600660000000 1.0
C      1  0.4699280000000  0.5185190000000  0.5012270000000 1.0
C      1  0.4201870000000  0.5301180000000  0.4803680000000 1.0
C      1  0.4915140000000  0.5367950000000  0.4957340000000 1.0
C      1  0.4987490000000  0.4150170000000  0.5322540000000 1.0
C      1  0.5456650000000  0.4779230000000  0.4362760000000 1.0
C      1  0.5157270000000  0.4978930000000  0.5698840000000 1.0
C      1  0.5458400000000  0.5206630000000  0.4868360000000 1.0
C      1  0.5500690000000  0.5547090000000  0.5284240000000 1.0
C      1  0.4373170000000  0.5616050000000  0.5112200000000 1.0
C      1  0.5193850000000  0.5030130000000  0.5176800000000 1.0
C      1  0.6030410000000  0.4989070000000  0.4668440000000 1.0
C      1  0.4579780000000  0.5601440000000  0.5323570000000 1.0
C      1  0.5542870000000  0.4421350000000  0.4647370000000 1.0
C      1  0.5847510000000  0.5431090000000  0.4921440000000 1.0
C      1  0.4625840000000  0.4244470000000  0.5021810000000 1.0
C      1  0.4540300000000  0.5314670000000  0.5729760000000 1.0
C      1  0.5185560000000  0.4133250000000  0.5107670000000 1.0
END
