TITL C-22537-8279-5 -0.0453493826844287 125000 -405.177251282966 0 0 60 (C1) n - 1
REM
REM in /rds/project/t2_vol4/rds-t2-cs072/BORA/CARBON/from-Arr/AIRSS/Generating-Clusters/GAP-ML-2020/Only-C1/SD-CG/HFTN-CG
REM
REM
REM
REM
REM
REM ./C.cell (11c1c37f851c82e70ff6c80c92926a4b)
REM AIRSS Version 0.9.1 bugfix July 2018 build 013d7b7c2542+ Fri, 06 Jul 2018 19:26:36 +0100
REM compiler GCC version 9.3.0
REM options -cpp -mtune=generic -march=x86-64 -g -O0
REM seed -1724133165 -40563458 608901642 -846088816 -352289747 -1434788312 2077460803 -1668437029 -2032241244 -253481708 732799255 695566039 -809203723 -1346869978 76857462 2042785664 1805960140 -1947821138 -1762061692 -386322598 1314447999 1938208291 560804821 -1713653363 -996230477 1557498490 835917271 1096415116 1268351257 2143749823 1325564372 1592013111 -1824070066
REM
CELL 1.54180   50.00000   50.00000   50.00000   90.00000   90.00000   90.00000
LATT -1
SFAC C  
C      1  0.5428260000000  0.5215120000000  0.4750520000000 1.0
C      1  0.4507630000000  0.5486930000000  0.5074050000000 1.0
C      1  0.4612020000000  0.5713750000000  0.5169290000000 1.0
C      1  0.4779380000000  0.4548310000000  0.4380680000000 1.0
C      1  0.5152950000000  0.5048730000000  0.4412300000000 1.0
C      1  0.5664130000000  0.4556010000000  0.5032360000000 1.0
C      1  0.4331040000000  0.5031000000000  0.4795970000000 1.0
C      1  0.4728960000000  0.4448270000000  0.5344120000000 1.0
C      1  0.5062610000000  0.5001130000000  0.4691540000000 1.0
C      1  0.5017090000000  0.5643400000000  0.5201660000000 1.0
C      1  0.5419140000000  0.4445050000000  0.5104930000000 1.0
C      1  0.4946710000000  0.4892590000000  0.5128870000000 1.0
C      1  0.4893370000000  0.4748910000000  0.4700820000000 1.0
C      1  0.4562900000000  0.5121090000000  0.5351740000000 1.0
C      1  0.5377750000000  0.4851730000000  0.5352010000000 1.0
C      1  0.4362170000000  0.5280180000000  0.5214900000000 1.0
C      1  0.5264500000000  0.5246750000000  0.5159320000000 1.0
C      1  0.5277480000000  0.4499940000000  0.4618400000000 1.0
C      1  0.5009930000000  0.5349750000000  0.5302420000000 1.0
C      1  0.5262670000000  0.4377920000000  0.4877550000000 1.0
C      1  0.5070260000000  0.5790020000000  0.4720110000000 1.0
C      1  0.5015400000000  0.4535990000000  0.4512500000000 1.0
C      1  0.4405380000000  0.4767170000000  0.4734230000000 1.0
C      1  0.4701820000000  0.4671940000000  0.5510160000000 1.0
C      1  0.5553830000000  0.5382320000000  0.5548150000000 1.0
C      1  0.5163510000000  0.5667770000000  0.4952400000000 1.0
C      1  0.5417090000000  0.5188200000000  0.4471000000000 1.0
C      1  0.4963060000000  0.5047290000000  0.5672650000000 1.0
C      1  0.5542750000000  0.5239120000000  0.5305230000000 1.0
C      1  0.4861930000000  0.4637200000000  0.4969070000000 1.0
C      1  0.4270920000000  0.5062830000000  0.5071600000000 1.0
C      1  0.4947490000000  0.5438090000000  0.4489260000000 1.0
C      1  0.4709960000000  0.5299980000000  0.4909990000000 1.0
C      1  0.4666120000000  0.5065680000000  0.4462430000000 1.0
C      1  0.5065120000000  0.5285680000000  0.5601960000000 1.0
C      1  0.4903590000000  0.5193470000000  0.4346620000000 1.0
C      1  0.4391170000000  0.4627540000000  0.4992850000000 1.0
C      1  0.4981640000000  0.5295300000000  0.4767200000000 1.0
C      1  0.4992780000000  0.4336050000000  0.5286480000000 1.0
C      1  0.5448430000000  0.4744170000000  0.4623610000000 1.0
C      1  0.5320070000000  0.4944740000000  0.4826960000000 1.0
C      1  0.5419480000000  0.4931860000000  0.4394020000000 1.0
C      1  0.5754960000000  0.4830240000000  0.5066410000000 1.0
C      1  0.5014280000000  0.4370140000000  0.5006170000000 1.0
C      1  0.4800550000000  0.5148540000000  0.5169710000000 1.0
C      1  0.5246250000000  0.5384040000000  0.4901120000000 1.0
C      1  0.5684290000000  0.4721620000000  0.4809650000000 1.0
C      1  0.5321220000000  0.5394940000000  0.5661020000000 1.0
C      1  0.5241020000000  0.4452190000000  0.5349160000000 1.0
C      1  0.5224250000000  0.4675510000000  0.5515860000000 1.0
C      1  0.5639700000000  0.4968070000000  0.5279080000000 1.0
C      1  0.5231500000000  0.4948770000000  0.5113210000000 1.0
C      1  0.4311350000000  0.4806580000000  0.5203130000000 1.0
C      1  0.4545020000000  0.5183000000000  0.4693040000000 1.0
C      1  0.4619470000000  0.4501730000000  0.5077360000000 1.0
C      1  0.4639960000000  0.4773410000000  0.4529900000000 1.0
C      1  0.4492020000000  0.4852620000000  0.5426470000000 1.0
C      1  0.4979800000000  0.5710450000000  0.4488880000000 1.0
C      1  0.4820230000000  0.5836480000000  0.5265100000000 1.0
C      1  0.4961620000000  0.4782720000000  0.5612820000000 1.0
END
