TITL C-22861-8289-3 -0.159052328096738 125000 -793.76173083375 0 0 114 (C1) n - 1
REM
REM in /rds/project/t2_vol4/rds-t2-cs072/BORA/CARBON/from-Arr/AIRSS/Generating-Clusters/GAP-ML-2020/Only-C1/SD-CG/HFTN-CG
REM
REM
REM
REM
REM
REM ./C.cell (11c1c37f851c82e70ff6c80c92926a4b)
REM AIRSS Version 0.9.1 bugfix July 2018 build 013d7b7c2542+ Fri, 06 Jul 2018 19:26:36 +0100
REM compiler GCC version 9.3.0
REM options -cpp -mtune=generic -march=x86-64 -g -O0
REM seed 849929438 -1446729023 -1206554027 1046838378 -1268427994 1974482386 -2088924754 -788888866 -2083021113 1790945014 -623959213 -1404974803 1954823062 -1490129277 47976313 -2093447132 1934840135 -353935272 -154060737 823557460 1515576765 -889659130 -173524648 1930432645 1482495779 -412282132 -539655666 90537741 1333555757 1685860465 -709222230 929633495 -1855515374
REM
CELL 1.54180   50.00000   50.00000   50.00000   90.00000   90.00000   90.00000
LATT -1
SFAC C  
C      1  0.5416400000000  0.5619660000000  0.5230030000000 1.0
C      1  0.5204340000000  0.5802720000000  0.5260840000000 1.0
C      1  0.4942990000000  0.5629510000000  0.5680790000000 1.0
C      1  0.5110730000000  0.5704600000000  0.4678450000000 1.0
C      1  0.5117300000000  0.3993460000000  0.5144890000000 1.0
C      1  0.4498210000000  0.5003030000000  0.5080520000000 1.0
C      1  0.4598720000000  0.5295370000000  0.4099270000000 1.0
C      1  0.4715050000000  0.4364340000000  0.5587590000000 1.0
C      1  0.5687230000000  0.4535360000000  0.4631830000000 1.0
C      1  0.5199150000000  0.4958000000000  0.4584650000000 1.0
C      1  0.4177740000000  0.4986280000000  0.5397470000000 1.0
C      1  0.4949650000000  0.5055480000000  0.4449070000000 1.0
C      1  0.4737650000000  0.5819610000000  0.5667770000000 1.0
C      1  0.4286000000000  0.4467500000000  0.4885370000000 1.0
C      1  0.4398620000000  0.5627120000000  0.4992980000000 1.0
C      1  0.4707610000000  0.4927610000000  0.5859520000000 1.0
C      1  0.4817400000000  0.5842760000000  0.4726720000000 1.0
C      1  0.5642120000000  0.4508620000000  0.5172650000000 1.0
C      1  0.4308030000000  0.4502280000000  0.5404010000000 1.0
C      1  0.5354430000000  0.5155720000000  0.5018470000000 1.0
C      1  0.4166850000000  0.4820170000000  0.4719650000000 1.0
C      1  0.4975310000000  0.5359880000000  0.5234390000000 1.0
C      1  0.5787400000000  0.5035880000000  0.4618880000000 1.0
C      1  0.4691810000000  0.5791290000000  0.5386800000000 1.0
C      1  0.4387610000000  0.5404130000000  0.5395320000000 1.0
C      1  0.5388940000000  0.4836940000000  0.4366580000000 1.0
C      1  0.5180640000000  0.4970650000000  0.5442160000000 1.0
C      1  0.4171740000000  0.4727790000000  0.5282900000000 1.0
C      1  0.4989120000000  0.5054930000000  0.4117780000000 1.0
C      1  0.4427900000000  0.4285210000000  0.5252380000000 1.0
C      1  0.5018530000000  0.6194390000000  0.5017080000000 1.0
C      1  0.5945070000000  0.4739500000000  0.4978580000000 1.0
C      1  0.4815470000000  0.4231660000000  0.4614930000000 1.0
C      1  0.5917090000000  0.5002680000000  0.4879390000000 1.0
C      1  0.4862050000000  0.6081810000000  0.4849710000000 1.0
C      1  0.4927370000000  0.5357110000000  0.4446740000000 1.0
C      1  0.5128230000000  0.5000670000000  0.6072900000000 1.0
C      1  0.4952790000000  0.5380740000000  0.5818290000000 1.0
C      1  0.5029900000000  0.5416970000000  0.4736440000000 1.0
C      1  0.5028020000000  0.4470940000000  0.5154350000000 1.0
C      1  0.5818260000000  0.4984430000000  0.5349420000000 1.0
C      1  0.4557310000000  0.5696710000000  0.4743860000000 1.0
C      1  0.5445860000000  0.4312190000000  0.5293980000000 1.0
C      1  0.5313870000000  0.5847240000000  0.4826590000000 1.0
C      1  0.5215080000000  0.5219240000000  0.4108870000000 1.0
C      1  0.4322940000000  0.5015650000000  0.5634340000000 1.0
C      1  0.4283090000000  0.5014390000000  0.4557370000000 1.0
C      1  0.4963440000000  0.5652150000000  0.5359840000000 1.0
C      1  0.4652180000000  0.5424830000000  0.4333860000000 1.0
C      1  0.5425760000000  0.4670030000000  0.5056810000000 1.0
C      1  0.5312080000000  0.4251810000000  0.4807710000000 1.0
C      1  0.4463740000000  0.5654570000000  0.5274420000000 1.0
C      1  0.5352000000000  0.4117990000000  0.5095440000000 1.0
C      1  0.4674820000000  0.4209160000000  0.5358040000000 1.0
C      1  0.4939770000000  0.4811430000000  0.5976010000000 1.0
C      1  0.4260360000000  0.4749280000000  0.5001450000000 1.0
C      1  0.4700840000000  0.4418930000000  0.4413460000000 1.0
C      1  0.5565210000000  0.5713320000000  0.4805740000000 1.0
C      1  0.5655430000000  0.4794440000000  0.4512600000000 1.0
C      1  0.5207930000000  0.5994320000000  0.5058040000000 1.0
C      1  0.5314560000000  0.5605930000000  0.4433330000000 1.0
C      1  0.5285080000000  0.4906770000000  0.5152640000000 1.0
C      1  0.5713900000000  0.5297020000000  0.4481620000000 1.0
C      1  0.5376590000000  0.5186150000000  0.5467020000000 1.0
C      1  0.4286150000000  0.5207890000000  0.5201530000000 1.0
C      1  0.4990730000000  0.4410560000000  0.5647480000000 1.0
C      1  0.5253130000000  0.5203890000000  0.4759930000000 1.0
C      1  0.4454750000000  0.4565300000000  0.4445210000000 1.0
C      1  0.5658400000000  0.5209950000000  0.4228110000000 1.0
C      1  0.5362740000000  0.5053520000000  0.5944520000000 1.0
C      1  0.4508020000000  0.4854770000000  0.4418370000000 1.0
C      1  0.5661860000000  0.5632520000000  0.5067390000000 1.0
C      1  0.4479690000000  0.5501840000000  0.4552810000000 1.0
C      1  0.4255490000000  0.5384380000000  0.4955040000000 1.0
C      1  0.5170380000000  0.4588070000000  0.4275360000000 1.0
C      1  0.4447460000000  0.4260940000000  0.4969720000000 1.0
C      1  0.4761080000000  0.5181420000000  0.5691750000000 1.0
C      1  0.4477480000000  0.4801030000000  0.5754040000000 1.0
C      1  0.5092850000000  0.4207670000000  0.4595090000000 1.0
C      1  0.5623870000000  0.5052030000000  0.5543510000000 1.0
C      1  0.5160490000000  0.5435220000000  0.4277730000000 1.0
C      1  0.4723820000000  0.4910440000000  0.5250220000000 1.0
C      1  0.5849940000000  0.4717840000000  0.5249850000000 1.0
C      1  0.4475770000000  0.5257310000000  0.5622400000000 1.0
C      1  0.5568750000000  0.5557300000000  0.4558800000000 1.0
C      1  0.4849270000000  0.5346360000000  0.4953070000000 1.0
C      1  0.5037780000000  0.4897070000000  0.5016010000000 1.0
C      1  0.5071340000000  0.4624780000000  0.5810940000000 1.0
C      1  0.4899500000000  0.5101360000000  0.5407380000000 1.0
C      1  0.4866850000000  0.4595010000000  0.4254210000000 1.0
C      1  0.5493500000000  0.4891110000000  0.5750460000000 1.0
C      1  0.4883720000000  0.4173520000000  0.5131460000000 1.0
C      1  0.5890660000000  0.5172910000000  0.5126110000000 1.0
C      1  0.4832330000000  0.4701410000000  0.5097610000000 1.0
C      1  0.4478950000000  0.4539570000000  0.5629640000000 1.0
C      1  0.5852730000000  0.5443300000000  0.5122220000000 1.0
C      1  0.4240780000000  0.4552190000000  0.4620260000000 1.0
C      1  0.4360940000000  0.5273380000000  0.4695770000000 1.0
C      1  0.4630800000000  0.5143760000000  0.4847380000000 1.0
C      1  0.4708010000000  0.4184720000000  0.4879630000000 1.0
C      1  0.5441460000000  0.5060190000000  0.4172260000000 1.0
C      1  0.5222620000000  0.4513220000000  0.4925710000000 1.0
C      1  0.5202210000000  0.4456090000000  0.5429360000000 1.0
C      1  0.5096570000000  0.4736130000000  0.4761820000000 1.0
C      1  0.4731640000000  0.5058040000000  0.4024600000000 1.0
C      1  0.5301590000000  0.5353060000000  0.5237300000000 1.0
C      1  0.4677970000000  0.4811260000000  0.4166220000000 1.0
C      1  0.4809960000000  0.4711730000000  0.4779270000000 1.0
C      1  0.5257890000000  0.4353560000000  0.4405510000000 1.0
C      1  0.5147710000000  0.5265790000000  0.5987740000000 1.0
C      1  0.5795510000000  0.4515110000000  0.4895150000000 1.0
C      1  0.5487420000000  0.4343790000000  0.4580150000000 1.0
C      1  0.5264240000000  0.4729370000000  0.5614060000000 1.0
C      1  0.4721880000000  0.4948000000000  0.4629210000000 1.0
END
