TITL C-224000-1086-1 -22.1778023662702 125000 -173.949712564705 0 0 27 (C1) n - 1
REM
REM in /rds/project/t2_vol4/rds-t2-cs072/BORA/CARBON/from-Arr/AIRSS/Generating-Clusters/GAP-ML-2020/Only-C1/SD-CG/HFTN-CG
REM
REM
REM
REM
REM
REM ./C.cell (11c1c37f851c82e70ff6c80c92926a4b)
REM AIRSS Version 0.9.1 bugfix July 2018 build 013d7b7c2542+ Fri, 06 Jul 2018 19:26:36 +0100
REM compiler GCC version 9.3.0
REM options -cpp -mtune=generic -march=x86-64 -g -O0
REM seed 275856846 -232841352 1051079296 -1708932066 -1182755231 -1045692422 590930837 2065238960 -518683617 -417572317 -650543099 1032511961 906069002 1202577734 1824282979 1014024809 -1071330891 2084459053 1290068673 954746477 1275423065 1030188768 892880609 -1567348724 -1589709967 2126529159 -278681046 562093945 -1610360719 433769661 1771371739 556752370 476934229
REM
CELL 1.54180   50.00000   50.00000   50.00000   90.00000   90.00000   90.00000
LATT -1
SFAC C  
C      1  0.5125290000000  0.5124630000000  0.4200280000000 1.0
C      1  0.4892950000000  0.4932270000000  0.4550780000000 1.0
C      1  0.4938190000000  0.4980020000000  0.4305750000000 1.0
C      1  0.4874570000000  0.4564260000000  0.5257720000000 1.0
C      1  0.5577510000000  0.4644120000000  0.4867830000000 1.0
C      1  0.5006290000000  0.5394130000000  0.5235350000000 1.0
C      1  0.5038940000000  0.5443840000000  0.4879290000000 1.0
C      1  0.5214780000000  0.5337960000000  0.5428440000000 1.0
C      1  0.5312630000000  0.5344110000000  0.4508550000000 1.0
C      1  0.4492720000000  0.4960330000000  0.5219320000000 1.0
C      1  0.4927650000000  0.5596140000000  0.5060410000000 1.0
C      1  0.5280450000000  0.5055850000000  0.4901300000000 1.0
C      1  0.4700860000000  0.4490980000000  0.5073460000000 1.0
C      1  0.5193670000000  0.5072120000000  0.5444530000000 1.0
C      1  0.4704240000000  0.4869330000000  0.5616980000000 1.0
C      1  0.5041320000000  0.4945980000000  0.5013960000000 1.0
C      1  0.4382890000000  0.4825040000000  0.5029870000000 1.0
C      1  0.4696520000000  0.5028390000000  0.5384100000000 1.0
C      1  0.4844460000000  0.4867970000000  0.4804110000000 1.0
C      1  0.5235570000000  0.5295870000000  0.4761650000000 1.0
C      1  0.5163350000000  0.4804010000000  0.5464360000000 1.0
C      1  0.4893170000000  0.4702480000000  0.5520550000000 1.0
C      1  0.5312250000000  0.5306350000000  0.4255980000000 1.0
C      1  0.4935000000000  0.5116360000000  0.5246480000000 1.0
C      1  0.4631700000000  0.4721510000000  0.4933690000000 1.0
C      1  0.5474900000000  0.4871760000000  0.4849650000000 1.0
C      1  0.5108130000000  0.4704200000000  0.5185600000000 1.0
END
