TITL C-223999-988-5 -0.0106469761583165 125000 -171.185208879304 0 0 26 (C1) n - 1
REM
REM in /rds/project/t2_vol4/rds-t2-cs072/BORA/CARBON/from-Arr/AIRSS/Generating-Clusters/GAP-ML-2020/Only-C1/SD-CG/HFTN-CG
REM
REM
REM
REM
REM
REM ./C.cell (11c1c37f851c82e70ff6c80c92926a4b)
REM AIRSS Version 0.9.1 bugfix July 2018 build 013d7b7c2542+ Fri, 06 Jul 2018 19:26:36 +0100
REM compiler GCC version 9.3.0
REM options -cpp -mtune=generic -march=x86-64 -g -O0
REM seed 657868742 1946940205 1746035196 1358362448 -1035562336 1862618413 -363639938 191875503 -941981517 -17942332 965864440 -1225834659 125355845 -131644240 595059253 1158885683 704691004 968862797 1769096401 1179315856 1440831557 168319739 -1699591271 1968941447 2058161440 -718240271 1942865759 -479261333 548270101 774014441 133476453 920642948 524461510
REM
CELL 1.54180   50.00000   50.00000   50.00000   90.00000   90.00000   90.00000
LATT -1
SFAC C  
C      1  0.5248170000000  0.5251430000000  0.4746590000000 1.0
C      1  0.4504000000000  0.4737920000000  0.5218840000000 1.0
C      1  0.4857090000000  0.5442730000000  0.4746960000000 1.0
C      1  0.5482370000000  0.4869390000000  0.5145370000000 1.0
C      1  0.4443030000000  0.4574550000000  0.4761220000000 1.0
C      1  0.4510870000000  0.4780590000000  0.4630930000000 1.0
C      1  0.5234390000000  0.4841830000000  0.5531730000000 1.0
C      1  0.5222740000000  0.4952980000000  0.4671290000000 1.0
C      1  0.5222790000000  0.5106830000000  0.5453130000000 1.0
C      1  0.5394450000000  0.5132090000000  0.5215100000000 1.0
C      1  0.5280260000000  0.4692500000000  0.5286500000000 1.0
C      1  0.5276430000000  0.5312390000000  0.5033160000000 1.0
C      1  0.4967060000000  0.4830950000000  0.4727180000000 1.0
C      1  0.5105870000000  0.5445710000000  0.4613520000000 1.0
C      1  0.4982760000000  0.5270470000000  0.5406740000000 1.0
C      1  0.5470210000000  0.4796510000000  0.4628650000000 1.0
C      1  0.4871250000000  0.5572990000000  0.5004590000000 1.0
C      1  0.4736680000000  0.5147200000000  0.5429160000000 1.0
C      1  0.5045950000000  0.5433950000000  0.5162190000000 1.0
C      1  0.5529830000000  0.4814820000000  0.4880610000000 1.0
C      1  0.4720720000000  0.4975020000000  0.4636150000000 1.0
C      1  0.5099040000000  0.4565310000000  0.5128990000000 1.0
C      1  0.4684680000000  0.5246020000000  0.4656270000000 1.0
C      1  0.4604420000000  0.4619820000000  0.4991310000000 1.0
C      1  0.4592560000000  0.4948490000000  0.5350820000000 1.0
C      1  0.4912360000000  0.4637510000000  0.4943000000000 1.0
END
