TITL C-221351-4632-5 -0.20034953530069 125000 -822.570631901637 0 0 115 (C1) n - 1
REM
REM in /rds/project/t2_vol4/rds-t2-cs072/BORA/CARBON/from-Arr/AIRSS/Generating-Clusters/GAP-ML-2020/Only-C1/SD-CG/HFTN-CG
REM
REM
REM
REM
REM
REM ./C.cell (11c1c37f851c82e70ff6c80c92926a4b)
REM AIRSS Version 0.9.1 bugfix July 2018 build 013d7b7c2542+ Fri, 06 Jul 2018 19:26:36 +0100
REM compiler GCC version 9.3.0
REM options -cpp -mtune=generic -march=x86-64 -g -O0
REM seed -1005956891 -1100074969 -1864805731 -600241147 -682184266 330856768 -1941561242 -1553900281 590699824 -1574027863 1926380823 52848259 -191628862 1401464442 -485941215 704781925 555206646 -1325670072 -1214142489 365694518 -1547090863 -1504463664 -1685332130 443273133 718074323 -277392273 -1218586536 2122580232 2006988939 1341632162 -120426605 -1826347470 1849844815
REM
CELL 1.54180   50.00000   50.00000   50.00000   90.00000   90.00000   90.00000
LATT -1
SFAC C  
C      1  0.4173470000000  0.5260020000000  0.5301570000000 1.0
C      1  0.5882440000000  0.4879800000000  0.5278600000000 1.0
C      1  0.4516480000000  0.4472030000000  0.4932670000000 1.0
C      1  0.4226560000000  0.5485340000000  0.5124860000000 1.0
C      1  0.5080770000000  0.5027250000000  0.4367590000000 1.0
C      1  0.4513030000000  0.5718480000000  0.4820200000000 1.0
C      1  0.5284740000000  0.4099410000000  0.5306820000000 1.0
C      1  0.4939070000000  0.5432160000000  0.5174980000000 1.0
C      1  0.4621020000000  0.5735190000000  0.5359970000000 1.0
C      1  0.5562810000000  0.5232640000000  0.4379860000000 1.0
C      1  0.5579440000000  0.4566410000000  0.4487580000000 1.0
C      1  0.5745590000000  0.5605300000000  0.4995400000000 1.0
C      1  0.5396320000000  0.4873350000000  0.5242460000000 1.0
C      1  0.5632880000000  0.4673870000000  0.5618740000000 1.0
C      1  0.4548590000000  0.5116810000000  0.5719420000000 1.0
C      1  0.4896970000000  0.5717820000000  0.5302310000000 1.0
C      1  0.4943890000000  0.4718760000000  0.5813740000000 1.0
C      1  0.4141320000000  0.5437660000000  0.4858400000000 1.0
C      1  0.4485330000000  0.5625400000000  0.5113590000000 1.0
C      1  0.4676610000000  0.5604940000000  0.5591380000000 1.0
C      1  0.5407160000000  0.4744480000000  0.5781600000000 1.0
C      1  0.5438640000000  0.4257830000000  0.5494020000000 1.0
C      1  0.4874820000000  0.5480130000000  0.5737130000000 1.0
C      1  0.5183890000000  0.4566650000000  0.5789480000000 1.0
C      1  0.5617180000000  0.4452510000000  0.5421550000000 1.0
C      1  0.5151650000000  0.5508280000000  0.4320050000000 1.0
C      1  0.4505490000000  0.4830340000000  0.5709960000000 1.0
C      1  0.4232540000000  0.4853630000000  0.4425780000000 1.0
C      1  0.5731290000000  0.5162420000000  0.5605630000000 1.0
C      1  0.4735170000000  0.4664850000000  0.4757560000000 1.0
C      1  0.5662270000000  0.4474340000000  0.5132930000000 1.0
C      1  0.5870270000000  0.5152070000000  0.4904760000000 1.0
C      1  0.4673790000000  0.4875040000000  0.5174660000000 1.0
C      1  0.4244510000000  0.4688740000000  0.5322330000000 1.0
C      1  0.4892880000000  0.3988380000000  0.4926910000000 1.0
C      1  0.5488960000000  0.5238340000000  0.5742890000000 1.0
C      1  0.4878170000000  0.5464960000000  0.4257880000000 1.0
C      1  0.4667720000000  0.5374660000000  0.5079560000000 1.0
C      1  0.4694690000000  0.4051100000000  0.4716870000000 1.0
C      1  0.5049900000000  0.4154190000000  0.5478030000000 1.0
C      1  0.5745880000000  0.4791320000000  0.4569330000000 1.0
C      1  0.5139290000000  0.4740410000000  0.5242170000000 1.0
C      1  0.4854810000000  0.4294990000000  0.4465740000000 1.0
C      1  0.5136210000000  0.5604970000000  0.5676870000000 1.0
C      1  0.5742900000000  0.5555010000000  0.5278990000000 1.0
C      1  0.4904080000000  0.5400810000000  0.4736570000000 1.0
C      1  0.5109830000000  0.5413700000000  0.4922800000000 1.0
C      1  0.4046400000000  0.5163730000000  0.4848430000000 1.0
C      1  0.4681810000000  0.5625720000000  0.4385630000000 1.0
C      1  0.4812250000000  0.5179120000000  0.4318450000000 1.0
C      1  0.5403180000000  0.5503920000000  0.5663240000000 1.0
C      1  0.5129700000000  0.4111450000000  0.4847150000000 1.0
C      1  0.4746850000000  0.4039280000000  0.4450700000000 1.0
C      1  0.5110490000000  0.5798340000000  0.5465430000000 1.0
C      1  0.5239710000000  0.5719260000000  0.4494290000000 1.0
C      1  0.4672490000000  0.4927230000000  0.4897740000000 1.0
C      1  0.4613310000000  0.5225790000000  0.4542260000000 1.0
C      1  0.4630910000000  0.4984550000000  0.4199440000000 1.0
C      1  0.5496360000000  0.5672360000000  0.4608010000000 1.0
C      1  0.5657750000000  0.5439710000000  0.4558720000000 1.0
C      1  0.5793850000000  0.4891310000000  0.5548650000000 1.0
C      1  0.5371310000000  0.5010170000000  0.4776030000000 1.0
C      1  0.5688740000000  0.4759220000000  0.5093200000000 1.0
C      1  0.5145300000000  0.5979240000000  0.4874840000000 1.0
C      1  0.4297670000000  0.5312810000000  0.4225480000000 1.0
C      1  0.5653330000000  0.4959490000000  0.4350950000000 1.0
C      1  0.4365180000000  0.4611830000000  0.4494030000000 1.0
C      1  0.5811790000000  0.5403880000000  0.4798820000000 1.0
C      1  0.5706320000000  0.4912740000000  0.4832310000000 1.0
C      1  0.4279310000000  0.4525840000000  0.4756130000000 1.0
C      1  0.4669640000000  0.4563260000000  0.4454250000000 1.0
C      1  0.5099720000000  0.4566570000000  0.5048060000000 1.0
C      1  0.5356350000000  0.5904450000000  0.5034930000000 1.0
C      1  0.4299430000000  0.5144630000000  0.5535890000000 1.0
C      1  0.4694460000000  0.4626930000000  0.5690880000000 1.0
C      1  0.5126970000000  0.4331810000000  0.4640740000000 1.0
C      1  0.4729970000000  0.4092110000000  0.5141080000000 1.0
C      1  0.5554930000000  0.5771440000000  0.4875430000000 1.0
C      1  0.4430870000000  0.5471730000000  0.4425480000000 1.0
C      1  0.4088650000000  0.4706750000000  0.4849870000000 1.0
C      1  0.5305330000000  0.5218220000000  0.4944050000000 1.0
C      1  0.4922580000000  0.4936480000000  0.5275660000000 1.0
C      1  0.5285540000000  0.5259360000000  0.4318550000000 1.0
C      1  0.4692790000000  0.5203940000000  0.4824060000000 1.0
C      1  0.5844090000000  0.5314510000000  0.5381160000000 1.0
C      1  0.4759010000000  0.4735290000000  0.4228720000000 1.0
C      1  0.5037390000000  0.5855560000000  0.4661510000000 1.0
C      1  0.4773480000000  0.5696260000000  0.4657570000000 1.0
C      1  0.5529810000000  0.5652120000000  0.5437790000000 1.0
C      1  0.4557820000000  0.4186580000000  0.4932420000000 1.0
C      1  0.4080210000000  0.4932700000000  0.4672170000000 1.0
C      1  0.4786580000000  0.4209260000000  0.5391310000000 1.0
C      1  0.4513500000000  0.4593660000000  0.5231380000000 1.0
C      1  0.5014300000000  0.4998290000000  0.5848560000000 1.0
C      1  0.5341500000000  0.4120580000000  0.5030710000000 1.0
C      1  0.4308700000000  0.5589490000000  0.4675960000000 1.0
C      1  0.5349330000000  0.5829450000000  0.5315790000000 1.0
C      1  0.5933940000000  0.5135150000000  0.5181110000000 1.0
C      1  0.5156950000000  0.4885830000000  0.4648910000000 1.0
C      1  0.5311110000000  0.5015510000000  0.5821190000000 1.0
C      1  0.5445110000000  0.4384300000000  0.4654240000000 1.0
C      1  0.4346170000000  0.5038450000000  0.4229580000000 1.0
C      1  0.5323590000000  0.5143700000000  0.5214570000000 1.0
C      1  0.5040480000000  0.4788920000000  0.4177730000000 1.0
C      1  0.5047340000000  0.5188830000000  0.5299840000000 1.0
C      1  0.4651650000000  0.4453740000000  0.5461560000000 1.0
C      1  0.4809630000000  0.5207370000000  0.5806900000000 1.0
C      1  0.4048210000000  0.5071920000000  0.5121220000000 1.0
C      1  0.5281020000000  0.4707050000000  0.4076300000000 1.0
C      1  0.5494650000000  0.4732990000000  0.4251480000000 1.0
C      1  0.5527850000000  0.4315110000000  0.4932070000000 1.0
C      1  0.5032850000000  0.4633060000000  0.4777630000000 1.0
C      1  0.5208300000000  0.4317650000000  0.5660510000000 1.0
C      1  0.4274370000000  0.4854690000000  0.5546870000000 1.0
C      1  0.4078500000000  0.4790520000000  0.5122180000000 1.0
END
