TITL C-221359-4602-8 0.0229000875112103 125000 -87.897080975909 0 0 14 (C1) n - 1
REM
REM in /rds/project/t2_vol4/rds-t2-cs072/BORA/CARBON/from-Arr/AIRSS/Generating-Clusters/GAP-ML-2020/Only-C1/SD-CG/HFTN-CG
REM
REM
REM
REM
REM
REM ./C.cell (11c1c37f851c82e70ff6c80c92926a4b)
REM AIRSS Version 0.9.1 bugfix July 2018 build 013d7b7c2542+ Fri, 06 Jul 2018 19:26:36 +0100
REM compiler GCC version 9.3.0
REM options -cpp -mtune=generic -march=x86-64 -g -O0
REM seed 677814278 -146920998 -1735365873 1336559999 1743890461 -1598530551 -1637971848 -403168692 -603073098 -355790190 46378917 -1954216307 465771001 -337303391 17206284 -818919678 37329617 -1250023437 1711115093 -489378478 2006511759 -352573606 -228384657 1842747569 -956609331 773894854 606298357 -1693631721 -259591433 706485744 -1038412425 -1818220546 -1154988047
REM
CELL 1.54180   50.00000   50.00000   50.00000   90.00000   90.00000   90.00000
LATT -1
SFAC C  
C      1  0.4884710000000  0.5017650000000  0.4577630000000 1.0
C      1  0.5137860000000  0.5037780000000  0.5414560000000 1.0
C      1  0.4775330000000  0.5096850000000  0.4813220000000 1.0
C      1  0.4936350000000  0.4672520000000  0.4987580000000 1.0
C      1  0.4666680000000  0.5347160000000  0.4835240000000 1.0
C      1  0.5042520000000  0.4896630000000  0.4425170000000 1.0
C      1  0.4560360000000  0.5575870000000  0.4829060000000 1.0
C      1  0.5393690000000  0.4749580000000  0.4912960000000 1.0
C      1  0.5399350000000  0.4992590000000  0.5359560000000 1.0
C      1  0.4909670000000  0.5179200000000  0.5511090000000 1.0
C      1  0.5154400000000  0.4646810000000  0.4855400000000 1.0
C      1  0.4874060000000  0.5002540000000  0.5303930000000 1.0
C      1  0.4814610000000  0.4916600000000  0.5039430000000 1.0
C      1  0.5450410000000  0.4868230000000  0.5135180000000 1.0
END
