TITL C-22869-8291-4 -0.225769488460392 125000 -785.655450031445 0 0 114 (C1) n - 1
REM
REM in /rds/project/t2_vol4/rds-t2-cs072/BORA/CARBON/from-Arr/AIRSS/Generating-Clusters/GAP-ML-2020/Only-C1/SD-CG/HFTN-CG
REM
REM
REM
REM
REM
REM ./C.cell (11c1c37f851c82e70ff6c80c92926a4b)
REM AIRSS Version 0.9.1 bugfix July 2018 build 013d7b7c2542+ Fri, 06 Jul 2018 19:26:36 +0100
REM compiler GCC version 9.3.0
REM options -cpp -mtune=generic -march=x86-64 -g -O0
REM seed 486635082 1248224901 -516739784 898964528 -496558228 -838198312 2137377661 -1989875896 1236658366 1665650642 -951081907 1346508478 62081766 -1358589125 -1806026686 2146499621 430966191 1543230286 -1404938936 -64447374 1947037777 477321485 -1121489641 506842976 1171268963 -1441165685 -183442453 -1942077358 282484254 -2061701586 -698022191 -1149613765 1850048586
REM
CELL 1.54180   50.00000   50.00000   50.00000   90.00000   90.00000   90.00000
LATT -1
SFAC C  
C      1  0.5381730000000  0.4760570000000  0.4182570000000 1.0
C      1  0.4672410000000  0.4115850000000  0.5193660000000 1.0
C      1  0.5230320000000  0.4533840000000  0.4256630000000 1.0
C      1  0.5158090000000  0.4910200000000  0.4669520000000 1.0
C      1  0.4702240000000  0.4968490000000  0.4260820000000 1.0
C      1  0.5545580000000  0.5723510000000  0.5035670000000 1.0
C      1  0.5067440000000  0.5823460000000  0.4986360000000 1.0
C      1  0.4666730000000  0.5067830000000  0.5843100000000 1.0
C      1  0.4790810000000  0.5814280000000  0.4588840000000 1.0
C      1  0.4531240000000  0.4337430000000  0.5031810000000 1.0
C      1  0.4173330000000  0.4963610000000  0.5321520000000 1.0
C      1  0.5065480000000  0.4842160000000  0.5741320000000 1.0
C      1  0.4570860000000  0.5177970000000  0.4422250000000 1.0
C      1  0.5003970000000  0.5720090000000  0.4424720000000 1.0
C      1  0.4483280000000  0.5149140000000  0.5643550000000 1.0
C      1  0.5957510000000  0.5066420000000  0.4798520000000 1.0
C      1  0.5205910000000  0.4392500000000  0.4682730000000 1.0
C      1  0.4571120000000  0.5732040000000  0.5466960000000 1.0
C      1  0.4667400000000  0.4979000000000  0.5239930000000 1.0
C      1  0.5498960000000  0.5270480000000  0.4644680000000 1.0
C      1  0.5289910000000  0.4609720000000  0.5638880000000 1.0
C      1  0.5637230000000  0.4520660000000  0.4526610000000 1.0
C      1  0.4891720000000  0.5489100000000  0.5746990000000 1.0
C      1  0.5786580000000  0.4579960000000  0.4788670000000 1.0
C      1  0.5798830000000  0.5615030000000  0.5017230000000 1.0
C      1  0.4372740000000  0.5685410000000  0.4749090000000 1.0
C      1  0.5316220000000  0.5322470000000  0.5828120000000 1.0
C      1  0.4237420000000  0.5186190000000  0.4834900000000 1.0
C      1  0.4625940000000  0.5227650000000  0.5395900000000 1.0
C      1  0.4163650000000  0.5197080000000  0.5152110000000 1.0
C      1  0.4473310000000  0.4626490000000  0.4585780000000 1.0
C      1  0.5661610000000  0.5165900000000  0.5550970000000 1.0
C      1  0.4756880000000  0.5269820000000  0.4923820000000 1.0
C      1  0.5003260000000  0.5337820000000  0.4110720000000 1.0
C      1  0.5581920000000  0.5260300000000  0.5792270000000 1.0
C      1  0.5264170000000  0.5702720000000  0.5459200000000 1.0
C      1  0.5820880000000  0.5365590000000  0.5140580000000 1.0
C      1  0.4501250000000  0.4347300000000  0.4729670000000 1.0
C      1  0.4892080000000  0.4040300000000  0.4793570000000 1.0
C      1  0.5230090000000  0.4326590000000  0.5614410000000 1.0
C      1  0.4756150000000  0.4811840000000  0.5772410000000 1.0
C      1  0.4610180000000  0.5452810000000  0.4355130000000 1.0
C      1  0.5059590000000  0.5771280000000  0.5267650000000 1.0
C      1  0.4333710000000  0.4920710000000  0.5560050000000 1.0
C      1  0.4943030000000  0.4302240000000  0.5535770000000 1.0
C      1  0.4190060000000  0.5489740000000  0.4847610000000 1.0
C      1  0.5745960000000  0.4587370000000  0.5083820000000 1.0
C      1  0.5642260000000  0.4737230000000  0.4329570000000 1.0
C      1  0.4528680000000  0.5801340000000  0.4960640000000 1.0
C      1  0.5381130000000  0.5427730000000  0.4415650000000 1.0
C      1  0.5298230000000  0.5692470000000  0.4841870000000 1.0
C      1  0.5752500000000  0.4880970000000  0.5177080000000 1.0
C      1  0.5345720000000  0.5220440000000  0.5147760000000 1.0
C      1  0.5389650000000  0.4403590000000  0.4462650000000 1.0
C      1  0.5492090000000  0.5637790000000  0.5314490000000 1.0
C      1  0.4838300000000  0.4677080000000  0.4846650000000 1.0
C      1  0.4478100000000  0.4829610000000  0.5078440000000 1.0
C      1  0.5917170000000  0.5106070000000  0.5067050000000 1.0
C      1  0.5818440000000  0.4921630000000  0.4444880000000 1.0
C      1  0.5262750000000  0.5666220000000  0.4527010000000 1.0
C      1  0.4919260000000  0.4524690000000  0.4343860000000 1.0
C      1  0.5280430000000  0.5289690000000  0.4180440000000 1.0
C      1  0.4575370000000  0.4821520000000  0.4798290000000 1.0
C      1  0.5795930000000  0.5180810000000  0.4582110000000 1.0
C      1  0.4874560000000  0.5242660000000  0.5915480000000 1.0
C      1  0.5605780000000  0.4454170000000  0.5316350000000 1.0
C      1  0.4082220000000  0.4963910000000  0.4717850000000 1.0
C      1  0.5935930000000  0.4804240000000  0.4685880000000 1.0
C      1  0.5084040000000  0.4930240000000  0.5461410000000 1.0
C      1  0.4891480000000  0.5362200000000  0.5461690000000 1.0
C      1  0.5116710000000  0.5111170000000  0.5895370000000 1.0
C      1  0.4669270000000  0.4697540000000  0.4337490000000 1.0
C      1  0.5025340000000  0.4621250000000  0.4613440000000 1.0
C      1  0.5182010000000  0.4247740000000  0.5155040000000 1.0
C      1  0.5181960000000  0.5547790000000  0.5699470000000 1.0
C      1  0.5066430000000  0.4152920000000  0.4602260000000 1.0
C      1  0.5042340000000  0.4854440000000  0.4947320000000 1.0
C      1  0.4540490000000  0.5123720000000  0.4732560000000 1.0
C      1  0.4685020000000  0.4233800000000  0.5458150000000 1.0
C      1  0.5436510000000  0.4982920000000  0.4736870000000 1.0
C      1  0.5584040000000  0.5347500000000  0.5318100000000 1.0
C      1  0.4372430000000  0.4495760000000  0.5218660000000 1.0
C      1  0.4638970000000  0.5437340000000  0.5161640000000 1.0
C      1  0.4181930000000  0.5490070000000  0.5137830000000 1.0
C      1  0.5455460000000  0.4955420000000  0.5037780000000 1.0
C      1  0.4936120000000  0.4057120000000  0.5066850000000 1.0
C      1  0.4197810000000  0.4727780000000  0.4616270000000 1.0
C      1  0.5701960000000  0.4894820000000  0.5462350000000 1.0
C      1  0.4425550000000  0.5659680000000  0.5209950000000 1.0
C      1  0.5267470000000  0.4721630000000  0.5076140000000 1.0
C      1  0.4866400000000  0.5530210000000  0.4245450000000 1.0
C      1  0.5154970000000  0.4686240000000  0.5339970000000 1.0
C      1  0.4866680000000  0.4245390000000  0.4418590000000 1.0
C      1  0.4679580000000  0.4167160000000  0.4622250000000 1.0
C      1  0.5386760000000  0.4263020000000  0.5366440000000 1.0
C      1  0.4805450000000  0.5862590000000  0.4866430000000 1.0
C      1  0.4080380000000  0.4733160000000  0.4873890000000 1.0
C      1  0.4831260000000  0.5614170000000  0.5322640000000 1.0
C      1  0.4204410000000  0.4728420000000  0.5141930000000 1.0
C      1  0.5081730000000  0.5177830000000  0.5302370000000 1.0
C      1  0.4547000000000  0.5671150000000  0.4526320000000 1.0
C      1  0.5293600000000  0.4428860000000  0.4953260000000 1.0
C      1  0.4517600000000  0.4699100000000  0.5623730000000 1.0
C      1  0.4661360000000  0.5677130000000  0.5706120000000 1.0
C      1  0.4976410000000  0.4460550000000  0.5284120000000 1.0
C      1  0.5571630000000  0.4649730000000  0.5534290000000 1.0
C      1  0.4898190000000  0.5068180000000  0.5091890000000 1.0
C      1  0.5001680000000  0.5324740000000  0.4773410000000 1.0
C      1  0.5295790000000  0.5377050000000  0.4880910000000 1.0
C      1  0.4798440000000  0.4486990000000  0.5052820000000 1.0
C      1  0.4490590000000  0.4455790000000  0.5474640000000 1.0
C      1  0.4941960000000  0.5053600000000  0.4108270000000 1.0
C      1  0.5025130000000  0.5142650000000  0.4567180000000 1.0
C      1  0.5236380000000  0.4998600000000  0.4125380000000 1.0
END
