TITL C-22848-2152-1 -46.0731771203305 125000 -582.980747588129 0 0 82 (C1) n - 1
REM
REM in /rds/project/t2_vol4/rds-t2-cs072/BORA/CARBON/from-Arr/AIRSS/Generating-Clusters/GAP-ML-2020/Only-C1/SD-CG/HFTN-CG
REM
REM
REM
REM
REM
REM ./C.cell (11c1c37f851c82e70ff6c80c92926a4b)
REM AIRSS Version 0.9.1 bugfix July 2018 build 013d7b7c2542+ Fri, 06 Jul 2018 19:26:36 +0100
REM compiler GCC version 9.3.0
REM options -cpp -mtune=generic -march=x86-64 -g -O0
REM seed -783906017 159309778 -1289580905 -2021939646 -858725259 -2129460110 1359841446 -1377579631 -804448289 -723879701 1152956466 234268237 1029963617 -340563822 1625140600 -2047824353 -1717804655 1300079657 -1482259993 -241194157 -2002146284 -1136416727 -885431992 1142040220 934515124 1379398488 -239679569 -294828326 346082208 -103631223 1236726826 2074313388 1415926262
REM
CELL 1.54180   50.00000   50.00000   50.00000   90.00000   90.00000   90.00000
LATT -1
SFAC C  
C      1  0.5123560000000  0.4516310000000  0.4365610000000 1.0
C      1  0.4755000000000  0.4333340000000  0.4572190000000 1.0
C      1  0.4987520000000  0.4209570000000  0.4684320000000 1.0
C      1  0.4459020000000  0.5633360000000  0.4652830000000 1.0
C      1  0.4977450000000  0.5774830000000  0.4688880000000 1.0
C      1  0.5673270000000  0.5289150000000  0.5035910000000 1.0
C      1  0.4328060000000  0.5102450000000  0.5426910000000 1.0
C      1  0.4669630000000  0.5636870000000  0.5014260000000 1.0
C      1  0.4707170000000  0.4875700000000  0.5565410000000 1.0
C      1  0.5521520000000  0.4671000000000  0.4590900000000 1.0
C      1  0.4579050000000  0.5486280000000  0.4464320000000 1.0
C      1  0.5273170000000  0.4966160000000  0.4253560000000 1.0
C      1  0.4671210000000  0.4768160000000  0.4361870000000 1.0
C      1  0.5119870000000  0.5480810000000  0.5721460000000 1.0
C      1  0.5228890000000  0.4212920000000  0.5092460000000 1.0
C      1  0.5205330000000  0.5098340000000  0.4896170000000 1.0
C      1  0.5059780000000  0.5310080000000  0.5031200000000 1.0
C      1  0.4613470000000  0.5502450000000  0.5609930000000 1.0
C      1  0.4751660000000  0.5045410000000  0.4292060000000 1.0
C      1  0.5537490000000  0.4446160000000  0.5359460000000 1.0
C      1  0.4541630000000  0.5211510000000  0.4391130000000 1.0
C      1  0.4409900000000  0.4621090000000  0.5269020000000 1.0
C      1  0.4347450000000  0.5047630000000  0.4535870000000 1.0
C      1  0.5338690000000  0.5719160000000  0.4993780000000 1.0
C      1  0.5348460000000  0.5500890000000  0.4550130000000 1.0
C      1  0.4241780000000  0.5354710000000  0.4962160000000 1.0
C      1  0.5448700000000  0.5173170000000  0.4330590000000 1.0
C      1  0.5214440000000  0.5257690000000  0.5834500000000 1.0
C      1  0.4395920000000  0.5598480000000  0.4923150000000 1.0
C      1  0.4871020000000  0.5830450000000  0.4954620000000 1.0
C      1  0.5674140000000  0.4846610000000  0.4771890000000 1.0
C      1  0.5635560000000  0.4456290000000  0.5092420000000 1.0
C      1  0.4434210000000  0.4772990000000  0.4531500000000 1.0
C      1  0.5481060000000  0.5500440000000  0.5396800000000 1.0
C      1  0.5144560000000  0.4630740000000  0.5687470000000 1.0
C      1  0.4868910000000  0.5603470000000  0.5598960000000 1.0
C      1  0.4922680000000  0.4743630000000  0.4951410000000 1.0
C      1  0.4196050000000  0.5155670000000  0.5178580000000 1.0
C      1  0.5097680000000  0.4386290000000  0.5541140000000 1.0
C      1  0.4826250000000  0.5391350000000  0.4874440000000 1.0
C      1  0.4760610000000  0.5116680000000  0.4842850000000 1.0
C      1  0.4697700000000  0.4283830000000  0.5035540000000 1.0
C      1  0.4848850000000  0.4663470000000  0.5671770000000 1.0
C      1  0.5458550000000  0.4305890000000  0.4937070000000 1.0
C      1  0.4170080000000  0.4943610000000  0.4986140000000 1.0
C      1  0.4825520000000  0.5552800000000  0.4591370000000 1.0
C      1  0.5028500000000  0.5130720000000  0.4256190000000 1.0
C      1  0.5006580000000  0.5239770000000  0.5290050000000 1.0
C      1  0.5677730000000  0.5146480000000  0.4780590000000 1.0
C      1  0.5290050000000  0.4298560000000  0.5361010000000 1.0
C      1  0.4806980000000  0.4429000000000  0.5501510000000 1.0
C      1  0.5295070000000  0.4921270000000  0.5100870000000 1.0
C      1  0.4439970000000  0.4837420000000  0.5458150000000 1.0
C      1  0.5207920000000  0.4316990000000  0.4548520000000 1.0
C      1  0.4868020000000  0.4999300000000  0.5315040000000 1.0
C      1  0.4284140000000  0.4689080000000  0.5009720000000 1.0
C      1  0.5080810000000  0.4778810000000  0.5187320000000 1.0
C      1  0.4996450000000  0.4950840000000  0.4756400000000 1.0
C      1  0.5731990000000  0.4852210000000  0.5276190000000 1.0
C      1  0.5582040000000  0.4697230000000  0.5479310000000 1.0
C      1  0.5255890000000  0.5707050000000  0.4715160000000 1.0
C      1  0.4716850000000  0.4944650000000  0.5061240000000 1.0
C      1  0.5391900000000  0.5093730000000  0.5688510000000 1.0
C      1  0.4615090000000  0.4410710000000  0.5283940000000 1.0
C      1  0.4571910000000  0.4372750000000  0.4784130000000 1.0
C      1  0.5283150000000  0.5634840000000  0.5535020000000 1.0
C      1  0.4205510000000  0.5133320000000  0.4764950000000 1.0
C      1  0.5698300000000  0.5128350000000  0.5274780000000 1.0
C      1  0.5560120000000  0.5294490000000  0.4561680000000 1.0
C      1  0.5439340000000  0.4409210000000  0.4679540000000 1.0
C      1  0.4969470000000  0.4183860000000  0.4968040000000 1.0
C      1  0.5049700000000  0.5753160000000  0.5410280000000 1.0
C      1  0.5734410000000  0.4713920000000  0.5022970000000 1.0
C      1  0.5380300000000  0.4801420000000  0.5656690000000 1.0
C      1  0.4831230000000  0.4531340000000  0.4376910000000 1.0
C      1  0.5090660000000  0.5816870000000  0.5141230000000 1.0
C      1  0.5202140000000  0.5362160000000  0.4335660000000 1.0
C      1  0.5535080000000  0.5536420000000  0.5117740000000 1.0
C      1  0.4455810000000  0.5307030000000  0.5568110000000 1.0
C      1  0.5551720000000  0.5241300000000  0.5489810000000 1.0
C      1  0.5330030000000  0.4716770000000  0.4369010000000 1.0
C      1  0.4392640000000  0.4591100000000  0.4759680000000 1.0
END
