TITL C-221351-4632-10 -139.297599570313 125000 -786.460172537751 0 0 115 (C1) n - 1
REM
REM in /rds/project/t2_vol4/rds-t2-cs072/BORA/CARBON/from-Arr/AIRSS/Generating-Clusters/GAP-ML-2020/Only-C1/SD-CG/HFTN-CG
REM
REM
REM
REM
REM
REM ./C.cell (11c1c37f851c82e70ff6c80c92926a4b)
REM AIRSS Version 0.9.1 bugfix July 2018 build 013d7b7c2542+ Fri, 06 Jul 2018 19:26:36 +0100
REM compiler GCC version 9.3.0
REM options -cpp -mtune=generic -march=x86-64 -g -O0
REM seed -1563974868 -348391736 791815143 1712578631 -1773793421 -1216403711 893224602 753957409 91987266 53248471 -751657665 -959026652 175845698 -279413198 1545601974 -1779314192 1458260293 -1867755255 1978181741 1323057612 -838613216 -1757868230 -1537715635 292755147 -879656797 470405485 -1339468716 -1608362293 986605483 644917171 -1618478047 -1328139666 451709568
REM
CELL 1.54180   50.00000   50.00000   50.00000   90.00000   90.00000   90.00000
LATT -1
SFAC C  
C      1  0.4271100000000  0.4468150000000  0.4922650000000 1.0
C      1  0.4455610000000  0.5613020000000  0.4673940000000 1.0
C      1  0.5342710000000  0.5536750000000  0.5464860000000 1.0
C      1  0.5047570000000  0.5202870000000  0.4283310000000 1.0
C      1  0.4994150000000  0.4479340000000  0.5903350000000 1.0
C      1  0.4730080000000  0.5263730000000  0.5848910000000 1.0
C      1  0.4689530000000  0.4250920000000  0.4982490000000 1.0
C      1  0.5602840000000  0.5108220000000  0.4318120000000 1.0
C      1  0.5170330000000  0.5184400000000  0.5735590000000 1.0
C      1  0.4180710000000  0.5186560000000  0.5037050000000 1.0
C      1  0.5622820000000  0.4866950000000  0.5658930000000 1.0
C      1  0.5186420000000  0.5944800000000  0.5043690000000 1.0
C      1  0.4944550000000  0.5877830000000  0.4898360000000 1.0
C      1  0.5757980000000  0.5001730000000  0.4540280000000 1.0
C      1  0.4464030000000  0.5044240000000  0.5482670000000 1.0
C      1  0.4521380000000  0.5553840000000  0.5511820000000 1.0
C      1  0.4553290000000  0.4844620000000  0.5257490000000 1.0
C      1  0.5309030000000  0.5121140000000  0.4712320000000 1.0
C      1  0.5188570000000  0.5004500000000  0.4452350000000 1.0
C      1  0.4936930000000  0.4297720000000  0.5130580000000 1.0
C      1  0.4452730000000  0.5619400000000  0.4971670000000 1.0
C      1  0.5396710000000  0.4498670000000  0.5506000000000 1.0
C      1  0.5037370000000  0.4771300000000  0.4016270000000 1.0
C      1  0.4866150000000  0.5728500000000  0.5588690000000 1.0
C      1  0.4661510000000  0.5765420000000  0.5380960000000 1.0
C      1  0.4679140000000  0.5396450000000  0.4596050000000 1.0
C      1  0.5354680000000  0.4205600000000  0.4928940000000 1.0
C      1  0.4704090000000  0.5523340000000  0.5730840000000 1.0
C      1  0.5459110000000  0.5099140000000  0.5222640000000 1.0
C      1  0.4176420000000  0.4935740000000  0.5454930000000 1.0
C      1  0.5108150000000  0.4733440000000  0.5835410000000 1.0
C      1  0.5305880000000  0.5361020000000  0.5214290000000 1.0
C      1  0.4637400000000  0.5114530000000  0.4518950000000 1.0
C      1  0.5218390000000  0.4912870000000  0.5289600000000 1.0
C      1  0.5235120000000  0.4179920000000  0.4651170000000 1.0
C      1  0.4879360000000  0.4326450000000  0.5709760000000 1.0
C      1  0.4980000000000  0.5205790000000  0.5964060000000 1.0
C      1  0.4917780000000  0.4544970000000  0.5296560000000 1.0
C      1  0.4292550000000  0.5304690000000  0.4343470000000 1.0
C      1  0.4369120000000  0.5389240000000  0.5115700000000 1.0
C      1  0.5217550000000  0.4594330000000  0.5296870000000 1.0
C      1  0.5382660000000  0.5679340000000  0.4694090000000 1.0
C      1  0.4853230000000  0.5235570000000  0.5330450000000 1.0
C      1  0.5505240000000  0.5591300000000  0.5185460000000 1.0
C      1  0.4817840000000  0.4629270000000  0.4397990000000 1.0
C      1  0.5807520000000  0.5098160000000  0.4810720000000 1.0
C      1  0.5275900000000  0.4021090000000  0.5152640000000 1.0
C      1  0.4724280000000  0.4285770000000  0.4703830000000 1.0
C      1  0.4925770000000  0.5439220000000  0.4733260000000 1.0
C      1  0.4653170000000  0.5777390000000  0.4497410000000 1.0
C      1  0.4811950000000  0.4767130000000  0.5119150000000 1.0
C      1  0.4314390000000  0.4561690000000  0.4641720000000 1.0
C      1  0.5143150000000  0.5760630000000  0.5500020000000 1.0
C      1  0.4853000000000  0.4825270000000  0.5652580000000 1.0
C      1  0.4653510000000  0.4766360000000  0.4859570000000 1.0
C      1  0.5242910000000  0.4430880000000  0.4256670000000 1.0
C      1  0.4467240000000  0.4371490000000  0.5099520000000 1.0
C      1  0.5198260000000  0.5443720000000  0.4318360000000 1.0
C      1  0.5029430000000  0.5169980000000  0.4859350000000 1.0
C      1  0.5018890000000  0.5038910000000  0.5492900000000 1.0
C      1  0.5749590000000  0.5435540000000  0.5175000000000 1.0
C      1  0.4553600000000  0.5343070000000  0.4181420000000 1.0
C      1  0.5186250000000  0.4450010000000  0.5018100000000 1.0
C      1  0.5771510000000  0.5352330000000  0.4908420000000 1.0
C      1  0.5587720000000  0.4750780000000  0.4554660000000 1.0
C      1  0.4905900000000  0.5835350000000  0.4612790000000 1.0
C      1  0.4989310000000  0.4099600000000  0.5580090000000 1.0
C      1  0.5390220000000  0.4705060000000  0.5711100000000 1.0
C      1  0.4611020000000  0.4536170000000  0.4609810000000 1.0
C      1  0.5795760000000  0.4734340000000  0.5171710000000 1.0
C      1  0.4672670000000  0.5750310000000  0.5096680000000 1.0
C      1  0.4759360000000  0.5118030000000  0.4233180000000 1.0
C      1  0.4482470000000  0.4555650000000  0.5363080000000 1.0
C      1  0.5479240000000  0.5382810000000  0.4305890000000 1.0
C      1  0.5564740000000  0.5532750000000  0.4523180000000 1.0
C      1  0.4337560000000  0.5064320000000  0.4513700000000 1.0
C      1  0.4530880000000  0.5310330000000  0.5350440000000 1.0
C      1  0.4203510000000  0.4654140000000  0.5380270000000 1.0
C      1  0.5529580000000  0.5358940000000  0.4743580000000 1.0
C      1  0.5124590000000  0.5623620000000  0.4557220000000 1.0
C      1  0.5774310000000  0.4715000000000  0.5463400000000 1.0
C      1  0.5019480000000  0.5348440000000  0.5124720000000 1.0
C      1  0.5422170000000  0.4866930000000  0.4314910000000 1.0
C      1  0.4637030000000  0.5021270000000  0.5719700000000 1.0
C      1  0.5639090000000  0.5166750000000  0.5618430000000 1.0
C      1  0.4806510000000  0.4977590000000  0.4716480000000 1.0
C      1  0.4043630000000  0.5075530000000  0.5261860000000 1.0
C      1  0.5613820000000  0.4454290000000  0.4614070000000 1.0
C      1  0.5633370000000  0.4934980000000  0.5011270000000 1.0
C      1  0.4202620000000  0.4817310000000  0.4585500000000 1.0
C      1  0.4383100000000  0.4852710000000  0.4998580000000 1.0
C      1  0.4154240000000  0.4653360000000  0.5093810000000 1.0
C      1  0.4811720000000  0.4828570000000  0.4153470000000 1.0
C      1  0.5276040000000  0.4685460000000  0.4123390000000 1.0
C      1  0.5066770000000  0.4085470000000  0.5317240000000 1.0
C      1  0.4229850000000  0.5018330000000  0.4801350000000 1.0
C      1  0.4681030000000  0.5554380000000  0.4315670000000 1.0
C      1  0.4962870000000  0.4217500000000  0.4567260000000 1.0
C      1  0.5009760000000  0.4796370000000  0.4588310000000 1.0
C      1  0.5166200000000  0.5971580000000  0.5320100000000 1.0
C      1  0.5661630000000  0.4457770000000  0.5404880000000 1.0
C      1  0.4238740000000  0.5520190000000  0.4504420000000 1.0
C      1  0.4745100000000  0.4549620000000  0.5534780000000 1.0
C      1  0.4902970000000  0.5592250000000  0.4992770000000 1.0
C      1  0.4975740000000  0.4385480000000  0.4339730000000 1.0
C      1  0.5061990000000  0.4904770000000  0.5045510000000 1.0
C      1  0.5736240000000  0.4452450000000  0.5119690000000 1.0
C      1  0.5718640000000  0.5227100000000  0.5361710000000 1.0
C      1  0.5403770000000  0.4319300000000  0.4468870000000 1.0
C      1  0.5171280000000  0.4705220000000  0.4847940000000 1.0
C      1  0.5627900000000  0.4338180000000  0.4883570000000 1.0
C      1  0.5140170000000  0.4994170000000  0.5964230000000 1.0
C      1  0.5413230000000  0.5336220000000  0.5667010000000 1.0
C      1  0.5411070000000  0.5778670000000  0.4967090000000 1.0
C      1  0.5435250000000  0.4848390000000  0.4800680000000 1.0
END
