TITL C-22547-8261-9 0.0606990566887861 125000 -536.071839611505 0 0 77 (C1) n - 1
REM
REM in /rds/project/t2_vol4/rds-t2-cs072/BORA/CARBON/from-Arr/AIRSS/Generating-Clusters/GAP-ML-2020/Only-C1/SD-CG/HFTN-CG
REM
REM
REM
REM
REM
REM ./C.cell (11c1c37f851c82e70ff6c80c92926a4b)
REM AIRSS Version 0.9.1 bugfix July 2018 build 013d7b7c2542+ Fri, 06 Jul 2018 19:26:36 +0100
REM compiler GCC version 9.3.0
REM options -cpp -mtune=generic -march=x86-64 -g -O0
REM seed 625410083 1139817677 -60560911 -737525949 -577936615 -474502511 -544885682 448684872 418707409 -1568422790 1668724663 -191515321 1051196149 -2014952222 -1492415382 -1513290235 428121222 1401126714 281778237 -740383223 -575267189 1453110723 -1357689996 875358082 -1753511221 -518328839 -24196417 312782528 -253052897 -1908122277 -1841980969 1224876320 402185326
REM
CELL 1.54180   50.00000   50.00000   50.00000   90.00000   90.00000   90.00000
LATT -1
SFAC C  
C      1  0.5309780000000  0.5630060000000  0.4586760000000 1.0
C      1  0.5555540000000  0.4672630000000  0.5259540000000 1.0
C      1  0.4563910000000  0.5344650000000  0.5417960000000 1.0
C      1  0.5349050000000  0.4766860000000  0.5693590000000 1.0
C      1  0.5310420000000  0.4131720000000  0.4830020000000 1.0
C      1  0.4765000000000  0.5318140000000  0.5633000000000 1.0
C      1  0.5632580000000  0.4759360000000  0.5000210000000 1.0
C      1  0.4798040000000  0.4472050000000  0.4406320000000 1.0
C      1  0.4567090000000  0.5168530000000  0.4352270000000 1.0
C      1  0.4495840000000  0.4951400000000  0.5663620000000 1.0
C      1  0.5223240000000  0.5390190000000  0.4469280000000 1.0
C      1  0.5247070000000  0.5215280000000  0.5640950000000 1.0
C      1  0.4790850000000  0.4126220000000  0.5187250000000 1.0
C      1  0.5239580000000  0.5196590000000  0.4693540000000 1.0
C      1  0.5090550000000  0.5096420000000  0.4126820000000 1.0
C      1  0.4903460000000  0.5884900000000  0.5060550000000 1.0
C      1  0.5526340000000  0.4312710000000  0.4798340000000 1.0
C      1  0.5131710000000  0.5367740000000  0.5144970000000 1.0
C      1  0.4821120000000  0.5793340000000  0.4613770000000 1.0
C      1  0.4815390000000  0.4137510000000  0.4892180000000 1.0
C      1  0.4374980000000  0.4967410000000  0.4718990000000 1.0
C      1  0.5179100000000  0.4539020000000  0.5678740000000 1.0
C      1  0.4919420000000  0.4523620000000  0.4817020000000 1.0
C      1  0.4466070000000  0.4872530000000  0.5223280000000 1.0
C      1  0.5553410000000  0.5873880000000  0.5238000000000 1.0
C      1  0.4700890000000  0.5833740000000  0.4868500000000 1.0
C      1  0.5032470000000  0.5397270000000  0.5591060000000 1.0
C      1  0.4671250000000  0.5585160000000  0.4495500000000 1.0
C      1  0.5197150000000  0.4366780000000  0.5454990000000 1.0
C      1  0.5428560000000  0.5789840000000  0.5004790000000 1.0
C      1  0.4921740000000  0.4889880000000  0.5831420000000 1.0
C      1  0.4637760000000  0.4389260000000  0.4841100000000 1.0
C      1  0.5046010000000  0.4128610000000  0.4719310000000 1.0
C      1  0.5110950000000  0.5824190000000  0.4654750000000 1.0
C      1  0.4601630000000  0.4884850000000  0.4324130000000 1.0
C      1  0.5393280000000  0.5261660000000  0.5176970000000 1.0
C      1  0.5444570000000  0.4232940000000  0.5058140000000 1.0
C      1  0.5003080000000  0.5264390000000  0.4902650000000 1.0
C      1  0.5438890000000  0.5140330000000  0.5428350000000 1.0
C      1  0.4714150000000  0.5072060000000  0.5775310000000 1.0
C      1  0.5583330000000  0.4584080000000  0.4776210000000 1.0
C      1  0.4469520000000  0.5480980000000  0.4687180000000 1.0
C      1  0.4995170000000  0.4801470000000  0.4823170000000 1.0
C      1  0.4742590000000  0.4505320000000  0.5509820000000 1.0
C      1  0.5734750000000  0.4961030000000  0.4590470000000 1.0
C      1  0.4748770000000  0.5384680000000  0.4306890000000 1.0
C      1  0.5160430000000  0.5896400000000  0.4927090000000 1.0
C      1  0.5082240000000  0.4884550000000  0.4301520000000 1.0
C      1  0.4512820000000  0.4133500000000  0.5219030000000 1.0
C      1  0.4514710000000  0.5622710000000  0.4945570000000 1.0
C      1  0.4836890000000  0.5716700000000  0.5277110000000 1.0
C      1  0.5186370000000  0.4982750000000  0.5791460000000 1.0
C      1  0.5034000000000  0.5330990000000  0.4258780000000 1.0
C      1  0.4556190000000  0.4493510000000  0.4575280000000 1.0
C      1  0.5487850000000  0.5575930000000  0.4814630000000 1.0
C      1  0.4819490000000  0.5042750000000  0.4876630000000 1.0
C      1  0.4443500000000  0.5075300000000  0.5419950000000 1.0
C      1  0.4839880000000  0.4725840000000  0.4283300000000 1.0
C      1  0.4448830000000  0.4754950000000  0.4532240000000 1.0
C      1  0.4904710000000  0.4618400000000  0.5728670000000 1.0
C      1  0.4919800000000  0.4301640000000  0.5390830000000 1.0
C      1  0.5053240000000  0.5548700000000  0.5355790000000 1.0
C      1  0.5511110000000  0.4783650000000  0.4570390000000 1.0
C      1  0.5503480000000  0.4857440000000  0.5469790000000 1.0
C      1  0.4977200000000  0.4903560000000  0.5324730000000 1.0
C      1  0.4401720000000  0.5221450000000  0.4581830000000 1.0
C      1  0.4527620000000  0.4977580000000  0.4963070000000 1.0
C      1  0.5418670000000  0.4413320000000  0.5274690000000 1.0
C      1  0.5541790000000  0.5918280000000  0.5485920000000 1.0
C      1  0.4585610000000  0.5561300000000  0.5230910000000 1.0
C      1  0.5498080000000  0.5262730000000  0.4897130000000 1.0
C      1  0.4497900000000  0.4392000000000  0.5113110000000 1.0
C      1  0.5001710000000  0.4372710000000  0.4566280000000 1.0
C      1  0.5677770000000  0.5024200000000  0.4859150000000 1.0
C      1  0.5221280000000  0.4896380000000  0.4588350000000 1.0
C      1  0.5057560000000  0.4819110000000  0.5097050000000 1.0
C      1  0.4531530000000  0.4600400000000  0.5312030000000 1.0
END
