TITL C-221351-4632-4 0.2844369274994 125000 -770.198055675986 0 0 108 (C1) n - 1
REM
REM in /rds/project/t2_vol4/rds-t2-cs072/BORA/CARBON/from-Arr/AIRSS/Generating-Clusters/GAP-ML-2020/Only-C1/SD-CG/HFTN-CG
REM
REM
REM
REM
REM
REM ./C.cell (11c1c37f851c82e70ff6c80c92926a4b)
REM AIRSS Version 0.9.1 bugfix July 2018 build 013d7b7c2542+ Fri, 06 Jul 2018 19:26:36 +0100
REM compiler GCC version 9.3.0
REM options -cpp -mtune=generic -march=x86-64 -g -O0
REM seed -1325312660 1708720872 1453352460 560186001 -2073894236 193832723 2016207793 2022775769 -1127890850 1932848305 1904410129 -1115668240 -646525634 1830958371 1950229781 1592988196 1287592673 1962651352 -217151343 -1139902043 1100213684 -1241938966 49095208 1542817669 -1962973032 -2022980263 -851123847 392326440 -311246688 -1733484224 -431056306 1172714132 1956652937
REM
CELL 1.54180   50.00000   50.00000   50.00000   90.00000   90.00000   90.00000
LATT -1
SFAC C  
C      1  0.5105150000000  0.5344290000000  0.4694380000000 1.0
C      1  0.4793500000000  0.5664430000000  0.5556440000000 1.0
C      1  0.5655230000000  0.5609090000000  0.5102750000000 1.0
C      1  0.4216720000000  0.4755610000000  0.5366880000000 1.0
C      1  0.5492690000000  0.4240630000000  0.5148710000000 1.0
C      1  0.5832250000000  0.5237770000000  0.4873960000000 1.0
C      1  0.4597620000000  0.4242210000000  0.4964760000000 1.0
C      1  0.4592220000000  0.5006400000000  0.5026270000000 1.0
C      1  0.5679960000000  0.5661220000000  0.4826070000000 1.0
C      1  0.4216860000000  0.5086080000000  0.4629920000000 1.0
C      1  0.4720180000000  0.5718390000000  0.4550060000000 1.0
C      1  0.5420620000000  0.5730220000000  0.5233280000000 1.0
C      1  0.4689220000000  0.4493910000000  0.5612680000000 1.0
C      1  0.4474970000000  0.5803270000000  0.4932310000000 1.0
C      1  0.5599840000000  0.5442200000000  0.4426920000000 1.0
C      1  0.5361310000000  0.5638870000000  0.5478980000000 1.0
C      1  0.4948670000000  0.5444150000000  0.5650580000000 1.0
C      1  0.5546020000000  0.4946560000000  0.4269940000000 1.0
C      1  0.5837680000000  0.4950000000000  0.4890740000000 1.0
C      1  0.4977070000000  0.4678370000000  0.5068480000000 1.0
C      1  0.5335320000000  0.5975620000000  0.4816280000000 1.0
C      1  0.4491780000000  0.5210090000000  0.4516710000000 1.0
C      1  0.4983100000000  0.5274420000000  0.5143780000000 1.0
C      1  0.5770950000000  0.5128710000000  0.5333390000000 1.0
C      1  0.4898250000000  0.4614880000000  0.4170210000000 1.0
C      1  0.4596700000000  0.4761620000000  0.5688430000000 1.0
C      1  0.4572500000000  0.4590820000000  0.4529030000000 1.0
C      1  0.5833640000000  0.4894300000000  0.5165970000000 1.0
C      1  0.5260150000000  0.5181920000000  0.5099050000000 1.0
C      1  0.4276380000000  0.5376470000000  0.4983570000000 1.0
C      1  0.4949230000000  0.5675930000000  0.4379960000000 1.0
C      1  0.4568470000000  0.5015570000000  0.4280210000000 1.0
C      1  0.4930420000000  0.5051790000000  0.5343340000000 1.0
C      1  0.4825440000000  0.4908030000000  0.4175700000000 1.0
C      1  0.5640600000000  0.4492850000000  0.4785440000000 1.0
C      1  0.5510650000000  0.5826840000000  0.4676740000000 1.0
C      1  0.5235370000000  0.5072750000000  0.5877300000000 1.0
C      1  0.4353950000000  0.5584240000000  0.4801270000000 1.0
C      1  0.5755910000000  0.5433260000000  0.4675260000000 1.0
C      1  0.5733830000000  0.4597700000000  0.5504350000000 1.0
C      1  0.4933200000000  0.5873810000000  0.5045170000000 1.0
C      1  0.5296590000000  0.4806780000000  0.4192450000000 1.0
C      1  0.4792800000000  0.4820860000000  0.4646950000000 1.0
C      1  0.5049870000000  0.5404470000000  0.4406160000000 1.0
C      1  0.4332100000000  0.4565890000000  0.4710630000000 1.0
C      1  0.5221670000000  0.5884750000000  0.5046130000000 1.0
C      1  0.4928320000000  0.4269330000000  0.4554220000000 1.0
C      1  0.4730660000000  0.5853840000000  0.4819360000000 1.0
C      1  0.5091470000000  0.5003350000000  0.4143280000000 1.0
C      1  0.4337720000000  0.5691080000000  0.5422400000000 1.0
C      1  0.3991370000000  0.4892110000000  0.5261350000000 1.0
C      1  0.4622950000000  0.4163390000000  0.5240860000000 1.0
C      1  0.5386550000000  0.4254280000000  0.5417460000000 1.0
C      1  0.4400270000000  0.4900250000000  0.5538620000000 1.0
C      1  0.4529670000000  0.4380360000000  0.5405340000000 1.0
C      1  0.4517910000000  0.5655330000000  0.5645180000000 1.0
C      1  0.4970390000000  0.4426470000000  0.5643250000000 1.0
C      1  0.5686480000000  0.4430570000000  0.5057220000000 1.0
C      1  0.5273460000000  0.5145700000000  0.4812670000000 1.0
C      1  0.4338150000000  0.4512560000000  0.5250240000000 1.0
C      1  0.4420960000000  0.4789790000000  0.4359830000000 1.0
C      1  0.5762600000000  0.4745740000000  0.4691260000000 1.0
C      1  0.5319330000000  0.4187210000000  0.4928350000000 1.0
C      1  0.5243470000000  0.5453370000000  0.5639050000000 1.0
C      1  0.5202800000000  0.5255590000000  0.4214550000000 1.0
C      1  0.4506370000000  0.5259260000000  0.5161340000000 1.0
C      1  0.5011830000000  0.4754270000000  0.4793990000000 1.0
C      1  0.4499800000000  0.5520500000000  0.4560640000000 1.0
C      1  0.4099860000000  0.5182430000000  0.4877220000000 1.0
C      1  0.5054410000000  0.4113580000000  0.4988770000000 1.0
C      1  0.5198960000000  0.4363310000000  0.4484430000000 1.0
C      1  0.5402740000000  0.5225310000000  0.5730510000000 1.0
C      1  0.4972960000000  0.4084840000000  0.5269450000000 1.0
C      1  0.4844010000000  0.4184440000000  0.4814200000000 1.0
C      1  0.5780690000000  0.5346280000000  0.5139800000000 1.0
C      1  0.4722820000000  0.4385080000000  0.4386710000000 1.0
C      1  0.5241160000000  0.4888550000000  0.4736640000000 1.0
C      1  0.4775180000000  0.4857600000000  0.5184800000000 1.0
C      1  0.4876550000000  0.5297630000000  0.4858870000000 1.0
C      1  0.5454290000000  0.5693160000000  0.4426930000000 1.0
C      1  0.5227570000000  0.4717600000000  0.5186550000000 1.0
C      1  0.4375450000000  0.4430220000000  0.4962030000000 1.0
C      1  0.5796700000000  0.4623840000000  0.5238200000000 1.0
C      1  0.5139510000000  0.4616360000000  0.5787190000000 1.0
C      1  0.4742140000000  0.4397570000000  0.4102020000000 1.0
C      1  0.5107740000000  0.4237500000000  0.5470530000000 1.0
C      1  0.5174670000000  0.4564030000000  0.4266440000000 1.0
C      1  0.5230680000000  0.4963700000000  0.5294260000000 1.0
C      1  0.4689790000000  0.5078510000000  0.4757020000000 1.0
C      1  0.5047650000000  0.4876520000000  0.5863550000000 1.0
C      1  0.4775970000000  0.5731610000000  0.5259440000000 1.0
C      1  0.4786950000000  0.5180910000000  0.5599980000000 1.0
C      1  0.4343820000000  0.5448800000000  0.5580300000000 1.0
C      1  0.5484820000000  0.5232350000000  0.4267070000000 1.0
C      1  0.4787070000000  0.4950060000000  0.5783470000000 1.0
C      1  0.5207620000000  0.5745370000000  0.4315880000000 1.0
C      1  0.5728280000000  0.4842340000000  0.4438940000000 1.0
C      1  0.5633860000000  0.5088210000000  0.5594340000000 1.0
C      1  0.4484570000000  0.5193420000000  0.5482440000000 1.0
C      1  0.5418180000000  0.4616160000000  0.5758660000000 1.0
C      1  0.3945850000000  0.5045890000000  0.5065080000000 1.0
C      1  0.5624460000000  0.4812640000000  0.5666540000000 1.0
C      1  0.4739620000000  0.3927470000000  0.5324190000000 1.0
C      1  0.4490590000000  0.5803250000000  0.5215680000000 1.0
C      1  0.5401840000000  0.4337860000000  0.4693930000000 1.0
C      1  0.4228470000000  0.4807640000000  0.4573430000000 1.0
C      1  0.5535580000000  0.4411950000000  0.5590150000000 1.0
C      1  0.4747740000000  0.5433660000000  0.5106300000000 1.0
END
