TITL C-22835-2324-7 0.00710623826164106 125000 -170.072962922081 0 0 26 (C1) n - 1
REM
REM in /rds/project/t2_vol4/rds-t2-cs072/BORA/CARBON/from-Arr/AIRSS/Generating-Clusters/GAP-ML-2020/Only-C1/SD-CG/HFTN-CG
REM
REM
REM
REM
REM
REM ./C.cell (11c1c37f851c82e70ff6c80c92926a4b)
REM AIRSS Version 0.9.1 bugfix July 2018 build 013d7b7c2542+ Fri, 06 Jul 2018 19:26:36 +0100
REM compiler GCC version 9.3.0
REM options -cpp -mtune=generic -march=x86-64 -g -O0
REM seed -1744304914 -728574769 -1652349586 1405891568 255884987 2144619695 -1999844492 489193495 1963370501 -167072168 -1435881679 783384891 745076919 1658461988 -1964424857 -654654461 -982601256 828066944 -1806041633 -1848170590 2059412908 -421744605 1371086034 230136219 1185147408 -1559828970 -87018334 -367595181 -1595238444 330836720 767242754 1646896804 -40863262
REM
CELL 1.54180   50.00000   50.00000   50.00000   90.00000   90.00000   90.00000
LATT -1
SFAC C  
C      1  0.4965070000000  0.5187140000000  0.5333460000000 1.0
C      1  0.4553350000000  0.5032050000000  0.5058860000000 1.0
C      1  0.4714430000000  0.5659660000000  0.5072570000000 1.0
C      1  0.4995830000000  0.5042630000000  0.4547030000000 1.0
C      1  0.4667280000000  0.5597960000000  0.5327220000000 1.0
C      1  0.5649070000000  0.4492650000000  0.4890830000000 1.0
C      1  0.4676580000000  0.4549700000000  0.4900190000000 1.0
C      1  0.4792620000000  0.5500790000000  0.4862460000000 1.0
C      1  0.5286780000000  0.4822890000000  0.5426880000000 1.0
C      1  0.5564750000000  0.4619160000000  0.5096030000000 1.0
C      1  0.5191940000000  0.4922920000000  0.4976380000000 1.0
C      1  0.4839270000000  0.4362830000000  0.4948760000000 1.0
C      1  0.5362180000000  0.4790670000000  0.5164530000000 1.0
C      1  0.4502040000000  0.5128200000000  0.5304770000000 1.0
C      1  0.5097730000000  0.5025940000000  0.5508780000000 1.0
C      1  0.5163280000000  0.4801110000000  0.5672340000000 1.0
C      1  0.4775950000000  0.5201770000000  0.4907060000000 1.0
C      1  0.5014250000000  0.5114870000000  0.5070880000000 1.0
C      1  0.5023550000000  0.5321340000000  0.4490250000000 1.0
C      1  0.4750340000000  0.5007440000000  0.4684160000000 1.0
C      1  0.4617330000000  0.4815990000000  0.4859770000000 1.0
C      1  0.4951020000000  0.5521680000000  0.4630040000000 1.0
C      1  0.5383590000000  0.4720230000000  0.4580380000000 1.0
C      1  0.5563000000000  0.4548500000000  0.4635780000000 1.0
C      1  0.5198360000000  0.4888150000000  0.4690870000000 1.0
C      1  0.4700410000000  0.5323730000000  0.5359750000000 1.0
END
