TITL C-22566-8184-1 0.0115609717176305 125000 -151.181423997211 0 0 23 (C1) n - 1
REM
REM in /rds/project/t2_vol4/rds-t2-cs072/BORA/CARBON/from-Arr/AIRSS/Generating-Clusters/GAP-ML-2020/Only-C1/SD-CG/HFTN-CG
REM
REM
REM
REM
REM
REM ./C.cell (11c1c37f851c82e70ff6c80c92926a4b)
REM AIRSS Version 0.9.1 bugfix July 2018 build 013d7b7c2542+ Fri, 06 Jul 2018 19:26:36 +0100
REM compiler GCC version 9.3.0
REM options -cpp -mtune=generic -march=x86-64 -g -O0
REM seed 505665202 2026160508 1423525900 -626558249 1232952306 1482199309 -412831182 -1911106507 -468005830 -32034862 -2031176088 -1595804705 -1691134394 -1629202448 -2040097478 -1216400973 226184445 -366623809 -938625592 803500890 369777741 545747534 -1598111460 1886550562 -1087676301 115046164 1809772174 -1039201567 305296348 -1449820750 -1900003229 -1929059332 -1865924718
REM
CELL 1.54180   50.00000   50.00000   50.00000   90.00000   90.00000   90.00000
LATT -1
SFAC C  
C      1  0.5352050000000  0.5597140000000  0.4954820000000 1.0
C      1  0.5249440000000  0.4692180000000  0.4842160000000 1.0
C      1  0.5412390000000  0.5329590000000  0.4878440000000 1.0
C      1  0.4584700000000  0.5239300000000  0.5204720000000 1.0
C      1  0.5113790000000  0.5681580000000  0.4987370000000 1.0
C      1  0.4777890000000  0.4565430000000  0.5001570000000 1.0
C      1  0.4712490000000  0.5184420000000  0.4624840000000 1.0
C      1  0.4568250000000  0.4958190000000  0.5207200000000 1.0
C      1  0.4894120000000  0.5516940000000  0.4926370000000 1.0
C      1  0.4699610000000  0.5437860000000  0.5112790000000 1.0
C      1  0.4940020000000  0.5325700000000  0.4721330000000 1.0
C      1  0.4687290000000  0.4958500000000  0.4732430000000 1.0
C      1  0.5481900000000  0.4719370000000  0.4995390000000 1.0
C      1  0.4710540000000  0.4594750000000  0.5499800000000 1.0
C      1  0.5632870000000  0.4922900000000  0.5050300000000 1.0
C      1  0.5090920000000  0.4390520000000  0.5207850000000 1.0
C      1  0.5195300000000  0.5188150000000  0.4725080000000 1.0
C      1  0.5606130000000  0.5176460000000  0.4999580000000 1.0
C      1  0.5183960000000  0.4914550000000  0.4695360000000 1.0
C      1  0.4822130000000  0.4473520000000  0.5277880000000 1.0
C      1  0.5055020000000  0.4504660000000  0.4947760000000 1.0
C      1  0.4646640000000  0.4814810000000  0.4963440000000 1.0
C      1  0.4582550000000  0.4813460000000  0.5443520000000 1.0
END
