TITL C-22869-8291-5 -0.623509231060378 125000 -215.785282599928 0 0 33 (C1) n - 1
REM
REM in /rds/project/t2_vol4/rds-t2-cs072/BORA/CARBON/from-Arr/AIRSS/Generating-Clusters/GAP-ML-2020/Only-C1/SD-CG/HFTN-CG
REM
REM
REM
REM
REM
REM ./C.cell (11c1c37f851c82e70ff6c80c92926a4b)
REM AIRSS Version 0.9.1 bugfix July 2018 build 013d7b7c2542+ Fri, 06 Jul 2018 19:26:36 +0100
REM compiler GCC version 9.3.0
REM options -cpp -mtune=generic -march=x86-64 -g -O0
REM seed -468647144 -1111338716 -959215971 -1532799902 -1224197991 2076767172 1807838308 -1942120061 1776724956 -914900622 -1528863417 593620011 243211769 1171150789 2136208304 -1026692331 -625225870 -1492804011 -1756262457 946898912 -192560506 516217060 1278746718 1245718813 -1708780647 -124064184 -875556546 -1190856815 919299819 -2063343000 512189529 -755966608 -1715149210
REM
CELL 1.54180   50.00000   50.00000   50.00000   90.00000   90.00000   90.00000
LATT -1
SFAC C  
C      1  0.4972220000000  0.5477710000000  0.5293690000000 1.0
C      1  0.4673820000000  0.5543190000000  0.4831990000000 1.0
C      1  0.5085870000000  0.4410010000000  0.4802940000000 1.0
C      1  0.4858170000000  0.4895250000000  0.4721920000000 1.0
C      1  0.5023360000000  0.4758570000000  0.5458360000000 1.0
C      1  0.5409730000000  0.5019050000000  0.4684140000000 1.0
C      1  0.4660890000000  0.4933460000000  0.5268570000000 1.0
C      1  0.4932200000000  0.5143320000000  0.4619980000000 1.0
C      1  0.5082290000000  0.5662500000000  0.5111890000000 1.0
C      1  0.5164790000000  0.5474740000000  0.4689730000000 1.0
C      1  0.4495390000000  0.5540320000000  0.5013140000000 1.0
C      1  0.5588500000000  0.4830540000000  0.5100780000000 1.0
C      1  0.4527190000000  0.5396630000000  0.5261030000000 1.0
C      1  0.4946810000000  0.4506140000000  0.5288880000000 1.0
C      1  0.4805960000000  0.4443370000000  0.4748510000000 1.0
C      1  0.5213220000000  0.5204280000000  0.4596770000000 1.0
C      1  0.5261590000000  0.5520790000000  0.4948590000000 1.0
C      1  0.5381880000000  0.4760870000000  0.4587710000000 1.0
C      1  0.5147250000000  0.4550740000000  0.5054040000000 1.0
C      1  0.5331250000000  0.5265390000000  0.5088050000000 1.0
C      1  0.4970210000000  0.4807980000000  0.5001620000000 1.0
C      1  0.4885210000000  0.4659780000000  0.4569370000000 1.0
C      1  0.5114500000000  0.5225330000000  0.5264900000000 1.0
C      1  0.4610380000000  0.4483630000000  0.4933660000000 1.0
C      1  0.4866770000000  0.5423850000000  0.4686300000000 1.0
C      1  0.4715170000000  0.4641620000000  0.5138630000000 1.0
C      1  0.4473920000000  0.5117300000000  0.5295730000000 1.0
C      1  0.4972610000000  0.4972700000000  0.5264420000000 1.0
C      1  0.5483260000000  0.5060100000000  0.4962530000000 1.0
C      1  0.5171620000000  0.4605710000000  0.4600760000000 1.0
C      1  0.4731940000000  0.5497950000000  0.5418380000000 1.0
C      1  0.5018630000000  0.4526960000000  0.5563360000000 1.0
C      1  0.5423410000000  0.4640230000000  0.5129610000000 1.0
END
