TITL C-22546-8191-6 -0.177008961986783 125000 -1023.02419639343 0 0 146 (C1) n - 1
REM
REM in /rds/project/t2_vol4/rds-t2-cs072/BORA/CARBON/from-Arr/AIRSS/Generating-Clusters/GAP-ML-2020/Only-C1/SD-CG/HFTN-CG
REM
REM
REM
REM
REM
REM ./C.cell (11c1c37f851c82e70ff6c80c92926a4b)
REM AIRSS Version 0.9.1 bugfix July 2018 build 013d7b7c2542+ Fri, 06 Jul 2018 19:26:36 +0100
REM compiler GCC version 9.3.0
REM options -cpp -mtune=generic -march=x86-64 -g -O0
REM seed -826617513 -1038427399 -335638914 942907887 2125845471 -913602463 1089333886 680813117 2088514449 1833136415 1792723270 -789371612 -531554893 1624261355 -1769443432 -1686422539 -995598295 -1974312216 1330438749 -783900139 802318215 2035815219 -335891217 -1130132574 -672536007 -1583120853 1201086977 -491666110 -615130466 1473965113 1799075507 329768714 -1534094636
REM
CELL 1.54180   50.00000   50.00000   50.00000   90.00000   90.00000   90.00000
LATT -1
SFAC C  
C      1  0.4812430000000  0.4305610000000  0.4892430000000 1.0
C      1  0.4010290000000  0.5067790000000  0.5021300000000 1.0
C      1  0.5217980000000  0.5923380000000  0.4873360000000 1.0
C      1  0.4758080000000  0.4742970000000  0.5274710000000 1.0
C      1  0.4756860000000  0.6103250000000  0.4955270000000 1.0
C      1  0.4787690000000  0.4722230000000  0.5884190000000 1.0
C      1  0.4716280000000  0.4012360000000  0.4574510000000 1.0
C      1  0.5172710000000  0.4302110000000  0.5798410000000 1.0
C      1  0.5154100000000  0.5117370000000  0.4442510000000 1.0
C      1  0.4693060000000  0.5988430000000  0.4694640000000 1.0
C      1  0.5953320000000  0.4873920000000  0.4778670000000 1.0
C      1  0.5070430000000  0.5784180000000  0.4332400000000 1.0
C      1  0.5542060000000  0.5401580000000  0.4182850000000 1.0
C      1  0.5812260000000  0.4564420000000  0.5485410000000 1.0
C      1  0.4596620000000  0.5253160000000  0.4169570000000 1.0
C      1  0.5238580000000  0.4579080000000  0.5836450000000 1.0
C      1  0.5392420000000  0.5047950000000  0.4904320000000 1.0
C      1  0.4827390000000  0.5280780000000  0.6053970000000 1.0
C      1  0.4682740000000  0.5533720000000  0.5584390000000 1.0
C      1  0.4762720000000  0.5065910000000  0.4925270000000 1.0
C      1  0.5071510000000  0.4856990000000  0.4581330000000 1.0
C      1  0.5257210000000  0.4529520000000  0.4882180000000 1.0
C      1  0.3994360000000  0.4789920000000  0.5047340000000 1.0
C      1  0.4828050000000  0.5389280000000  0.4058690000000 1.0
C      1  0.4061230000000  0.4660950000000  0.4801730000000 1.0
C      1  0.4502120000000  0.5148880000000  0.5315450000000 1.0
C      1  0.5021680000000  0.6085140000000  0.5040000000000 1.0
C      1  0.5500400000000  0.4377410000000  0.4466950000000 1.0
C      1  0.5699700000000  0.4384570000000  0.5130180000000 1.0
C      1  0.4256770000000  0.5125350000000  0.4866820000000 1.0
C      1  0.5187440000000  0.4983220000000  0.5682940000000 1.0
C      1  0.5784250000000  0.4667700000000  0.5198060000000 1.0
C      1  0.5064820000000  0.4585540000000  0.4165060000000 1.0
C      1  0.4345260000000  0.4760020000000  0.5714090000000 1.0
C      1  0.5051480000000  0.4012790000000  0.5269180000000 1.0
C      1  0.4094650000000  0.4786500000000  0.4538630000000 1.0
C      1  0.4804480000000  0.5024790000000  0.4645450000000 1.0
C      1  0.5740080000000  0.4299450000000  0.5410120000000 1.0
C      1  0.4572840000000  0.4226030000000  0.4500870000000 1.0
C      1  0.4272060000000  0.5024430000000  0.4578500000000 1.0
C      1  0.5354540000000  0.5236230000000  0.5681370000000 1.0
C      1  0.4859650000000  0.5784150000000  0.4547320000000 1.0
C      1  0.5392930000000  0.5248910000000  0.4514000000000 1.0
C      1  0.5226460000000  0.5471230000000  0.5809400000000 1.0
C      1  0.5536850000000  0.5654670000000  0.5485880000000 1.0
C      1  0.4091120000000  0.4689960000000  0.5299180000000 1.0
C      1  0.5878010000000  0.5246650000000  0.5397470000000 1.0
C      1  0.5417420000000  0.5909070000000  0.4663070000000 1.0
C      1  0.5069010000000  0.5243170000000  0.5285780000000 1.0
C      1  0.5308790000000  0.4646470000000  0.5336970000000 1.0
C      1  0.5128820000000  0.5976080000000  0.5285070000000 1.0
C      1  0.4326010000000  0.5595570000000  0.5337400000000 1.0
C      1  0.5640870000000  0.5248890000000  0.5724250000000 1.0
C      1  0.5428170000000  0.4066270000000  0.4922970000000 1.0
C      1  0.5005090000000  0.5596810000000  0.4130090000000 1.0
C      1  0.5520990000000  0.4117730000000  0.5476340000000 1.0
C      1  0.5271430000000  0.5695460000000  0.5638570000000 1.0
C      1  0.5271000000000  0.4819060000000  0.4793850000000 1.0
C      1  0.5334600000000  0.4112370000000  0.5219910000000 1.0
C      1  0.4707640000000  0.4461970000000  0.5802180000000 1.0
C      1  0.5455340000000  0.5600260000000  0.5206480000000 1.0
C      1  0.4195650000000  0.5160870000000  0.5444630000000 1.0
C      1  0.5518590000000  0.5092540000000  0.5159880000000 1.0
C      1  0.4324760000000  0.4339970000000  0.5034680000000 1.0
C      1  0.4205960000000  0.4574440000000  0.4385980000000 1.0
C      1  0.4278860000000  0.5427080000000  0.4826340000000 1.0
C      1  0.5678330000000  0.5213720000000  0.4364720000000 1.0
C      1  0.4853500000000  0.4115800000000  0.5464650000000 1.0
C      1  0.4487830000000  0.5041700000000  0.5042040000000 1.0
C      1  0.5922500000000  0.5173540000000  0.4788170000000 1.0
C      1  0.5018510000000  0.4544900000000  0.4475770000000 1.0
C      1  0.5565820000000  0.5654410000000  0.4310920000000 1.0
C      1  0.5218300000000  0.4093950000000  0.4732380000000 1.0
C      1  0.5557540000000  0.5536500000000  0.4945700000000 1.0
C      1  0.4974390000000  0.5080080000000  0.5492310000000 1.0
C      1  0.5385420000000  0.4148950000000  0.5706160000000 1.0
C      1  0.5330840000000  0.4688580000000  0.4108640000000 1.0
C      1  0.5009700000000  0.4483560000000  0.5013650000000 1.0
C      1  0.4599240000000  0.5197860000000  0.5907420000000 1.0
C      1  0.4576730000000  0.4220150000000  0.5068130000000 1.0
C      1  0.4855540000000  0.4647340000000  0.4000010000000 1.0
C      1  0.5747670000000  0.4721720000000  0.4335290000000 1.0
C      1  0.4485720000000  0.5855030000000  0.4835770000000 1.0
C      1  0.5083190000000  0.5415050000000  0.4800700000000 1.0
C      1  0.4160250000000  0.5494110000000  0.5113640000000 1.0
C      1  0.4267280000000  0.5320770000000  0.4528410000000 1.0
C      1  0.4485020000000  0.5411120000000  0.4377030000000 1.0
C      1  0.5855970000000  0.5341230000000  0.4566620000000 1.0
C      1  0.4256260000000  0.5413150000000  0.5584370000000 1.0
C      1  0.5535740000000  0.4550720000000  0.4252190000000 1.0
C      1  0.5333690000000  0.5850750000000  0.5139640000000 1.0
C      1  0.4935510000000  0.4030820000000  0.4790570000000 1.0
C      1  0.5948760000000  0.4862270000000  0.5061260000000 1.0
C      1  0.5370540000000  0.5321340000000  0.4793660000000 1.0
C      1  0.5699330000000  0.4778180000000  0.5640730000000 1.0
C      1  0.5052540000000  0.5706590000000  0.4756850000000 1.0
C      1  0.5751080000000  0.5611280000000  0.4535670000000 1.0
C      1  0.4541980000000  0.5566970000000  0.4817380000000 1.0
C      1  0.4390410000000  0.4325150000000  0.5479710000000 1.0
C      1  0.5013050000000  0.4635130000000  0.5251530000000 1.0
C      1  0.4486430000000  0.5408210000000  0.5750670000000 1.0
C      1  0.4563440000000  0.4969340000000  0.4209800000000 1.0
C      1  0.4550400000000  0.4903910000000  0.4524250000000 1.0
C      1  0.5356880000000  0.5241500000000  0.4017080000000 1.0
C      1  0.5040410000000  0.5853010000000  0.5523760000000 1.0
C      1  0.4440370000000  0.4487670000000  0.5702060000000 1.0
C      1  0.4306280000000  0.4352280000000  0.4509460000000 1.0
C      1  0.4034330000000  0.5260010000000  0.5220810000000 1.0
C      1  0.4705460000000  0.4972500000000  0.5465190000000 1.0
C      1  0.4946380000000  0.3896560000000  0.5047720000000 1.0
C      1  0.5435890000000  0.4960350000000  0.4067330000000 1.0
C      1  0.4898000000000  0.4261960000000  0.5712200000000 1.0
C      1  0.5734230000000  0.5456710000000  0.5543980000000 1.0
C      1  0.4167800000000  0.4866630000000  0.5516550000000 1.0
C      1  0.5671580000000  0.4231800000000  0.4883750000000 1.0
C      1  0.5347770000000  0.5290530000000  0.5320920000000 1.0
C      1  0.4649840000000  0.4797680000000  0.4012070000000 1.0
C      1  0.4286880000000  0.4477710000000  0.4789660000000 1.0
C      1  0.4922290000000  0.5307860000000  0.5035930000000 1.0
C      1  0.4748690000000  0.5800660000000  0.5524560000000 1.0
C      1  0.4723030000000  0.5512760000000  0.5067600000000 1.0
C      1  0.5677850000000  0.4966870000000  0.4221160000000 1.0
C      1  0.4688580000000  0.5525970000000  0.4553930000000 1.0
C      1  0.4561830000000  0.4662650000000  0.4728400000000 1.0
C      1  0.4506380000000  0.5858040000000  0.5346140000000 1.0
C      1  0.5350930000000  0.5832300000000  0.4394190000000 1.0
C      1  0.4751530000000  0.4451660000000  0.4627120000000 1.0
C      1  0.5242170000000  0.4363600000000  0.4602330000000 1.0
C      1  0.5799460000000  0.5040370000000  0.5610730000000 1.0
C      1  0.5853500000000  0.5145930000000  0.5111920000000 1.0
C      1  0.4929600000000  0.5290010000000  0.4569990000000 1.0
C      1  0.5518350000000  0.4822260000000  0.5232360000000 1.0
C      1  0.5848420000000  0.4658270000000  0.4597550000000 1.0
C      1  0.4633900000000  0.4800950000000  0.5011110000000 1.0
C      1  0.5059780000000  0.4789000000000  0.5885100000000 1.0
C      1  0.4219940000000  0.4435320000000  0.5279300000000 1.0
C      1  0.5381140000000  0.4733650000000  0.5625280000000 1.0
C      1  0.5394830000000  0.4414920000000  0.5156330000000 1.0
C      1  0.5716880000000  0.4398220000000  0.4655380000000 1.0
C      1  0.5037420000000  0.5418700000000  0.6013060000000 1.0
C      1  0.4588600000000  0.4918710000000  0.5786970000000 1.0
C      1  0.5103910000000  0.5373880000000  0.3984180000000 1.0
C      1  0.4603410000000  0.4173510000000  0.5348660000000 1.0
C      1  0.4580290000000  0.5436560000000  0.5313010000000 1.0
C      1  0.5637760000000  0.5743960000000  0.4755180000000 1.0
C      1  0.4532050000000  0.5978050000000  0.5096330000000 1.0
END
