TITL C-22542-8323-7 201.774921204545 125000 -644.125297739924 0 0 92 (C1) n - 1
REM
REM in /rds/project/t2_vol4/rds-t2-cs072/BORA/CARBON/from-Arr/AIRSS/Generating-Clusters/GAP-ML-2020/Only-C1/SD-CG/HFTN-CG
REM
REM
REM
REM
REM
REM ./C.cell (11c1c37f851c82e70ff6c80c92926a4b)
REM AIRSS Version 0.9.1 bugfix July 2018 build 013d7b7c2542+ Fri, 06 Jul 2018 19:26:36 +0100
REM compiler GCC version 9.3.0
REM options -cpp -mtune=generic -march=x86-64 -g -O0
REM seed -938755848 -1554024116 -656064994 -1968803802 -500475764 -2058602095 -1265502423 171679526 833019985 -1363829591 -711426642 -1516389862 -138123634 1966469307 1965713455 551067380 -1507517046 1843116322 -517063423 1462758417 -1734965782 -781289949 -343167800 -1434236992 -1245983259 -1726803751 -1561592183 -1888414392 -1854090343 319292018 92714183 150558147 956835587
REM
CELL 1.54180   50.00000   50.00000   50.00000   90.00000   90.00000   90.00000
LATT -1
SFAC C  
C      1  0.5166130000000  0.5649670000000  0.5248860000000 1.0
C      1  0.5705450000000  0.4692980000000  0.4602390000000 1.0
C      1  0.4820610000000  0.5008210000000  0.5872880000000 1.0
C      1  0.5798840000000  0.4897480000000  0.4775950000000 1.0
C      1  0.4206410000000  0.5161150000000  0.5233490000000 1.0
C      1  0.5331970000000  0.5710240000000  0.4611160000000 1.0
C      1  0.5019870000000  0.5416580000000  0.4790290000000 1.0
C      1  0.4529380000000  0.5728380000000  0.4901130000000 1.0
C      1  0.5444470000000  0.4225120000000  0.5131500000000 1.0
C      1  0.5046630000000  0.4667880000000  0.4223780000000 1.0
C      1  0.5792330000000  0.5238640000000  0.5100370000000 1.0
C      1  0.4627080000000  0.4846970000000  0.4201140000000 1.0
C      1  0.5244550000000  0.4154100000000  0.4960840000000 1.0
C      1  0.5097120000000  0.4735990000000  0.4722270000000 1.0
C      1  0.4400880000000  0.4716690000000  0.4749370000000 1.0
C      1  0.4387670000000  0.4690440000000  0.5303380000000 1.0
C      1  0.4774600000000  0.4048480000000  0.5068460000000 1.0
C      1  0.5420870000000  0.5532860000000  0.5384850000000 1.0
C      1  0.5160170000000  0.5387270000000  0.4184660000000 1.0
C      1  0.4816170000000  0.4700880000000  0.5477890000000 1.0
C      1  0.5732640000000  0.5187910000000  0.4798440000000 1.0
C      1  0.5553530000000  0.5293460000000  0.5284860000000 1.0
C      1  0.5456680000000  0.4566420000000  0.5505740000000 1.0
C      1  0.5442040000000  0.5274420000000  0.4816840000000 1.0
C      1  0.4366650000000  0.5222350000000  0.4512610000000 1.0
C      1  0.5642580000000  0.5436180000000  0.4372670000000 1.0
C      1  0.4769290000000  0.4438180000000  0.5373250000000 1.0
C      1  0.4556720000000  0.5047440000000  0.4390660000000 1.0
C      1  0.4528040000000  0.5451350000000  0.4570860000000 1.0
C      1  0.5659750000000  0.4447820000000  0.4764900000000 1.0
C      1  0.4612960000000  0.4262460000000  0.4983190000000 1.0
C      1  0.5474660000000  0.4634140000000  0.4442520000000 1.0
C      1  0.5434420000000  0.4371440000000  0.4591750000000 1.0
C      1  0.5291610000000  0.4987960000000  0.5768140000000 1.0
C      1  0.5198230000000  0.5268020000000  0.5780210000000 1.0
C      1  0.5193700000000  0.4457010000000  0.5554210000000 1.0
C      1  0.5057730000000  0.5148060000000  0.4136760000000 1.0
C      1  0.4523320000000  0.5713370000000  0.4621340000000 1.0
C      1  0.5195190000000  0.4235350000000  0.4679290000000 1.0
C      1  0.4495670000000  0.4511850000000  0.4572340000000 1.0
C      1  0.5570140000000  0.4425160000000  0.5270930000000 1.0
C      1  0.4851290000000  0.5177960000000  0.5197660000000 1.0
C      1  0.4544090000000  0.4444310000000  0.5208640000000 1.0
C      1  0.4928100000000  0.4294390000000  0.4565010000000 1.0
C      1  0.4884600000000  0.4456410000000  0.4323480000000 1.0
C      1  0.4317740000000  0.5330460000000  0.5445300000000 1.0
C      1  0.4846260000000  0.4835320000000  0.4716780000000 1.0
C      1  0.4739740000000  0.5801220000000  0.5093480000000 1.0
C      1  0.4968600000000  0.4943540000000  0.5306000000000 1.0
C      1  0.5200920000000  0.4914790000000  0.5143970000000 1.0
C      1  0.5651260000000  0.5038670000000  0.5448770000000 1.0
C      1  0.4710500000000  0.5433390000000  0.5734610000000 1.0
C      1  0.4755730000000  0.5296220000000  0.4728100000000 1.0
C      1  0.4564870000000  0.4992920000000  0.5728360000000 1.0
C      1  0.4389890000000  0.5578000000000  0.5318440000000 1.0
C      1  0.4666780000000  0.5132640000000  0.4981860000000 1.0
C      1  0.4665950000000  0.4320350000000  0.4703480000000 1.0
C      1  0.5072560000000  0.5359620000000  0.5093140000000 1.0
C      1  0.5028350000000  0.5808790000000  0.5041460000000 1.0
C      1  0.5199380000000  0.4718760000000  0.4967840000000 1.0
C      1  0.4898680000000  0.4883730000000  0.4096630000000 1.0
C      1  0.5348890000000  0.5493660000000  0.4397220000000 1.0
C      1  0.5232000000000  0.5284520000000  0.4607520000000 1.0
C      1  0.5453570000000  0.5582220000000  0.4826640000000 1.0
C      1  0.5058910000000  0.4838280000000  0.5854180000000 1.0
C      1  0.4214980000000  0.5151920000000  0.4755100000000 1.0
C      1  0.5497020000000  0.4856140000000  0.5603940000000 1.0
C      1  0.4647700000000  0.4842780000000  0.4907620000000 1.0
C      1  0.5220910000000  0.4781640000000  0.4434220000000 1.0
C      1  0.5117400000000  0.5078790000000  0.4428070000000 1.0
C      1  0.5792970000000  0.5352860000000  0.4556430000000 1.0
C      1  0.5268870000000  0.5501290000000  0.5629420000000 1.0
C      1  0.4915170000000  0.5271210000000  0.5854380000000 1.0
C      1  0.4209530000000  0.5321110000000  0.4986160000000 1.0
C      1  0.4217720000000  0.4881630000000  0.5155260000000 1.0
C      1  0.5722190000000  0.4517570000000  0.5040880000000 1.0
C      1  0.5838880000000  0.4780670000000  0.5033950000000 1.0
C      1  0.5836640000000  0.4987210000000  0.5233320000000 1.0
C      1  0.5061700000000  0.5670460000000  0.5525620000000 1.0
C      1  0.5011590000000  0.4623960000000  0.5691170000000 1.0
C      1  0.4536020000000  0.4785620000000  0.5536390000000 1.0
C      1  0.5015620000000  0.4301570000000  0.5376000000000 1.0
C      1  0.4487590000000  0.5265500000000  0.5667380000000 1.0
C      1  0.4790410000000  0.5656670000000  0.5576860000000 1.0
C      1  0.4817080000000  0.5064480000000  0.4548830000000 1.0
C      1  0.5030830000000  0.4122470000000  0.5152170000000 1.0
C      1  0.4203200000000  0.4880230000000  0.4859690000000 1.0
C      1  0.4328800000000  0.5572830000000  0.5044380000000 1.0
C      1  0.5115580000000  0.5697370000000  0.4789020000000 1.0
C      1  0.5320040000000  0.5188120000000  0.5078280000000 1.0
C      1  0.4622750000000  0.4574920000000  0.4321060000000 1.0
C      1  0.4633430000000  0.5720470000000  0.5349710000000 1.0
END
