TITL C-22853-8338-6 -0.359675055265635 125000 -727.241594337481 0 0 104 (C1) n - 1
REM
REM in /rds/project/t2_vol4/rds-t2-cs072/BORA/CARBON/from-Arr/AIRSS/Generating-Clusters/GAP-ML-2020/Only-C1/SD-CG/HFTN-CG
REM
REM
REM
REM
REM
REM ./C.cell (11c1c37f851c82e70ff6c80c92926a4b)
REM AIRSS Version 0.9.1 bugfix July 2018 build 013d7b7c2542+ Fri, 06 Jul 2018 19:26:36 +0100
REM compiler GCC version 9.3.0
REM options -cpp -mtune=generic -march=x86-64 -g -O0
REM seed 2119819265 91752872 1850567541 -2074811458 1915521115 -306238986 1490852102 1215788801 -304455220 445454291 67877766 1985901594 1138778061 -329383302 542622779 1037987997 700011845 584586729 -2110010001 -1544923754 64272872 -28154561 544291158 1872419137 431625221 -116504092 -1769387925 -2103742232 843695381 1554840028 13933750 1789761045 -50930007
REM
CELL 1.54180   50.00000   50.00000   50.00000   90.00000   90.00000   90.00000
LATT -1
SFAC C  
C      1  0.4370270000000  0.5284450000000  0.4421520000000 1.0
C      1  0.4845550000000  0.5902390000000  0.5297490000000 1.0
C      1  0.5183310000000  0.5375890000000  0.5238720000000 1.0
C      1  0.4720430000000  0.4368510000000  0.4457960000000 1.0
C      1  0.4816780000000  0.4251870000000  0.5438000000000 1.0
C      1  0.4615320000000  0.5809040000000  0.5161390000000 1.0
C      1  0.4848600000000  0.5801670000000  0.4712790000000 1.0
C      1  0.4957180000000  0.4894160000000  0.4645240000000 1.0
C      1  0.5905450000000  0.5144810000000  0.5289800000000 1.0
C      1  0.4170870000000  0.5277520000000  0.5109320000000 1.0
C      1  0.5240730000000  0.4739930000000  0.5806270000000 1.0
C      1  0.4069580000000  0.4641500000000  0.5081260000000 1.0
C      1  0.5882530000000  0.4899160000000  0.5143850000000 1.0
C      1  0.5845720000000  0.4604790000000  0.4775030000000 1.0
C      1  0.5075140000000  0.5940480000000  0.5135700000000 1.0
C      1  0.5470170000000  0.4422270000000  0.4465450000000 1.0
C      1  0.4987810000000  0.4414870000000  0.4328800000000 1.0
C      1  0.4940010000000  0.5817170000000  0.5553180000000 1.0
C      1  0.4384100000000  0.5188510000000  0.5532300000000 1.0
C      1  0.5403560000000  0.5613790000000  0.4574600000000 1.0
C      1  0.5303050000000  0.5858050000000  0.5290110000000 1.0
C      1  0.4817990000000  0.4747840000000  0.4843100000000 1.0
C      1  0.4447610000000  0.5472820000000  0.5519900000000 1.0
C      1  0.5659310000000  0.5131910000000  0.4477240000000 1.0
C      1  0.5294970000000  0.5259900000000  0.5740310000000 1.0
C      1  0.5269000000000  0.4165110000000  0.4912970000000 1.0
C      1  0.4463000000000  0.5015650000000  0.4812380000000 1.0
C      1  0.4706970000000  0.5170230000000  0.5002170000000 1.0
C      1  0.4525450000000  0.4736830000000  0.4892510000000 1.0
C      1  0.4447050000000  0.5336550000000  0.4166860000000 1.0
C      1  0.5629280000000  0.4839440000000  0.5312360000000 1.0
C      1  0.5037530000000  0.4096970000000  0.5055410000000 1.0
C      1  0.5169290000000  0.5360940000000  0.4947060000000 1.0
C      1  0.4652590000000  0.4274690000000  0.4730450000000 1.0
C      1  0.4599520000000  0.5782890000000  0.4870490000000 1.0
C      1  0.5353540000000  0.5114440000000  0.4907140000000 1.0
C      1  0.5519060000000  0.4265450000000  0.4998760000000 1.0
C      1  0.5253610000000  0.4908450000000  0.4688300000000 1.0
C      1  0.5406250000000  0.4649530000000  0.4306610000000 1.0
C      1  0.4210000000000  0.4424230000000  0.4976110000000 1.0
C      1  0.5712800000000  0.5073800000000  0.5496590000000 1.0
C      1  0.4620970000000  0.5193680000000  0.4039200000000 1.0
C      1  0.5172390000000  0.4369170000000  0.4740090000000 1.0
C      1  0.4479370000000  0.4686620000000  0.5197640000000 1.0
C      1  0.5328120000000  0.4945010000000  0.5180120000000 1.0
C      1  0.5905930000000  0.4858750000000  0.4860030000000 1.0
C      1  0.5206750000000  0.4693110000000  0.5097170000000 1.0
C      1  0.5286280000000  0.5085250000000  0.4200850000000 1.0
C      1  0.4829430000000  0.4960370000000  0.5767000000000 1.0
C      1  0.4622080000000  0.5153610000000  0.5725020000000 1.0
C      1  0.4910650000000  0.5611440000000  0.4495090000000 1.0
C      1  0.5314240000000  0.4205030000000  0.5443980000000 1.0
C      1  0.5461490000000  0.5698880000000  0.5132790000000 1.0
C      1  0.4823670000000  0.5053880000000  0.4156920000000 1.0
C      1  0.4728990000000  0.4786340000000  0.5319630000000 1.0
C      1  0.5085520000000  0.5849900000000  0.4866420000000 1.0
C      1  0.4823070000000  0.5046350000000  0.5227710000000 1.0
C      1  0.4499240000000  0.5024390000000  0.4513780000000 1.0
C      1  0.4835820000000  0.4458140000000  0.5643850000000 1.0
C      1  0.4927630000000  0.4706730000000  0.5096890000000 1.0
C      1  0.5130460000000  0.5004760000000  0.5807360000000 1.0
C      1  0.5518580000000  0.5440540000000  0.5300890000000 1.0
C      1  0.4350580000000  0.5627110000000  0.4829790000000 1.0
C      1  0.4424000000000  0.4784110000000  0.4369600000000 1.0
C      1  0.5603540000000  0.4570200000000  0.5433640000000 1.0
C      1  0.5465770000000  0.4581110000000  0.5685390000000 1.0
C      1  0.5523910000000  0.4323710000000  0.5279770000000 1.0
C      1  0.5079770000000  0.4488790000000  0.5782680000000 1.0
C      1  0.4415960000000  0.5648660000000  0.5297720000000 1.0
C      1  0.4207690000000  0.4806840000000  0.5252470000000 1.0
C      1  0.4661850000000  0.5440970000000  0.5712490000000 1.0
C      1  0.5211610000000  0.4306450000000  0.4473920000000 1.0
C      1  0.5317250000000  0.5654790000000  0.4857740000000 1.0
C      1  0.5173430000000  0.5586930000000  0.4392480000000 1.0
C      1  0.4753210000000  0.4727290000000  0.5606920000000 1.0
C      1  0.5059500000000  0.4132070000000  0.5338280000000 1.0
C      1  0.4891440000000  0.5318170000000  0.4859220000000 1.0
C      1  0.4226730000000  0.5187800000000  0.4843500000000 1.0
C      1  0.5135870000000  0.4646470000000  0.4199100000000 1.0
C      1  0.5443670000000  0.4939150000000  0.4396430000000 1.0
C      1  0.5301040000000  0.4341370000000  0.5687930000000 1.0
C      1  0.4892070000000  0.5596220000000  0.5732870000000 1.0
C      1  0.5645300000000  0.5235090000000  0.4899870000000 1.0
C      1  0.4218730000000  0.5086630000000  0.5324030000000 1.0
C      1  0.5225610000000  0.5763370000000  0.5556360000000 1.0
C      1  0.4409470000000  0.4396430000000  0.5195850000000 1.0
C      1  0.4764000000000  0.4161430000000  0.4971170000000 1.0
C      1  0.5531120000000  0.5281010000000  0.5569110000000 1.0
C      1  0.5070400000000  0.4920540000000  0.4106660000000 1.0
C      1  0.5094040000000  0.5120850000000  0.5306900000000 1.0
C      1  0.4418510000000  0.4477010000000  0.4757440000000 1.0
C      1  0.4801280000000  0.5080580000000  0.4461870000000 1.0
C      1  0.5311560000000  0.5365290000000  0.4257520000000 1.0
C      1  0.4843460000000  0.5348570000000  0.4584180000000 1.0
C      1  0.5597880000000  0.4466780000000  0.4762700000000 1.0
C      1  0.4477710000000  0.4541720000000  0.4455500000000 1.0
C      1  0.5314740000000  0.4633460000000  0.4825550000000 1.0
C      1  0.4274000000000  0.5404780000000  0.4659140000000 1.0
C      1  0.5539710000000  0.5389460000000  0.4435750000000 1.0
C      1  0.5805640000000  0.5091020000000  0.4719890000000 1.0
C      1  0.4629950000000  0.4232930000000  0.5217330000000 1.0
C      1  0.4252220000000  0.5543790000000  0.5095600000000 1.0
C      1  0.5176860000000  0.5518660000000  0.5724390000000 1.0
C      1  0.5737260000000  0.5321960000000  0.5153290000000 1.0
END
