TITL C-22834-2139-1 -0.050638703135553 125000 -303.106681048087 0 0 45 (C1) n - 1
REM
REM in /rds/project/t2_vol4/rds-t2-cs072/BORA/CARBON/from-Arr/AIRSS/Generating-Clusters/GAP-ML-2020/Only-C1/SD-CG/HFTN-CG
REM
REM
REM
REM
REM
REM ./C.cell (11c1c37f851c82e70ff6c80c92926a4b)
REM AIRSS Version 0.9.1 bugfix July 2018 build 013d7b7c2542+ Fri, 06 Jul 2018 19:26:36 +0100
REM compiler GCC version 9.3.0
REM options -cpp -mtune=generic -march=x86-64 -g -O0
REM seed 1942583581 -372213072 -1870330908 1647063550 1178417070 -1025761461 -1697141892 190010027 1012522990 1510174117 1248349805 1154932545 -1982942887 1942215880 924810163 249938685 -1205406923 2136904979 46026714 -1076475561 1635174363 1774454895 -1894526716 248627717 -61636433 -1513726284 555697846 588667291 110580207 -1996921991 959137734 45406710 -300504231
REM
CELL 1.54180   50.00000   50.00000   50.00000   90.00000   90.00000   90.00000
LATT -1
SFAC C  
C      1  0.5023440000000  0.4863260000000  0.4995140000000 1.0
C      1  0.4737880000000  0.4816130000000  0.4923540000000 1.0
C      1  0.5048890000000  0.5579580000000  0.5218430000000 1.0
C      1  0.5478220000000  0.5098880000000  0.5377780000000 1.0
C      1  0.4500580000000  0.4821400000000  0.5142220000000 1.0
C      1  0.4789920000000  0.5576230000000  0.4609090000000 1.0
C      1  0.4832960000000  0.4989800000000  0.4496860000000 1.0
C      1  0.4820270000000  0.4729200000000  0.4404550000000 1.0
C      1  0.5016900000000  0.5444630000000  0.4502320000000 1.0
C      1  0.4364960000000  0.4844630000000  0.4697310000000 1.0
C      1  0.4792350000000  0.5460630000000  0.5318210000000 1.0
C      1  0.4638290000000  0.5265640000000  0.5174210000000 1.0
C      1  0.5124770000000  0.5323500000000  0.5598270000000 1.0
C      1  0.5162050000000  0.4615410000000  0.5411830000000 1.0
C      1  0.5457500000000  0.5366090000000  0.5273270000000 1.0
C      1  0.5090860000000  0.5088540000000  0.5087760000000 1.0
C      1  0.5255500000000  0.5068610000000  0.5574050000000 1.0
C      1  0.4865560000000  0.4518990000000  0.4579910000000 1.0
C      1  0.5430760000000  0.5431370000000  0.4993430000000 1.0
C      1  0.5491810000000  0.5230800000000  0.4812890000000 1.0
C      1  0.5174430000000  0.5570350000000  0.4957260000000 1.0
C      1  0.5374530000000  0.4573120000000  0.4730140000000 1.0
C      1  0.5333670000000  0.5096590000000  0.4600710000000 1.0
C      1  0.4888290000000  0.4556520000000  0.5322020000000 1.0
C      1  0.5074090000000  0.5624580000000  0.4705740000000 1.0
C      1  0.5070470000000  0.5167740000000  0.4500100000000 1.0
C      1  0.4568260000000  0.5527820000000  0.4743080000000 1.0
C      1  0.4628770000000  0.5022580000000  0.4722280000000 1.0
C      1  0.4804980000000  0.4823770000000  0.5447930000000 1.0
C      1  0.5078660000000  0.4850300000000  0.5556450000000 1.0
C      1  0.5388380000000  0.4636420000000  0.5234480000000 1.0
C      1  0.4610310000000  0.4998670000000  0.5321790000000 1.0
C      1  0.5535540000000  0.4888590000000  0.5193940000000 1.0
C      1  0.4408240000000  0.4579760000000  0.4777470000000 1.0
C      1  0.4295000000000  0.4767420000000  0.4971820000000 1.0
C      1  0.5449460000000  0.4839690000000  0.4696850000000 1.0
C      1  0.5118550000000  0.4443370000000  0.4673340000000 1.0
C      1  0.4594900000000  0.5278390000000  0.4887370000000 1.0
C      1  0.4854200000000  0.4421440000000  0.5068210000000 1.0
C      1  0.4695740000000  0.4534520000000  0.4824180000000 1.0
C      1  0.5100090000000  0.4356740000000  0.4952550000000 1.0
C      1  0.5243950000000  0.5495950000000  0.5405530000000 1.0
C      1  0.4853620000000  0.5365490000000  0.5581270000000 1.0
C      1  0.5353070000000  0.4474810000000  0.5011330000000 1.0
C      1  0.5579330000000  0.4972060000000  0.4923090000000 1.0
END
