TITL C-22850-8367-1 -13.6749128877684 125000 -689.775367849851 0 0 100 (C1) n - 1
REM
REM in /rds/project/t2_vol4/rds-t2-cs072/BORA/CARBON/from-Arr/AIRSS/Generating-Clusters/GAP-ML-2020/Only-C1/SD-CG/HFTN-CG
REM
REM
REM
REM
REM
REM ./C.cell (11c1c37f851c82e70ff6c80c92926a4b)
REM AIRSS Version 0.9.1 bugfix July 2018 build 013d7b7c2542+ Fri, 06 Jul 2018 19:26:36 +0100
REM compiler GCC version 9.3.0
REM options -cpp -mtune=generic -march=x86-64 -g -O0
REM seed -2089088185 -1236870659 -1359443085 -1125007379 1574734675 -1400210187 1506226680 287657770 2140628844 -1138168802 -1337872188 -1496142324 1214847986 -521481334 -1552260274 1807062192 980250363 1350134078 1144409416 608271126 -1804778401 -618634123 -1056636768 159338943 -874120581 -255285735 -186974490 -1364519790 -129206612 1600177630 -1119796045 2135733855 -1876163334
REM
CELL 1.54180   50.00000   50.00000   50.00000   90.00000   90.00000   90.00000
LATT -1
SFAC C  
C      1  0.5113870000000  0.4477260000000  0.5661020000000 1.0
C      1  0.4737840000000  0.4624130000000  0.4905850000000 1.0
C      1  0.5534050000000  0.4776900000000  0.4532540000000 1.0
C      1  0.4581080000000  0.4867820000000  0.5014450000000 1.0
C      1  0.4234840000000  0.5442210000000  0.5049500000000 1.0
C      1  0.5090380000000  0.5191240000000  0.5861800000000 1.0
C      1  0.4716270000000  0.4515880000000  0.4403250000000 1.0
C      1  0.4535340000000  0.4303410000000  0.5203830000000 1.0
C      1  0.4727640000000  0.5469410000000  0.5482490000000 1.0
C      1  0.4899120000000  0.4634120000000  0.4186410000000 1.0
C      1  0.5837880000000  0.4596330000000  0.4849930000000 1.0
C      1  0.5824870000000  0.4647070000000  0.5121650000000 1.0
C      1  0.4788460000000  0.5059530000000  0.4874020000000 1.0
C      1  0.4441010000000  0.4578780000000  0.4509020000000 1.0
C      1  0.5627200000000  0.5375840000000  0.5291720000000 1.0
C      1  0.4502710000000  0.5852810000000  0.5202190000000 1.0
C      1  0.5215670000000  0.5713230000000  0.5386620000000 1.0
C      1  0.5231320000000  0.4425620000000  0.4729280000000 1.0
C      1  0.5853600000000  0.4870200000000  0.5299570000000 1.0
C      1  0.4819660000000  0.4681700000000  0.4627950000000 1.0
C      1  0.4556900000000  0.5922100000000  0.4926930000000 1.0
C      1  0.5130050000000  0.5146880000000  0.4506300000000 1.0
C      1  0.5323770000000  0.5322580000000  0.4371630000000 1.0
C      1  0.5859190000000  0.5110020000000  0.5134170000000 1.0
C      1  0.5397620000000  0.5382680000000  0.5066520000000 1.0
C      1  0.5282180000000  0.4936090000000  0.4126400000000 1.0
C      1  0.5689230000000  0.5064810000000  0.4888560000000 1.0
C      1  0.4782410000000  0.4250760000000  0.5343390000000 1.0
C      1  0.4274840000000  0.4937140000000  0.4946540000000 1.0
C      1  0.5385720000000  0.5192470000000  0.4130560000000 1.0
C      1  0.4288850000000  0.5515960000000  0.4782810000000 1.0
C      1  0.4994200000000  0.4897690000000  0.4172990000000 1.0
C      1  0.5023250000000  0.4223040000000  0.4666530000000 1.0
C      1  0.4258300000000  0.5027110000000  0.4666470000000 1.0
C      1  0.5173920000000  0.5587800000000  0.5121280000000 1.0
C      1  0.4868050000000  0.4178070000000  0.4892160000000 1.0
C      1  0.5502140000000  0.5448440000000  0.4583340000000 1.0
C      1  0.4449940000000  0.5347260000000  0.4371550000000 1.0
C      1  0.4764670000000  0.5554160000000  0.4808390000000 1.0
C      1  0.4430020000000  0.4865970000000  0.4516340000000 1.0
C      1  0.5507710000000  0.5046520000000  0.5658700000000 1.0
C      1  0.5760310000000  0.4837180000000  0.4703240000000 1.0
C      1  0.4230850000000  0.5162870000000  0.5143640000000 1.0
C      1  0.5277200000000  0.4972260000000  0.5819320000000 1.0
C      1  0.5301250000000  0.5606300000000  0.4493060000000 1.0
C      1  0.5011950000000  0.5739920000000  0.4897420000000 1.0
C      1  0.5478720000000  0.4927260000000  0.5070930000000 1.0
C      1  0.4716560000000  0.5363050000000  0.4349000000000 1.0
C      1  0.4963410000000  0.5817430000000  0.5480800000000 1.0
C      1  0.5112090000000  0.4714410000000  0.5824030000000 1.0
C      1  0.5518670000000  0.4629600000000  0.5145170000000 1.0
C      1  0.5233370000000  0.4924100000000  0.4662800000000 1.0
C      1  0.4849530000000  0.4715650000000  0.5353960000000 1.0
C      1  0.4909530000000  0.5378240000000  0.5232120000000 1.0
C      1  0.4783740000000  0.5919620000000  0.5286100000000 1.0
C      1  0.4870780000000  0.4457090000000  0.5513630000000 1.0
C      1  0.4376590000000  0.4532360000000  0.5230240000000 1.0
C      1  0.4721370000000  0.4957380000000  0.4582390000000 1.0
C      1  0.4457980000000  0.4933890000000  0.5532000000000 1.0
C      1  0.5308910000000  0.4398800000000  0.5471370000000 1.0
C      1  0.5404500000000  0.4390520000000  0.4988140000000 1.0
C      1  0.4878800000000  0.5097370000000  0.4368820000000 1.0
C      1  0.4828160000000  0.4787920000000  0.5886450000000 1.0
C      1  0.4514350000000  0.5701650000000  0.4760370000000 1.0
C      1  0.5108430000000  0.5458650000000  0.5771600000000 1.0
C      1  0.5090790000000  0.4415150000000  0.4230100000000 1.0
C      1  0.5103810000000  0.4680530000000  0.4625520000000 1.0
C      1  0.5448930000000  0.4742920000000  0.4247610000000 1.0
C      1  0.4352100000000  0.5610140000000  0.5252090000000 1.0
C      1  0.4984630000000  0.4170720000000  0.5154290000000 1.0
C      1  0.5251640000000  0.4262410000000  0.5212100000000 1.0
C      1  0.4811590000000  0.5579570000000  0.4521950000000 1.0
C      1  0.4851570000000  0.5958070000000  0.5004940000000 1.0
C      1  0.5511930000000  0.5319280000000  0.5547910000000 1.0
C      1  0.5638580000000  0.4381730000000  0.4782990000000 1.0
C      1  0.5319600000000  0.5521940000000  0.5591280000000 1.0
C      1  0.4379550000000  0.4470210000000  0.4769700000000 1.0
C      1  0.5558170000000  0.5325750000000  0.4822890000000 1.0
C      1  0.4255100000000  0.4623950000000  0.4975480000000 1.0
C      1  0.4785370000000  0.5320790000000  0.4975430000000 1.0
C      1  0.4970270000000  0.4698780000000  0.5076910000000 1.0
C      1  0.4884520000000  0.5610470000000  0.5669000000000 1.0
C      1  0.5091470000000  0.4941190000000  0.4930930000000 1.0
C      1  0.4550720000000  0.4764700000000  0.5312250000000 1.0
C      1  0.4912080000000  0.4290180000000  0.4416250000000 1.0
C      1  0.4961900000000  0.4953160000000  0.5476700000000 1.0
C      1  0.5367220000000  0.4468330000000  0.4272990000000 1.0
C      1  0.5645000000000  0.4840950000000  0.5514360000000 1.0
C      1  0.5064690000000  0.5707350000000  0.4598340000000 1.0
C      1  0.5062780000000  0.5150390000000  0.5318810000000 1.0
C      1  0.5474710000000  0.4453350000000  0.4556670000000 1.0
C      1  0.5503170000000  0.4598860000000  0.5432130000000 1.0
C      1  0.4344410000000  0.5166620000000  0.5408550000000 1.0
C      1  0.4599790000000  0.4899660000000  0.5786630000000 1.0
C      1  0.5898730000000  0.5365260000000  0.5234470000000 1.0
C      1  0.4284400000000  0.5304130000000  0.4588930000000 1.0
C      1  0.4851420000000  0.5054770000000  0.5760780000000 1.0
C      1  0.4610920000000  0.4330610000000  0.4924490000000 1.0
C      1  0.5256890000000  0.5098540000000  0.5114290000000 1.0
C      1  0.4448730000000  0.5435020000000  0.5450990000000 1.0
END
