TITL C-224025-5686-4 0.0768870064014966 125000 -195.005319647884 0 0 29 (C1) n - 1
REM
REM in /rds/project/t2_vol4/rds-t2-cs072/BORA/CARBON/from-Arr/AIRSS/Generating-Clusters/GAP-ML-2020/Only-C1/SD-CG/HFTN-CG
REM
REM
REM
REM
REM
REM ./C.cell (11c1c37f851c82e70ff6c80c92926a4b)
REM AIRSS Version 0.9.1 bugfix July 2018 build 013d7b7c2542+ Fri, 06 Jul 2018 19:26:36 +0100
REM compiler GCC version 9.3.0
REM options -cpp -mtune=generic -march=x86-64 -g -O0
REM seed 604685967 491921003 796674963 1222108417 -1497754424 -140146806 422907363 -1194886286 2020396322 1160153661 1605513080 818600390 9703958 1084369068 911423192 1305871842 -532165545 2002028194 -877469886 -1620509427 -1080718967 -70009430 609129913 527322045 -1305961963 -2060238076 796552176 -980308248 -1404231172 -1341928595 -1845228173 -682369752 -746769950
REM
CELL 1.54180   50.00000   50.00000   50.00000   90.00000   90.00000   90.00000
LATT -1
SFAC C  
C      1  0.5554060000000  0.4949750000000  0.4858680000000 1.0
C      1  0.4493860000000  0.4842930000000  0.5043780000000 1.0
C      1  0.4953960000000  0.5244790000000  0.5661540000000 1.0
C      1  0.4653650000000  0.5125140000000  0.4686610000000 1.0
C      1  0.5324990000000  0.4919090000000  0.5263970000000 1.0
C      1  0.5015830000000  0.4648430000000  0.4537170000000 1.0
C      1  0.4483810000000  0.5312650000000  0.4814860000000 1.0
C      1  0.4528160000000  0.5012740000000  0.5273850000000 1.0
C      1  0.5265820000000  0.4581130000000  0.4923080000000 1.0
C      1  0.5139050000000  0.5208890000000  0.4515540000000 1.0
C      1  0.5336160000000  0.5201200000000  0.5172400000000 1.0
C      1  0.5089110000000  0.5359990000000  0.5174050000000 1.0
C      1  0.5004180000000  0.4999780000000  0.5602910000000 1.0
C      1  0.5538800000000  0.5203740000000  0.4965660000000 1.0
C      1  0.5274860000000  0.4652910000000  0.4634830000000 1.0
C      1  0.4624970000000  0.4854560000000  0.4787580000000 1.0
C      1  0.5095030000000  0.4821670000000  0.5409870000000 1.0
C      1  0.5446760000000  0.4881610000000  0.4601480000000 1.0
C      1  0.4837620000000  0.4661370000000  0.4758160000000 1.0
C      1  0.4898230000000  0.5317300000000  0.5387950000000 1.0
C      1  0.5351040000000  0.5092480000000  0.4440580000000 1.0
C      1  0.4633610000000  0.4756990000000  0.5264510000000 1.0
C      1  0.4988860000000  0.4566900000000  0.4999450000000 1.0
C      1  0.4633780000000  0.5278610000000  0.5276360000000 1.0
C      1  0.4924830000000  0.5403720000000  0.4936300000000 1.0
C      1  0.4640510000000  0.5407280000000  0.5017190000000 1.0
C      1  0.4927550000000  0.5265060000000  0.4678730000000 1.0
C      1  0.5435520000000  0.4759190000000  0.5059050000000 1.0
C      1  0.4905390000000  0.4670100000000  0.5253870000000 1.0
END
