TITL C-221362-5076-2 0.0676889422977455 125000 -370.896080760443 0 0 53 (C1) n - 1
REM
REM in /rds/project/t2_vol4/rds-t2-cs072/BORA/CARBON/from-Arr/AIRSS/Generating-Clusters/GAP-ML-2020/Only-C1/SD-CG/HFTN-CG
REM
REM
REM
REM
REM
REM ./C.cell (11c1c37f851c82e70ff6c80c92926a4b)
REM AIRSS Version 0.9.1 bugfix July 2018 build 013d7b7c2542+ Fri, 06 Jul 2018 19:26:36 +0100
REM compiler GCC version 9.3.0
REM options -cpp -mtune=generic -march=x86-64 -g -O0
REM seed 1536580500 -1703875190 1801496200 -1448671964 1712406996 -1003772148 -91033741 733839681 -810936134 -1013137969 -1419876050 -974106079 -1606682925 724709969 -1628730670 693428488 1260802259 -169804242 2143001615 -896463246 1335070418 2146077463 -441212276 -266885092 -1939695580 -1652711767 1759239071 4390799 -1807471666 2013417727 -799773764 842410648 -1681947835
REM
CELL 1.54180   50.00000   50.00000   50.00000   90.00000   90.00000   90.00000
LATT -1
SFAC C  
C      1  0.5364640000000  0.4594290000000  0.5362570000000 1.0
C      1  0.5354430000000  0.5185110000000  0.4507400000000 1.0
C      1  0.4700400000000  0.4360400000000  0.5243020000000 1.0
C      1  0.4922200000000  0.5050810000000  0.5039770000000 1.0
C      1  0.5182740000000  0.4364720000000  0.4986630000000 1.0
C      1  0.4991340000000  0.4349580000000  0.5209050000000 1.0
C      1  0.4458640000000  0.4693630000000  0.5461550000000 1.0
C      1  0.5030040000000  0.5113800000000  0.5548390000000 1.0
C      1  0.5422900000000  0.4470170000000  0.5106460000000 1.0
C      1  0.5084610000000  0.5728530000000  0.4920560000000 1.0
C      1  0.5381340000000  0.5360830000000  0.5379560000000 1.0
C      1  0.5234620000000  0.5679390000000  0.5155170000000 1.0
C      1  0.4948920000000  0.5031720000000  0.4325530000000 1.0
C      1  0.4539890000000  0.4478490000000  0.4783880000000 1.0
C      1  0.4981690000000  0.5461830000000  0.4516660000000 1.0
C      1  0.5606410000000  0.4895100000000  0.5097490000000 1.0
C      1  0.4957560000000  0.4593840000000  0.4540160000000 1.0
C      1  0.5180820000000  0.5603450000000  0.4673770000000 1.0
C      1  0.4569330000000  0.5338170000000  0.4817890000000 1.0
C      1  0.4920230000000  0.5360320000000  0.5438260000000 1.0
C      1  0.5554630000000  0.4651960000000  0.4935820000000 1.0
C      1  0.5317840000000  0.5100660000000  0.5468450000000 1.0
C      1  0.4847630000000  0.4905230000000  0.5621410000000 1.0
C      1  0.5095130000000  0.5268740000000  0.4975310000000 1.0
C      1  0.4721990000000  0.5357580000000  0.4577190000000 1.0
C      1  0.4650170000000  0.4486990000000  0.5500450000000 1.0
C      1  0.4571120000000  0.4947380000000  0.5536150000000 1.0
C      1  0.5561340000000  0.5112230000000  0.4930340000000 1.0
C      1  0.5058140000000  0.4880540000000  0.4896020000000 1.0
C      1  0.5134520000000  0.5528330000000  0.5378670000000 1.0
C      1  0.4392970000000  0.4979380000000  0.5099610000000 1.0
C      1  0.4371570000000  0.4703560000000  0.5187980000000 1.0
C      1  0.4666800000000  0.5361400000000  0.5297450000000 1.0
C      1  0.4509400000000  0.5132230000000  0.5326120000000 1.0
C      1  0.5473080000000  0.5514630000000  0.5149030000000 1.0
C      1  0.5107550000000  0.4493210000000  0.5439600000000 1.0
C      1  0.5174210000000  0.4478910000000  0.4712750000000 1.0
C      1  0.5277270000000  0.5092710000000  0.4808060000000 1.0
C      1  0.5568370000000  0.5399640000000  0.4913040000000 1.0
C      1  0.5414150000000  0.4646430000000  0.4680500000000 1.0
C      1  0.4704240000000  0.5095770000000  0.4449440000000 1.0
C      1  0.4660640000000  0.5497030000000  0.5043450000000 1.0
C      1  0.4895330000000  0.4612160000000  0.5596380000000 1.0
C      1  0.5115970000000  0.5257450000000  0.4365400000000 1.0
C      1  0.5353830000000  0.4858000000000  0.4494990000000 1.0
C      1  0.4816680000000  0.5706370000000  0.4976710000000 1.0
C      1  0.5423390000000  0.5455660000000  0.4667910000000 1.0
C      1  0.4456320000000  0.5072740000000  0.4838500000000 1.0
C      1  0.5464230000000  0.4867150000000  0.5360840000000 1.0
C      1  0.4496140000000  0.4469280000000  0.5047910000000 1.0
C      1  0.4665450000000  0.4638050000000  0.4604270000000 1.0
C      1  0.5087140000000  0.4799610000000  0.4399750000000 1.0
C      1  0.4560010000000  0.4914780000000  0.4606740000000 1.0
END
