TITL C-22843-2298-1 -181.826991197917 125000 -544.680853892473 0 0 78 (C1) n - 1
REM
REM in /rds/project/t2_vol4/rds-t2-cs072/BORA/CARBON/from-Arr/AIRSS/Generating-Clusters/GAP-ML-2020/Only-C1/SD-CG/HFTN-CG
REM
REM
REM
REM
REM
REM ./C.cell (11c1c37f851c82e70ff6c80c92926a4b)
REM AIRSS Version 0.9.1 bugfix July 2018 build 013d7b7c2542+ Fri, 06 Jul 2018 19:26:36 +0100
REM compiler GCC version 9.3.0
REM options -cpp -mtune=generic -march=x86-64 -g -O0
REM seed 628194816 -448623239 837593 -205941279 1282504265 959115374 -484768178 -1837517822 723426328 1483969626 -1119820978 -1705428005 1904622106 310729427 -112401725 816607579 -1070017509 -957885171 918714992 1728071011 1375369580 553299711 -1297618447 -1433596025 1414320999 1590858292 -1962043474 -1527943590 -1520325587 1586836312 1291429290 98616542 -1037345036
REM
CELL 1.54180   50.00000   50.00000   50.00000   90.00000   90.00000   90.00000
LATT -1
SFAC C  
C      1  0.5334410000000  0.5542880000000  0.5246480000000 1.0
C      1  0.4370500000000  0.5531780000000  0.4801610000000 1.0
C      1  0.5812210000000  0.4871270000000  0.5071720000000 1.0
C      1  0.5640130000000  0.5210480000000  0.5352840000000 1.0
C      1  0.5006580000000  0.4920460000000  0.4613230000000 1.0
C      1  0.5335360000000  0.4447230000000  0.5402640000000 1.0
C      1  0.4850790000000  0.5667600000000  0.5217820000000 1.0
C      1  0.4195070000000  0.4704640000000  0.4757950000000 1.0
C      1  0.5320860000000  0.4864100000000  0.4568630000000 1.0
C      1  0.4998790000000  0.4634860000000  0.5727810000000 1.0
C      1  0.4572310000000  0.5295600000000  0.5439500000000 1.0
C      1  0.4940490000000  0.4905480000000  0.4314250000000 1.0
C      1  0.4643110000000  0.5720870000000  0.5034310000000 1.0
C      1  0.4807010000000  0.5621310000000  0.4538740000000 1.0
C      1  0.4959640000000  0.4864990000000  0.5881870000000 1.0
C      1  0.5521360000000  0.5335230000000  0.5111780000000 1.0
C      1  0.4967910000000  0.5269780000000  0.5816540000000 1.0
C      1  0.5014530000000  0.5447560000000  0.5610580000000 1.0
C      1  0.5217700000000  0.4618080000000  0.5135750000000 1.0
C      1  0.5268890000000  0.5523550000000  0.4417870000000 1.0
C      1  0.4857700000000  0.4754470000000  0.4827720000000 1.0
C      1  0.4578290000000  0.4849760000000  0.4791990000000 1.0
C      1  0.5656520000000  0.5300030000000  0.4815180000000 1.0
C      1  0.5225950000000  0.5320740000000  0.4769310000000 1.0
C      1  0.4384510000000  0.5334510000000  0.5228660000000 1.0
C      1  0.4318200000000  0.5252230000000  0.4779470000000 1.0
C      1  0.5163890000000  0.5097110000000  0.4233920000000 1.0
C      1  0.5001950000000  0.4811840000000  0.5085090000000 1.0
C      1  0.4802650000000  0.4441300000000  0.4856510000000 1.0
C      1  0.4583350000000  0.4758270000000  0.5473110000000 1.0
C      1  0.5178400000000  0.5616830000000  0.4843400000000 1.0
C      1  0.5162830000000  0.5072040000000  0.5890660000000 1.0
C      1  0.5729270000000  0.5026980000000  0.4845410000000 1.0
C      1  0.4787630000000  0.4562960000000  0.5550160000000 1.0
C      1  0.4836840000000  0.5343060000000  0.4408260000000 1.0
C      1  0.4274290000000  0.4786740000000  0.4481160000000 1.0
C      1  0.5091320000000  0.5361060000000  0.4260200000000 1.0
C      1  0.5684010000000  0.4745250000000  0.5505690000000 1.0
C      1  0.5287880000000  0.5463370000000  0.5512880000000 1.0
C      1  0.4356550000000  0.4845030000000  0.5005530000000 1.0
C      1  0.4486290000000  0.4674470000000  0.5213910000000 1.0
C      1  0.5447580000000  0.5325570000000  0.4566290000000 1.0
C      1  0.5120960000000  0.5668690000000  0.5110720000000 1.0
C      1  0.4847760000000  0.5211360000000  0.4948840000000 1.0
C      1  0.4398390000000  0.5581410000000  0.5087700000000 1.0
C      1  0.4838750000000  0.4391410000000  0.5328070000000 1.0
C      1  0.5477840000000  0.5261390000000  0.5580620000000 1.0
C      1  0.5244400000000  0.4585080000000  0.4496720000000 1.0
C      1  0.5620730000000  0.4520060000000  0.5348080000000 1.0
C      1  0.4615430000000  0.5673380000000  0.4736350000000 1.0
C      1  0.5304790000000  0.5134940000000  0.4989070000000 1.0
C      1  0.5442500000000  0.4615280000000  0.4928570000000 1.0
C      1  0.4703390000000  0.4261660000000  0.4378970000000 1.0
C      1  0.5036040000000  0.5083200000000  0.5120770000000 1.0
C      1  0.4880920000000  0.4377210000000  0.4230190000000 1.0
C      1  0.5285910000000  0.4435540000000  0.4738440000000 1.0
C      1  0.4659140000000  0.4459850000000  0.5124230000000 1.0
C      1  0.5393240000000  0.5079580000000  0.4393030000000 1.0
C      1  0.5688030000000  0.4601380000000  0.5082940000000 1.0
C      1  0.5074220000000  0.4331040000000  0.4916770000000 1.0
C      1  0.5091370000000  0.5685880000000  0.4584120000000 1.0
C      1  0.4418580000000  0.5005090000000  0.4348880000000 1.0
C      1  0.4442780000000  0.4601870000000  0.4643690000000 1.0
C      1  0.5474720000000  0.4782090000000  0.5690820000000 1.0
C      1  0.5107890000000  0.4348410000000  0.5211960000000 1.0
C      1  0.5030710000000  0.4604710000000  0.4303320000000 1.0
C      1  0.4480060000000  0.5079130000000  0.4619530000000 1.0
C      1  0.4622520000000  0.4370080000000  0.4629450000000 1.0
C      1  0.5410340000000  0.5050560000000  0.5768140000000 1.0
C      1  0.5269200000000  0.4581370000000  0.5649640000000 1.0
C      1  0.5456840000000  0.4896350000000  0.4819970000000 1.0
C      1  0.5782500000000  0.4965540000000  0.5337470000000 1.0
C      1  0.4686440000000  0.5081210000000  0.4304340000000 1.0
C      1  0.4962250000000  0.5203610000000  0.4683830000000 1.0
C      1  0.4603440000000  0.5036050000000  0.5575580000000 1.0
C      1  0.4299550000000  0.5135070000000  0.5037030000000 1.0
C      1  0.4763080000000  0.5061950000000  0.5801860000000 1.0
C      1  0.4791690000000  0.5497190000000  0.5443870000000 1.0
END
