TITL C-22836-2311-1 0.00779884985195245 125000 -29.120893540135 0 0 5 (C2v) n - 1
REM
REM in /rds/project/t2_vol4/rds-t2-cs072/BORA/CARBON/from-Arr/AIRSS/Generating-Clusters/GAP-ML-2020/Only-C1/SD-CG/HFTN-CG
REM
REM
REM
REM
REM
REM ./C.cell (11c1c37f851c82e70ff6c80c92926a4b)
REM AIRSS Version 0.9.1 bugfix July 2018 build 013d7b7c2542+ Fri, 06 Jul 2018 19:26:36 +0100
REM compiler GCC version 9.3.0
REM options -cpp -mtune=generic -march=x86-64 -g -O0
REM seed -54558082 992248108 1360963383 1225000554 1391010994 1582210352 848732775 1754413940 -139140408 -769371324 -1663205483 1950729486 1426083256 -1697432332 1116459962 835714787 -957981280 -1419488322 691049246 1880520315 803108665 -2087534602 565080808 -1927824563 1616757857 -1917796755 -138348655 -914780111 855751707 316239416 1521321409 -882098064 794343729
REM
CELL 1.54180   50.00000   50.00000   50.00000   90.00000   90.00000   90.00000
LATT -1
SFAC C  
C      1  0.4671370000000  0.4952500000000  0.5009230000000 1.0
C      1  0.4765210000000  0.4940160000000  0.4772770000000 1.0
C      1  0.5195100000000  0.5037170000000  0.5075490000000 1.0
C      1  0.5428070000000  0.5081560000000  0.5165630000000 1.0
C      1  0.4940250000000  0.4988620000000  0.4976880000000 1.0
END
