TITL C-22836-2311-11 0.0502832464914004 125000 -824.331957716899 0 0 119 (C1) n - 1
REM
REM in /rds/project/t2_vol4/rds-t2-cs072/BORA/CARBON/from-Arr/AIRSS/Generating-Clusters/GAP-ML-2020/Only-C1/SD-CG/HFTN-CG
REM
REM
REM
REM
REM
REM ./C.cell (11c1c37f851c82e70ff6c80c92926a4b)
REM AIRSS Version 0.9.1 bugfix July 2018 build 013d7b7c2542+ Fri, 06 Jul 2018 19:26:36 +0100
REM compiler GCC version 9.3.0
REM options -cpp -mtune=generic -march=x86-64 -g -O0
REM seed 1449641564 -552760407 -1076005051 1956211720 1922505231 1568342608 -1798289682 -273249001 -568982829 784165486 -426442634 395841303 -1845541313 -1252274545 955990914 -144445002 -2105969395 1660501075 224198114 -720151438 -1062338973 1376311506 -1096368679 846041545 -2072643869 -1135884119 -783249105 -1282181099 120770682 1985833079 -1759777527 1007334666 -731805630
REM
CELL 1.54180   50.00000   50.00000   50.00000   90.00000   90.00000   90.00000
LATT -1
SFAC C  
C      1  0.4450760000000  0.4420220000000  0.5288530000000 1.0
C      1  0.4466640000000  0.4768980000000  0.4353780000000 1.0
C      1  0.4433990000000  0.5157230000000  0.4674980000000 1.0
C      1  0.4759320000000  0.5525560000000  0.5086700000000 1.0
C      1  0.5110410000000  0.4676580000000  0.4929880000000 1.0
C      1  0.4852710000000  0.4741160000000  0.5303170000000 1.0
C      1  0.5366190000000  0.4665630000000  0.4830330000000 1.0
C      1  0.5494180000000  0.4697110000000  0.5762000000000 1.0
C      1  0.4548060000000  0.5623170000000  0.4570360000000 1.0
C      1  0.4163790000000  0.4887860000000  0.5472960000000 1.0
C      1  0.5834500000000  0.5208140000000  0.4729480000000 1.0
C      1  0.5390420000000  0.4697330000000  0.5308810000000 1.0
C      1  0.5242000000000  0.5403990000000  0.5073880000000 1.0
C      1  0.5041740000000  0.5758850000000  0.4549300000000 1.0
C      1  0.5814410000000  0.5408850000000  0.4939960000000 1.0
C      1  0.4942980000000  0.4767350000000  0.4503520000000 1.0
C      1  0.4620100000000  0.4971160000000  0.4159370000000 1.0
C      1  0.4994430000000  0.5183360000000  0.5354410000000 1.0
C      1  0.4335940000000  0.5605480000000  0.4785360000000 1.0
C      1  0.5835550000000  0.4921840000000  0.4740250000000 1.0
C      1  0.5596900000000  0.4357860000000  0.5016760000000 1.0
C      1  0.5078910000000  0.4998950000000  0.5590530000000 1.0
C      1  0.5007630000000  0.5056340000000  0.4460430000000 1.0
C      1  0.5470980000000  0.4325610000000  0.4453050000000 1.0
C      1  0.4789300000000  0.5022440000000  0.5218610000000 1.0
C      1  0.5696480000000  0.4882710000000  0.5665140000000 1.0
C      1  0.4563520000000  0.4965820000000  0.5678880000000 1.0
C      1  0.4233460000000  0.5329970000000  0.5254630000000 1.0
C      1  0.4118650000000  0.5221950000000  0.5021740000000 1.0
C      1  0.5468130000000  0.5694980000000  0.5111860000000 1.0
C      1  0.5365750000000  0.4204380000000  0.5086360000000 1.0
C      1  0.4249680000000  0.5339340000000  0.4805330000000 1.0
C      1  0.4490980000000  0.5504450000000  0.4270220000000 1.0
C      1  0.5548810000000  0.4653570000000  0.5059080000000 1.0
C      1  0.5685960000000  0.4510040000000  0.4535750000000 1.0
C      1  0.5295350000000  0.5673780000000  0.5551380000000 1.0
C      1  0.5781540000000  0.4440400000000  0.4796940000000 1.0
C      1  0.5551820000000  0.5513470000000  0.4444860000000 1.0
C      1  0.5177540000000  0.5056560000000  0.5871400000000 1.0
C      1  0.4972440000000  0.5236760000000  0.5949730000000 1.0
C      1  0.4635520000000  0.4654090000000  0.4858120000000 1.0
C      1  0.5261790000000  0.4083750000000  0.4850840000000 1.0
C      1  0.5205420000000  0.4699160000000  0.4365170000000 1.0
C      1  0.4737760000000  0.4283110000000  0.4417560000000 1.0
C      1  0.5397330000000  0.4802590000000  0.4578800000000 1.0
C      1  0.5027030000000  0.5882320000000  0.5152330000000 1.0
C      1  0.4372580000000  0.4763440000000  0.5621120000000 1.0
C      1  0.4788600000000  0.5796260000000  0.4666280000000 1.0
C      1  0.4052080000000  0.4948150000000  0.4996830000000 1.0
C      1  0.5391140000000  0.5251960000000  0.5797790000000 1.0
C      1  0.5261140000000  0.5872720000000  0.5002560000000 1.0
C      1  0.4189860000000  0.4542420000000  0.4856750000000 1.0
C      1  0.4368400000000  0.5746750000000  0.5030640000000 1.0
C      1  0.5519000000000  0.5701740000000  0.4653210000000 1.0
C      1  0.4823040000000  0.5605490000000  0.5620410000000 1.0
C      1  0.5033680000000  0.5712690000000  0.5421410000000 1.0
C      1  0.4667640000000  0.5355400000000  0.4612780000000 1.0
C      1  0.5069810000000  0.5532210000000  0.4365610000000 1.0
C      1  0.4543970000000  0.4205460000000  0.4850800000000 1.0
C      1  0.5558360000000  0.5142440000000  0.5584390000000 1.0
C      1  0.4125500000000  0.4802490000000  0.4759530000000 1.0
C      1  0.4897460000000  0.4634400000000  0.4750560000000 1.0
C      1  0.5224540000000  0.4411040000000  0.4307660000000 1.0
C      1  0.5137580000000  0.4292480000000  0.5271550000000 1.0
C      1  0.4609290000000  0.4636300000000  0.5157100000000 1.0
C      1  0.4512780000000  0.4484110000000  0.4440330000000 1.0
C      1  0.5825560000000  0.5382650000000  0.5209700000000 1.0
C      1  0.5375100000000  0.5148600000000  0.4206420000000 1.0
C      1  0.5624660000000  0.5061110000000  0.4328650000000 1.0
C      1  0.5242580000000  0.5120110000000  0.5170460000000 1.0
C      1  0.5114870000000  0.4601590000000  0.5216030000000 1.0
C      1  0.4976090000000  0.4281970000000  0.4277350000000 1.0
C      1  0.5051380000000  0.4511150000000  0.5756590000000 1.0
C      1  0.4970110000000  0.4067630000000  0.4877440000000 1.0
C      1  0.4610550000000  0.4218290000000  0.5131690000000 1.0
C      1  0.5440740000000  0.4520670000000  0.5544670000000 1.0
C      1  0.4525040000000  0.5967340000000  0.5023170000000 1.0
C      1  0.4576680000000  0.4951240000000  0.4861940000000 1.0
C      1  0.4769600000000  0.4554120000000  0.5713910000000 1.0
C      1  0.4083110000000  0.4774720000000  0.5228550000000 1.0
C      1  0.5721790000000  0.5283090000000  0.4477940000000 1.0
C      1  0.4504440000000  0.4932020000000  0.5154410000000 1.0
C      1  0.5271260000000  0.5831490000000  0.4711920000000 1.0
C      1  0.4826560000000  0.4821610000000  0.5602230000000 1.0
C      1  0.4752750000000  0.4128720000000  0.4686720000000 1.0
C      1  0.5147220000000  0.5361910000000  0.4802040000000 1.0
C      1  0.5000150000000  0.5469590000000  0.5260400000000 1.0
C      1  0.4861080000000  0.5313340000000  0.4390210000000 1.0
C      1  0.4837900000000  0.5075360000000  0.4936880000000 1.0
C      1  0.4456920000000  0.5232330000000  0.5625750000000 1.0
C      1  0.5861970000000  0.4768030000000  0.5471610000000 1.0
C      1  0.4979910000000  0.5479370000000  0.5826210000000 1.0
C      1  0.4892730000000  0.4153190000000  0.5139310000000 1.0
C      1  0.5682550000000  0.4819630000000  0.4507240000000 1.0
C      1  0.5240510000000  0.4747470000000  0.5868610000000 1.0
C      1  0.4842320000000  0.5351640000000  0.4854360000000 1.0
C      1  0.4429910000000  0.4446330000000  0.4725860000000 1.0
C      1  0.4572530000000  0.5484670000000  0.5536670000000 1.0
C      1  0.5431880000000  0.4128600000000  0.4636320000000 1.0
C      1  0.4223380000000  0.5169830000000  0.5480960000000 1.0
C      1  0.5261530000000  0.5499840000000  0.5768010000000 1.0
C      1  0.5344750000000  0.4975660000000  0.5406390000000 1.0
C      1  0.4311670000000  0.4914770000000  0.4555150000000 1.0
C      1  0.5833340000000  0.4720170000000  0.4960040000000 1.0
C      1  0.4781320000000  0.5837460000000  0.4979260000000 1.0
C      1  0.4629170000000  0.5268310000000  0.4189030000000 1.0
C      1  0.5942360000000  0.4718290000000  0.5236270000000 1.0
C      1  0.5517470000000  0.5625320000000  0.5388750000000 1.0
C      1  0.4470470000000  0.5517180000000  0.5254280000000 1.0
C      1  0.5133470000000  0.4967830000000  0.4928170000000 1.0
C      1  0.5216220000000  0.5085860000000  0.4672570000000 1.0
C      1  0.4502510000000  0.4511610000000  0.5585730000000 1.0
C      1  0.5650630000000  0.5638740000000  0.4898640000000 1.0
C      1  0.4878940000000  0.4970930000000  0.4054010000000 1.0
C      1  0.5677510000000  0.5388720000000  0.5432780000000 1.0
C      1  0.4192110000000  0.4526390000000  0.5146060000000 1.0
C      1  0.5328000000000  0.5426480000000  0.4292970000000 1.0
C      1  0.5143890000000  0.4963930000000  0.4190870000000 1.0
C      1  0.5207560000000  0.4360870000000  0.5568920000000 1.0
END
