TITL C-22834-2139-3 -45.8938387391956 125000 -261.205323957591 0 0 39 (C1) n - 1
REM
REM in /rds/project/t2_vol4/rds-t2-cs072/BORA/CARBON/from-Arr/AIRSS/Generating-Clusters/GAP-ML-2020/Only-C1/SD-CG/HFTN-CG
REM
REM
REM
REM
REM
REM ./C.cell (11c1c37f851c82e70ff6c80c92926a4b)
REM AIRSS Version 0.9.1 bugfix July 2018 build 013d7b7c2542+ Fri, 06 Jul 2018 19:26:36 +0100
REM compiler GCC version 9.3.0
REM options -cpp -mtune=generic -march=x86-64 -g -O0
REM seed 363548188 993066554 1128995653 48623807 -821723009 -584168430 1411570449 529761287 1198932972 1677142716 -1770089746 1571904682 1370479044 757094330 345632235 1444594043 -336432880 528694886 1544927028 -730265485 147992807 1147254386 1155891264 2145386921 -1556948154 -695238243 -1285713834 -255985839 1158931426 1273922998 -139460863 1479584468 1471504696
REM
CELL 1.54180   50.00000   50.00000   50.00000   90.00000   90.00000   90.00000
LATT -1
SFAC C  
C      1  0.5226240000000  0.4836480000000  0.4517720000000 1.0
C      1  0.4987990000000  0.4704460000000  0.4398950000000 1.0
C      1  0.4479090000000  0.4611870000000  0.4612410000000 1.0
C      1  0.5295140000000  0.5447400000000  0.5325240000000 1.0
C      1  0.4825120000000  0.4428180000000  0.4886380000000 1.0
C      1  0.5239140000000  0.5097040000000  0.4612160000000 1.0
C      1  0.5173830000000  0.5526710000000  0.5069100000000 1.0
C      1  0.5448450000000  0.5211180000000  0.5315900000000 1.0
C      1  0.5272900000000  0.4608450000000  0.4964910000000 1.0
C      1  0.4752190000000  0.5602110000000  0.4855420000000 1.0
C      1  0.5275600000000  0.4600900000000  0.4677120000000 1.0
C      1  0.4500680000000  0.4715640000000  0.4380000000000 1.0
C      1  0.4679880000000  0.4874530000000  0.4927510000000 1.0
C      1  0.5095280000000  0.5266380000000  0.4959740000000 1.0
C      1  0.4725030000000  0.5139140000000  0.5383730000000 1.0
C      1  0.4662170000000  0.5384920000000  0.5259580000000 1.0
C      1  0.4789550000000  0.4916950000000  0.5196160000000 1.0
C      1  0.5128480000000  0.4997300000000  0.5626720000000 1.0
C      1  0.4914560000000  0.4260680000000  0.4675130000000 1.0
C      1  0.5018810000000  0.4524530000000  0.5075020000000 1.0
C      1  0.4856910000000  0.5582670000000  0.5318040000000 1.0
C      1  0.5437270000000  0.4779110000000  0.5127670000000 1.0
C      1  0.5399080000000  0.5030800000000  0.5527940000000 1.0
C      1  0.5055510000000  0.4452700000000  0.4551070000000 1.0
C      1  0.4857060000000  0.5499570000000  0.4622480000000 1.0
C      1  0.4595590000000  0.4598860000000  0.4858690000000 1.0
C      1  0.4961720000000  0.5233040000000  0.4681320000000 1.0
C      1  0.5498550000000  0.5059860000000  0.5068820000000 1.0
C      1  0.5056510000000  0.5450580000000  0.5486710000000 1.0
C      1  0.4940830000000  0.5197580000000  0.5576070000000 1.0
C      1  0.5384080000000  0.4761320000000  0.5405160000000 1.0
C      1  0.4943790000000  0.5688290000000  0.5071100000000 1.0
C      1  0.4921730000000  0.4670580000000  0.5309200000000 1.0
C      1  0.5049090000000  0.5066560000000  0.5177770000000 1.0
C      1  0.5358420000000  0.5166000000000  0.4854070000000 1.0
C      1  0.4581320000000  0.5424860000000  0.4999400000000 1.0
C      1  0.5114100000000  0.4732140000000  0.5500380000000 1.0
C      1  0.4750420000000  0.5016770000000  0.4688730000000 1.0
C      1  0.4747890000000  0.4833860000000  0.4456510000000 1.0
END
