TITL C-22559-8226-4 -105.170923555096 125000 -402.486117293304 0 0 59 (C1) n - 1
REM
REM in /rds/project/t2_vol4/rds-t2-cs072/BORA/CARBON/from-Arr/AIRSS/Generating-Clusters/GAP-ML-2020/Only-C1/SD-CG/HFTN-CG
REM
REM
REM
REM
REM
REM ./C.cell (11c1c37f851c82e70ff6c80c92926a4b)
REM AIRSS Version 0.9.1 bugfix July 2018 build 013d7b7c2542+ Fri, 06 Jul 2018 19:26:36 +0100
REM compiler GCC version 9.3.0
REM options -cpp -mtune=generic -march=x86-64 -g -O0
REM seed -371917675 -1272317206 -397616292 -477619231 -1394745929 -592118540 -1384067100 762252609 1678608281 1364061452 -1498791410 -560625195 1721882597 -447750036 -171566965 -1557722576 -1428165162 351579571 167548329 1057936361 1323912185 1535176410 893428667 -582212784 -1197521036 24137207 1771177304 -1614349331 -302462839 -1594276457 1226577866 1935128837 1153667692
REM
CELL 1.54180   50.00000   50.00000   50.00000   90.00000   90.00000   90.00000
LATT -1
SFAC C  
C      1  0.4697780000000  0.5265690000000  0.5647120000000 1.0
C      1  0.5665630000000  0.4883650000000  0.5125220000000 1.0
C      1  0.5021520000000  0.5276050000000  0.4643870000000 1.0
C      1  0.5615370000000  0.5131430000000  0.4976440000000 1.0
C      1  0.5705600000000  0.4814170000000  0.4649920000000 1.0
C      1  0.4475780000000  0.4938380000000  0.5349510000000 1.0
C      1  0.5134480000000  0.4990660000000  0.4600890000000 1.0
C      1  0.5711090000000  0.4704920000000  0.4917590000000 1.0
C      1  0.4371000000000  0.5151300000000  0.4919360000000 1.0
C      1  0.5274510000000  0.4585440000000  0.5319740000000 1.0
C      1  0.4942840000000  0.4412890000000  0.5046950000000 1.0
C      1  0.5497790000000  0.4708310000000  0.4481010000000 1.0
C      1  0.4603280000000  0.4528350000000  0.4729450000000 1.0
C      1  0.5122100000000  0.5041700000000  0.5749720000000 1.0
C      1  0.5285620000000  0.5069070000000  0.5314540000000 1.0
C      1  0.4984650000000  0.4787860000000  0.5688960000000 1.0
C      1  0.5323720000000  0.5163500000000  0.5028320000000 1.0
C      1  0.5465650000000  0.5194670000000  0.4499820000000 1.0
C      1  0.4960660000000  0.5271820000000  0.5750230000000 1.0
C      1  0.5657810000000  0.5093600000000  0.4691360000000 1.0
C      1  0.4863470000000  0.4431530000000  0.4771080000000 1.0
C      1  0.5319960000000  0.5641070000000  0.4700600000000 1.0
C      1  0.4970310000000  0.5048770000000  0.5311870000000 1.0
C      1  0.4699200000000  0.5453460000000  0.5433310000000 1.0
C      1  0.5250740000000  0.5730470000000  0.4929430000000 1.0
C      1  0.4968410000000  0.5553600000000  0.5376460000000 1.0
C      1  0.5024250000000  0.4616150000000  0.5458260000000 1.0
C      1  0.5301500000000  0.5205970000000  0.5571820000000 1.0
C      1  0.4715120000000  0.4803330000000  0.5737760000000 1.0
C      1  0.5427080000000  0.4687620000000  0.4867300000000 1.0
C      1  0.5056110000000  0.4513470000000  0.4564820000000 1.0
C      1  0.5003190000000  0.4773490000000  0.4448010000000 1.0
C      1  0.5127440000000  0.5438170000000  0.5579240000000 1.0
C      1  0.4558600000000  0.4688660000000  0.5216230000000 1.0
C      1  0.5333760000000  0.4478480000000  0.4590490000000 1.0
C      1  0.4583560000000  0.5001380000000  0.5605120000000 1.0
C      1  0.4505170000000  0.5431630000000  0.5237880000000 1.0
C      1  0.5221670000000  0.4412770000000  0.5090920000000 1.0
C      1  0.5383950000000  0.4406860000000  0.4864390000000 1.0
C      1  0.4768860000000  0.5725150000000  0.4979130000000 1.0
C      1  0.4406720000000  0.4898990000000  0.4537880000000 1.0
C      1  0.5232140000000  0.4915520000000  0.4869750000000 1.0
C      1  0.5446620000000  0.4818560000000  0.5310970000000 1.0
C      1  0.4399780000000  0.5169550000000  0.5197110000000 1.0
C      1  0.5061980000000  0.5323450000000  0.4948970000000 1.0
C      1  0.4754490000000  0.4824970000000  0.4349460000000 1.0
C      1  0.4348770000000  0.4896640000000  0.4812910000000 1.0
C      1  0.4554120000000  0.4658900000000  0.4479790000000 1.0
C      1  0.4473940000000  0.4671190000000  0.4944760000000 1.0
C      1  0.4876280000000  0.5121180000000  0.5060690000000 1.0
C      1  0.5024480000000  0.5609240000000  0.5077390000000 1.0
C      1  0.5351830000000  0.4943000000000  0.4405650000000 1.0
C      1  0.4527610000000  0.5354110000000  0.4783720000000 1.0
C      1  0.4959770000000  0.4880390000000  0.4949510000000 1.0
C      1  0.4715100000000  0.5286240000000  0.4576160000000 1.0
C      1  0.4573620000000  0.5544950000000  0.4983880000000 1.0
C      1  0.4805730000000  0.4542180000000  0.5273090000000 1.0
C      1  0.5280880000000  0.5413130000000  0.4547650000000 1.0
C      1  0.4606910000000  0.5072320000000  0.4426510000000 1.0
END
