TITL C-22837-2287-4 -332.699876279552 125000 -800.394158189295 0 0 115 (C1) n - 1
REM
REM in /rds/project/t2_vol4/rds-t2-cs072/BORA/CARBON/from-Arr/AIRSS/Generating-Clusters/GAP-ML-2020/Only-C1/SD-CG/HFTN-CG
REM
REM
REM
REM
REM
REM ./C.cell (11c1c37f851c82e70ff6c80c92926a4b)
REM AIRSS Version 0.9.1 bugfix July 2018 build 013d7b7c2542+ Fri, 06 Jul 2018 19:26:36 +0100
REM compiler GCC version 9.3.0
REM options -cpp -mtune=generic -march=x86-64 -g -O0
REM seed -203062063 55292299 791128502 1493897340 1769088341 344009157 825690857 -1994970621 836299262 1829417988 2023402376 -238267820 -1596710089 -807223056 -1470291305 1193081178 1895196303 -526312282 -315361211 -263954274 759477927 -849852300 289363951 1379857157 -2004614568 -1607279615 887279339 -1011326512 1763335368 1537743516 -719015985 -1731272316 1996818441
REM
CELL 1.54180   50.00000   50.00000   50.00000   90.00000   90.00000   90.00000
LATT -1
SFAC C  
C      1  0.4701000000000  0.4869880000000  0.5450200000000 1.0
C      1  0.4730310000000  0.5197870000000  0.4710420000000 1.0
C      1  0.5480660000000  0.4429190000000  0.5360980000000 1.0
C      1  0.4815380000000  0.5996310000000  0.4974940000000 1.0
C      1  0.4381930000000  0.4448130000000  0.4800800000000 1.0
C      1  0.4208280000000  0.4860750000000  0.5386070000000 1.0
C      1  0.5027010000000  0.4476660000000  0.5585610000000 1.0
C      1  0.5778720000000  0.4657290000000  0.4483470000000 1.0
C      1  0.4988200000000  0.4893090000000  0.5850060000000 1.0
C      1  0.5150040000000  0.5205860000000  0.4948090000000 1.0
C      1  0.5385840000000  0.4877350000000  0.4975860000000 1.0
C      1  0.4737700000000  0.5165510000000  0.5193310000000 1.0
C      1  0.5172430000000  0.4905270000000  0.5372000000000 1.0
C      1  0.5671190000000  0.4820860000000  0.5634440000000 1.0
C      1  0.5729430000000  0.4454480000000  0.4698450000000 1.0
C      1  0.4649190000000  0.4633370000000  0.4226520000000 1.0
C      1  0.5923490000000  0.4873690000000  0.4591920000000 1.0
C      1  0.4419620000000  0.4856740000000  0.4977470000000 1.0
C      1  0.5282020000000  0.4297620000000  0.4933650000000 1.0
C      1  0.4869730000000  0.4547330000000  0.4807360000000 1.0
C      1  0.4708180000000  0.5856170000000  0.4747240000000 1.0
C      1  0.4248080000000  0.4704880000000  0.5154710000000 1.0
C      1  0.5687310000000  0.5171450000000  0.4358620000000 1.0
C      1  0.4551890000000  0.5363050000000  0.4283960000000 1.0
C      1  0.5409800000000  0.5149650000000  0.5063040000000 1.0
C      1  0.5460110000000  0.4690600000000  0.5775090000000 1.0
C      1  0.4422840000000  0.5495800000000  0.4482440000000 1.0
C      1  0.5264890000000  0.5272790000000  0.5834230000000 1.0
C      1  0.4727660000000  0.5442830000000  0.4511020000000 1.0
C      1  0.5350710000000  0.4486590000000  0.5616950000000 1.0
C      1  0.4541550000000  0.4337300000000  0.5292130000000 1.0
C      1  0.4838690000000  0.4095970000000  0.4952180000000 1.0
C      1  0.4303520000000  0.4859070000000  0.4480710000000 1.0
C      1  0.5076530000000  0.6047720000000  0.4962560000000 1.0
C      1  0.5566870000000  0.4715400000000  0.4297240000000 1.0
C      1  0.5411810000000  0.4470490000000  0.4732760000000 1.0
C      1  0.4790360000000  0.4217200000000  0.5212460000000 1.0
C      1  0.5094880000000  0.4122860000000  0.4824560000000 1.0
C      1  0.5648240000000  0.4206650000000  0.4567410000000 1.0
C      1  0.4441230000000  0.5783070000000  0.4832520000000 1.0
C      1  0.5245570000000  0.4413150000000  0.5186950000000 1.0
C      1  0.4647300000000  0.5110050000000  0.4197630000000 1.0
C      1  0.5095720000000  0.4637650000000  0.4346970000000 1.0
C      1  0.4829840000000  0.5380990000000  0.5664050000000 1.0
C      1  0.4662850000000  0.5174920000000  0.5491810000000 1.0
C      1  0.4370400000000  0.4720690000000  0.4724260000000 1.0
C      1  0.5829660000000  0.4578960000000  0.4957870000000 1.0
C      1  0.5327710000000  0.5384150000000  0.5549860000000 1.0
C      1  0.5279240000000  0.5859930000000  0.4995470000000 1.0
C      1  0.4984990000000  0.5334940000000  0.5134990000000 1.0
C      1  0.5183070000000  0.4741570000000  0.5132860000000 1.0
C      1  0.4363580000000  0.4446040000000  0.5093310000000 1.0
C      1  0.5944830000000  0.5098880000000  0.4433940000000 1.0
C      1  0.5064010000000  0.5777000000000  0.5452870000000 1.0
C      1  0.4502930000000  0.4869850000000  0.4268450000000 1.0
C      1  0.5727490000000  0.4535970000000  0.5235350000000 1.0
C      1  0.5493500000000  0.4994090000000  0.4249400000000 1.0
C      1  0.4694880000000  0.4880200000000  0.5131880000000 1.0
C      1  0.4145160000000  0.5381980000000  0.5159740000000 1.0
C      1  0.4946110000000  0.4440980000000  0.4511340000000 1.0
C      1  0.4381860000000  0.5263300000000  0.5527290000000 1.0
C      1  0.5297070000000  0.5790990000000  0.5284280000000 1.0
C      1  0.5164960000000  0.5623440000000  0.4564860000000 1.0
C      1  0.5367610000000  0.5686950000000  0.4772670000000 1.0
C      1  0.4007450000000  0.5190070000000  0.4709150000000 1.0
C      1  0.4918420000000  0.4782730000000  0.4952780000000 1.0
C      1  0.5667030000000  0.5496810000000  0.5213260000000 1.0
C      1  0.5886530000000  0.5081820000000  0.5045020000000 1.0
C      1  0.5396970000000  0.5099930000000  0.5994310000000 1.0
C      1  0.5478480000000  0.5590700000000  0.5377190000000 1.0
C      1  0.4109470000000  0.5393150000000  0.4869000000000 1.0
C      1  0.5825800000000  0.4735510000000  0.5408830000000 1.0
C      1  0.5280970000000  0.4855230000000  0.5930480000000 1.0
C      1  0.5283090000000  0.5401900000000  0.4405820000000 1.0
C      1  0.4974750000000  0.5030450000000  0.4761440000000 1.0
C      1  0.4414500000000  0.5817570000000  0.5115740000000 1.0
C      1  0.5647900000000  0.5073480000000  0.5494520000000 1.0
C      1  0.4654290000000  0.5935820000000  0.5208400000000 1.0
C      1  0.4975830000000  0.4799460000000  0.5554280000000 1.0
C      1  0.4767210000000  0.4471990000000  0.5730540000000 1.0
C      1  0.5361660000000  0.4524840000000  0.4296950000000 1.0
C      1  0.4650320000000  0.5627640000000  0.5589510000000 1.0
C      1  0.4912670000000  0.4702920000000  0.4125940000000 1.0
C      1  0.5116620000000  0.4200940000000  0.4551450000000 1.0
C      1  0.4943690000000  0.5068970000000  0.4126840000000 1.0
C      1  0.4626590000000  0.5305470000000  0.4955190000000 1.0
C      1  0.4518250000000  0.4277640000000  0.4609570000000 1.0
C      1  0.5676690000000  0.5318620000000  0.4990240000000 1.0
C      1  0.4783420000000  0.5833740000000  0.5440930000000 1.0
C      1  0.5146580000000  0.4903960000000  0.4539750000000 1.0
C      1  0.5016120000000  0.4321370000000  0.5342710000000 1.0
C      1  0.4507960000000  0.4819190000000  0.5844490000000 1.0
C      1  0.4428050000000  0.4747670000000  0.5569940000000 1.0
C      1  0.5364720000000  0.4779580000000  0.4714290000000 1.0
C      1  0.4801910000000  0.5516940000000  0.5021110000000 1.0
C      1  0.5595110000000  0.5505340000000  0.4745540000000 1.0
C      1  0.4653110000000  0.4099990000000  0.4759030000000 1.0
C      1  0.4951900000000  0.4879720000000  0.3916620000000 1.0
C      1  0.4284720000000  0.5581090000000  0.4708710000000 1.0
C      1  0.5374880000000  0.5130610000000  0.5376760000000 1.0
C      1  0.4272480000000  0.5621010000000  0.5267320000000 1.0
C      1  0.4743640000000  0.4712120000000  0.5907800000000 1.0
C      1  0.4981490000000  0.5200400000000  0.5851330000000 1.0
C      1  0.4188500000000  0.5151840000000  0.5355210000000 1.0
C      1  0.4880640000000  0.5681850000000  0.4581920000000 1.0
C      1  0.4399500000000  0.5545420000000  0.5507680000000 1.0
C      1  0.5389900000000  0.4292470000000  0.4472590000000 1.0
C      1  0.5552570000000  0.5393820000000  0.4480110000000 1.0
C      1  0.4548000000000  0.4470620000000  0.5544950000000 1.0
C      1  0.4091310000000  0.5031410000000  0.4532350000000 1.0
C      1  0.5924920000000  0.4847980000000  0.4881130000000 1.0
C      1  0.5077880000000  0.5527750000000  0.5586910000000 1.0
C      1  0.5213060000000  0.5115530000000  0.4311240000000 1.0
C      1  0.4677630000000  0.4417020000000  0.4403940000000 1.0
C      1  0.5857140000000  0.5004450000000  0.5307660000000 1.0
END
