TITL C-22867-8277-3 -226.038610303888 125000 -368.024190729375 0 0 53 (C1) n - 1
REM
REM in /rds/project/t2_vol4/rds-t2-cs072/BORA/CARBON/from-Arr/AIRSS/Generating-Clusters/GAP-ML-2020/Only-C1/SD-CG/HFTN-CG
REM
REM
REM
REM
REM
REM ./C.cell (11c1c37f851c82e70ff6c80c92926a4b)
REM AIRSS Version 0.9.1 bugfix July 2018 build 013d7b7c2542+ Fri, 06 Jul 2018 19:26:36 +0100
REM compiler GCC version 9.3.0
REM options -cpp -mtune=generic -march=x86-64 -g -O0
REM seed -1440493991 -1310766032 -1122122039 -525688328 -1664075854 -206458046 959018085 -2044526808 -1335252236 -297446446 -1299775251 -1651165391 8429485 -1239314567 577927468 -577533099 682694357 1383880493 -1440190277 -1262991988 1102335519 -19422070 -1750166461 -1790799973 -1906762852 -276746849 1355080749 -1643324437 -222109261 1498459034 -1433841971 -216949217 -1486436814
REM
CELL 1.54180   50.00000   50.00000   50.00000   90.00000   90.00000   90.00000
LATT -1
SFAC C  
C      1  0.4835440000000  0.5032890000000  0.5192130000000 1.0
C      1  0.4874510000000  0.5486220000000  0.5448530000000 1.0
C      1  0.5163260000000  0.4377920000000  0.5058240000000 1.0
C      1  0.4463080000000  0.4855230000000  0.5205500000000 1.0
C      1  0.4859180000000  0.5259730000000  0.5622240000000 1.0
C      1  0.5115170000000  0.5440850000000  0.5271020000000 1.0
C      1  0.4895820000000  0.5286690000000  0.5060110000000 1.0
C      1  0.4972940000000  0.4833860000000  0.5057050000000 1.0
C      1  0.4445610000000  0.5269870000000  0.4932200000000 1.0
C      1  0.5428870000000  0.4767630000000  0.4555270000000 1.0
C      1  0.4956010000000  0.5608080000000  0.4628420000000 1.0
C      1  0.5053330000000  0.4911350000000  0.4333320000000 1.0
C      1  0.5334410000000  0.4731370000000  0.5421870000000 1.0
C      1  0.5103600000000  0.4819700000000  0.5565760000000 1.0
C      1  0.4475810000000  0.4833450000000  0.4727250000000 1.0
C      1  0.5191130000000  0.5146040000000  0.4415970000000 1.0
C      1  0.4709420000000  0.5171250000000  0.4513650000000 1.0
C      1  0.5538780000000  0.5189860000000  0.5464910000000 1.0
C      1  0.5767770000000  0.5058870000000  0.4933000000000 1.0
C      1  0.4783710000000  0.4496470000000  0.4649760000000 1.0
C      1  0.5236900000000  0.4407350000000  0.4786200000000 1.0
C      1  0.4649500000000  0.4715710000000  0.4531230000000 1.0
C      1  0.4614730000000  0.5507900000000  0.5318130000000 1.0
C      1  0.5556250000000  0.4628120000000  0.5028110000000 1.0
C      1  0.5034460000000  0.4920460000000  0.4815800000000 1.0
C      1  0.4504930000000  0.4692560000000  0.4976850000000 1.0
C      1  0.5433470000000  0.5057850000000  0.4555970000000 1.0
C      1  0.5057010000000  0.4472110000000  0.4576140000000 1.0
C      1  0.5185210000000  0.4679090000000  0.4421480000000 1.0
C      1  0.5354060000000  0.4537330000000  0.5212270000000 1.0
C      1  0.5664810000000  0.4878150000000  0.5110480000000 1.0
C      1  0.5541090000000  0.4931890000000  0.5369290000000 1.0
C      1  0.4983740000000  0.5194690000000  0.4802150000000 1.0
C      1  0.4374220000000  0.5129210000000  0.5168480000000 1.0
C      1  0.4851080000000  0.4687880000000  0.5514890000000 1.0
C      1  0.4644460000000  0.4879730000000  0.5438600000000 1.0
C      1  0.4781680000000  0.5672920000000  0.4850230000000 1.0
C      1  0.4878290000000  0.4368030000000  0.5122590000000 1.0
C      1  0.5258280000000  0.5567370000000  0.5033600000000 1.0
C      1  0.4461160000000  0.5286260000000  0.5393900000000 1.0
C      1  0.5094130000000  0.5104280000000  0.5609350000000 1.0
C      1  0.5278210000000  0.5272360000000  0.5460600000000 1.0
C      1  0.4969660000000  0.5327260000000  0.4544050000000 1.0
C      1  0.5453400000000  0.5435100000000  0.4891060000000 1.0
C      1  0.4778670000000  0.4923310000000  0.4393970000000 1.0
C      1  0.4694560000000  0.4474760000000  0.4923180000000 1.0
C      1  0.5059320000000  0.5695390000000  0.4869440000000 1.0
C      1  0.4494550000000  0.5120380000000  0.4702910000000 1.0
C      1  0.4847920000000  0.4468010000000  0.5369020000000 1.0
C      1  0.4652130000000  0.5478750000000  0.5023330000000 1.0
C      1  0.5471900000000  0.4576890000000  0.4763460000000 1.0
C      1  0.5568650000000  0.5206360000000  0.4783580000000 1.0
C      1  0.4603730000000  0.5125210000000  0.5583480000000 1.0
END
