TITL C-224011-2902-10 0.0407862787762021 125000 -168.4296282836 0 0 26 (C1) n - 1
REM
REM in /rds/project/t2_vol4/rds-t2-cs072/BORA/CARBON/from-Arr/AIRSS/Generating-Clusters/GAP-ML-2020/Only-C1/SD-CG/HFTN-CG
REM
REM
REM
REM
REM
REM ./C.cell (11c1c37f851c82e70ff6c80c92926a4b)
REM AIRSS Version 0.9.1 bugfix July 2018 build 013d7b7c2542+ Fri, 06 Jul 2018 19:26:36 +0100
REM compiler GCC version 9.3.0
REM options -cpp -mtune=generic -march=x86-64 -g -O0
REM seed -976236381 -2130034422 1559342818 -1914509204 1934135140 648290782 1431538865 -338093679 284766785 -1719848056 17877906 2086669031 1032259641 807901950 -255050268 784289332 -1121463520 -1018304414 434052386 957757513 -2001215531 -1495862983 631200507 -335134089 -413043857 1533727994 -312894974 -1573873362 1915875806 1107608977 -922258860 536798670 -671149192
REM
CELL 1.54180   50.00000   50.00000   50.00000   90.00000   90.00000   90.00000
LATT -1
SFAC C  
C      1  0.4588850000000  0.4981540000000  0.4579170000000 1.0
C      1  0.4971680000000  0.4593980000000  0.4546170000000 1.0
C      1  0.4820480000000  0.5046620000000  0.4440670000000 1.0
C      1  0.5435730000000  0.5302230000000  0.5021210000000 1.0
C      1  0.4992430000000  0.4874360000000  0.5475640000000 1.0
C      1  0.4991930000000  0.4628920000000  0.5027060000000 1.0
C      1  0.4981450000000  0.5258870000000  0.4560580000000 1.0
C      1  0.5200260000000  0.5066700000000  0.4630000000000 1.0
C      1  0.4652760000000  0.4987800000000  0.5087750000000 1.0
C      1  0.4758430000000  0.5278790000000  0.5019660000000 1.0
C      1  0.5374490000000  0.5066240000000  0.4849130000000 1.0
C      1  0.5274650000000  0.4880180000000  0.5500550000000 1.0
C      1  0.5047670000000  0.4849700000000  0.4507990000000 1.0
C      1  0.4784600000000  0.4964020000000  0.5657090000000 1.0
C      1  0.4873670000000  0.4793750000000  0.5221300000000 1.0
C      1  0.4842280000000  0.5379710000000  0.4773640000000 1.0
C      1  0.5263820000000  0.4614680000000  0.5008780000000 1.0
C      1  0.4833000000000  0.4636180000000  0.4786850000000 1.0
C      1  0.5255000000000  0.5509720000000  0.5039450000000 1.0
C      1  0.5570400000000  0.5204100000000  0.5252170000000 1.0
C      1  0.4994590000000  0.5422590000000  0.5017730000000 1.0
C      1  0.4630360000000  0.4842540000000  0.4814550000000 1.0
C      1  0.5408050000000  0.4840180000000  0.5028730000000 1.0
C      1  0.4550190000000  0.5010690000000  0.5548520000000 1.0
C      1  0.4456460000000  0.5012490000000  0.5306020000000 1.0
C      1  0.5446760000000  0.4953410000000  0.5299580000000 1.0
END
