TITL C-224013-2819-7 0.0333977814031275 125000 -463.738821281601 0 0 68 (C1) n - 1
REM
REM in /rds/project/t2_vol4/rds-t2-cs072/BORA/CARBON/from-Arr/AIRSS/Generating-Clusters/GAP-ML-2020/Only-C1/SD-CG/HFTN-CG
REM
REM
REM
REM
REM
REM ./C.cell (11c1c37f851c82e70ff6c80c92926a4b)
REM AIRSS Version 0.9.1 bugfix July 2018 build 013d7b7c2542+ Fri, 06 Jul 2018 19:26:36 +0100
REM compiler GCC version 9.3.0
REM options -cpp -mtune=generic -march=x86-64 -g -O0
REM seed -1282311233 970714714 338159162 699641557 1366330050 365804375 -988810636 -143747710 -1092335396 -103041969 1805936124 584428264 296372507 -359297787 -54542647 -1126389132 252359351 1181421061 1194815521 1018538196 -586438521 -193749831 -90939081 -1326212189 69606334 -1294154552 -1370835508 -1575940782 189185971 -263933228 -374357172 955338881 -1079559512
REM
CELL 1.54180   50.00000   50.00000   50.00000   90.00000   90.00000   90.00000
LATT -1
SFAC C  
C      1  0.5265400000000  0.5493490000000  0.5708510000000 1.0
C      1  0.5552910000000  0.4834580000000  0.5413340000000 1.0
C      1  0.4411230000000  0.4865120000000  0.5271500000000 1.0
C      1  0.4884360000000  0.5098720000000  0.5104030000000 1.0
C      1  0.4905320000000  0.5448400000000  0.4482590000000 1.0
C      1  0.4653770000000  0.4633610000000  0.4415830000000 1.0
C      1  0.5361190000000  0.4619680000000  0.5455690000000 1.0
C      1  0.5294760000000  0.4415480000000  0.4794710000000 1.0
C      1  0.5241840000000  0.5490180000000  0.5178660000000 1.0
C      1  0.5698700000000  0.4785440000000  0.5169930000000 1.0
C      1  0.4334640000000  0.5338380000000  0.5136270000000 1.0
C      1  0.4683750000000  0.4575010000000  0.4688720000000 1.0
C      1  0.5192200000000  0.5585880000000  0.5460930000000 1.0
C      1  0.4729480000000  0.5613830000000  0.4955280000000 1.0
C      1  0.4951750000000  0.5244490000000  0.4277770000000 1.0
C      1  0.4973590000000  0.5653770000000  0.5110820000000 1.0
C      1  0.4276240000000  0.4976390000000  0.4813650000000 1.0
C      1  0.5615790000000  0.4891650000000  0.4505630000000 1.0
C      1  0.4906940000000  0.4723730000000  0.4289030000000 1.0
C      1  0.4514650000000  0.4406450000000  0.5362300000000 1.0
C      1  0.4800750000000  0.5005690000000  0.4335120000000 1.0
C      1  0.5606870000000  0.5076110000000  0.4753810000000 1.0
C      1  0.5325910000000  0.4947330000000  0.4789430000000 1.0
C      1  0.5413000000000  0.5549320000000  0.4605040000000 1.0
C      1  0.5639740000000  0.5230080000000  0.5187090000000 1.0
C      1  0.4678290000000  0.5102710000000  0.5711730000000 1.0
C      1  0.5230020000000  0.5136900000000  0.4337540000000 1.0
C      1  0.4911680000000  0.5656030000000  0.5390020000000 1.0
C      1  0.5581900000000  0.4483310000000  0.4795480000000 1.0
C      1  0.5184230000000  0.4342670000000  0.5058390000000 1.0
C      1  0.4764190000000  0.5171580000000  0.4847090000000 1.0
C      1  0.5614950000000  0.4536280000000  0.5069750000000 1.0
C      1  0.4964910000000  0.4818820000000  0.5063920000000 1.0
C      1  0.5732710000000  0.5024140000000  0.5018200000000 1.0
C      1  0.4370540000000  0.4781650000000  0.5001080000000 1.0
C      1  0.5392390000000  0.4442800000000  0.5231110000000 1.0
C      1  0.5240830000000  0.4933600000000  0.5060710000000 1.0
C      1  0.4545190000000  0.5278630000000  0.5536780000000 1.0
C      1  0.5152470000000  0.5295370000000  0.5828210000000 1.0
C      1  0.4646700000000  0.5531530000000  0.5419160000000 1.0
C      1  0.5092640000000  0.4653200000000  0.5534000000000 1.0
C      1  0.4379900000000  0.5142170000000  0.5343370000000 1.0
C      1  0.4596720000000  0.4686330000000  0.5421960000000 1.0
C      1  0.4905150000000  0.4630230000000  0.5304610000000 1.0
C      1  0.4964550000000  0.4809660000000  0.5729850000000 1.0
C      1  0.5162220000000  0.5184630000000  0.5212610000000 1.0
C      1  0.4700600000000  0.5446530000000  0.4701470000000 1.0
C      1  0.4629540000000  0.4357850000000  0.5108430000000 1.0
C      1  0.4917850000000  0.4737040000000  0.4772610000000 1.0
C      1  0.4274720000000  0.5259490000000  0.4884190000000 1.0
C      1  0.4968070000000  0.5096850000000  0.5801620000000 1.0
C      1  0.5181390000000  0.4650890000000  0.4667640000000 1.0
C      1  0.4515350000000  0.4540030000000  0.4910750000000 1.0
C      1  0.4675830000000  0.4820230000000  0.5669600000000 1.0
C      1  0.5170700000000  0.4694020000000  0.4381820000000 1.0
C      1  0.5160370000000  0.5433730000000  0.4612900000000 1.0
C      1  0.4892430000000  0.5010470000000  0.4650410000000 1.0
C      1  0.5514770000000  0.5442390000000  0.5051770000000 1.0
C      1  0.4524230000000  0.4899840000000  0.4372110000000 1.0
C      1  0.5374170000000  0.4895310000000  0.4317290000000 1.0
C      1  0.5159960000000  0.5125930000000  0.4632250000000 1.0
C      1  0.4381740000000  0.5048300000000  0.4552860000000 1.0
C      1  0.5555590000000  0.5388630000000  0.4776120000000 1.0
C      1  0.5685680000000  0.4648480000000  0.4605170000000 1.0
C      1  0.5485520000000  0.5114240000000  0.5390860000000 1.0
C      1  0.4534940000000  0.5546610000000  0.5154970000000 1.0
C      1  0.4428530000000  0.5329680000000  0.4650040000000 1.0
C      1  0.4921060000000  0.4368390000000  0.5153840000000 1.0
END
