TITL C-22836-2311-10 74.0237826113069 125000 -443.327988073272 0 0 65 (C1) n - 1
REM
REM in /rds/project/t2_vol4/rds-t2-cs072/BORA/CARBON/from-Arr/AIRSS/Generating-Clusters/GAP-ML-2020/Only-C1/SD-CG/HFTN-CG
REM
REM
REM
REM
REM
REM ./C.cell (11c1c37f851c82e70ff6c80c92926a4b)
REM AIRSS Version 0.9.1 bugfix July 2018 build 013d7b7c2542+ Fri, 06 Jul 2018 19:26:36 +0100
REM compiler GCC version 9.3.0
REM options -cpp -mtune=generic -march=x86-64 -g -O0
REM seed -1608747070 972818927 1337490641 -1663995698 -1796992007 895062595 -1890908324 1157534930 1600735747 -163905238 1972101447 -298135075 -936917295 -1298681709 587962314 -556121468 -2128098494 -1108619169 -349468444 -1682560550 1237069671 -610439800 -1522560914 1881186488 1004786968 -1313672066 941202235 -176219275 1926419164 -2028459731 219391625 -171329434 -1920071251
REM
CELL 1.54180   50.00000   50.00000   50.00000   90.00000   90.00000   90.00000
LATT -1
SFAC C  
C      1  0.4836870000000  0.5426320000000  0.4339750000000 1.0
C      1  0.4516750000000  0.5430830000000  0.4682990000000 1.0
C      1  0.5433080000000  0.5027370000000  0.4562470000000 1.0
C      1  0.4360570000000  0.4993220000000  0.4852390000000 1.0
C      1  0.4721060000000  0.5180050000000  0.5050810000000 1.0
C      1  0.5367470000000  0.5498680000000  0.4835060000000 1.0
C      1  0.5331360000000  0.5463820000000  0.5144660000000 1.0
C      1  0.4517700000000  0.4423310000000  0.4826180000000 1.0
C      1  0.5603540000000  0.5037540000000  0.5580240000000 1.0
C      1  0.4460970000000  0.4857440000000  0.4606680000000 1.0
C      1  0.4935960000000  0.5698260000000  0.4586700000000 1.0
C      1  0.5111540000000  0.5647200000000  0.5251320000000 1.0
C      1  0.5227010000000  0.4911260000000  0.4375650000000 1.0
C      1  0.5003610000000  0.4383220000000  0.5080900000000 1.0
C      1  0.4902800000000  0.4667100000000  0.5029050000000 1.0
C      1  0.4604550000000  0.4616190000000  0.5012340000000 1.0
C      1  0.4456950000000  0.4570600000000  0.4586040000000 1.0
C      1  0.5226140000000  0.4341500000000  0.4683200000000 1.0
C      1  0.4733120000000  0.4264850000000  0.4706700000000 1.0
C      1  0.4674750000000  0.5666350000000  0.4741760000000 1.0
C      1  0.4987310000000  0.4254990000000  0.4831140000000 1.0
C      1  0.4906050000000  0.5328330000000  0.4896670000000 1.0
C      1  0.4651240000000  0.5274750000000  0.4470590000000 1.0
C      1  0.5425690000000  0.4565680000000  0.5110800000000 1.0
C      1  0.5295010000000  0.4845020000000  0.5183430000000 1.0
C      1  0.5500030000000  0.4722290000000  0.4602530000000 1.0
C      1  0.4682090000000  0.4419110000000  0.4464060000000 1.0
C      1  0.4648630000000  0.5136420000000  0.5583560000000 1.0
C      1  0.4944300000000  0.4844180000000  0.4502360000000 1.0
C      1  0.4908190000000  0.4564220000000  0.4395220000000 1.0
C      1  0.5118580000000  0.4879180000000  0.5706940000000 1.0
C      1  0.4484640000000  0.5347400000000  0.5166790000000 1.0
C      1  0.4879620000000  0.5539140000000  0.5392720000000 1.0
C      1  0.5392810000000  0.5228440000000  0.5574960000000 1.0
C      1  0.5572500000000  0.4757210000000  0.5556740000000 1.0
C      1  0.5641660000000  0.4697700000000  0.5270360000000 1.0
C      1  0.4900430000000  0.5265100000000  0.5515290000000 1.0
C      1  0.4732580000000  0.5746380000000  0.5005910000000 1.0
C      1  0.4952000000000  0.5655480000000  0.4314120000000 1.0
C      1  0.5424060000000  0.4522480000000  0.4817450000000 1.0
C      1  0.4921140000000  0.4724570000000  0.5533190000000 1.0
C      1  0.5137190000000  0.5153260000000  0.5652190000000 1.0
C      1  0.5422040000000  0.5220040000000  0.4755560000000 1.0
C      1  0.5058500000000  0.4809560000000  0.4803600000000 1.0
C      1  0.4929030000000  0.5107260000000  0.5249340000000 1.0
C      1  0.5129170000000  0.5227990000000  0.5064040000000 1.0
C      1  0.5732890000000  0.5156700000000  0.5339860000000 1.0
C      1  0.5152790000000  0.5693910000000  0.4778350000000 1.0
C      1  0.4647050000000  0.4843960000000  0.5547870000000 1.0
C      1  0.4437290000000  0.5178340000000  0.5393330000000 1.0
C      1  0.5140450000000  0.4511840000000  0.5508400000000 1.0
C      1  0.5322150000000  0.4682460000000  0.5648910000000 1.0
C      1  0.5000210000000  0.4828760000000  0.5260920000000 1.0
C      1  0.5260980000000  0.5007590000000  0.4934700000000 1.0
C      1  0.4388080000000  0.5278800000000  0.4886920000000 1.0
C      1  0.4427260000000  0.4823310000000  0.5077860000000 1.0
C      1  0.5218460000000  0.4405980000000  0.5258250000000 1.0
C      1  0.4677130000000  0.4993270000000  0.4478000000000 1.0
C      1  0.4442510000000  0.4895130000000  0.5346670000000 1.0
C      1  0.5784110000000  0.4928700000000  0.5201730000000 1.0
C      1  0.5016500000000  0.5779510000000  0.5020450000000 1.0
C      1  0.5170940000000  0.4447710000000  0.4424570000000 1.0
C      1  0.4646700000000  0.5587910000000  0.5230140000000 1.0
C      1  0.5513360000000  0.5356640000000  0.5333850000000 1.0
C      1  0.5350870000000  0.4658210000000  0.4374770000000 1.0
END
