TITL C-22568-8142-3 -338.073743820872 125000 -711.649556673576 0 0 101 (C1) n - 1
REM
REM in /rds/project/t2_vol4/rds-t2-cs072/BORA/CARBON/from-Arr/AIRSS/Generating-Clusters/GAP-ML-2020/Only-C1/SD-CG/HFTN-CG
REM
REM
REM
REM
REM
REM ./C.cell (11c1c37f851c82e70ff6c80c92926a4b)
REM AIRSS Version 0.9.1 bugfix July 2018 build 013d7b7c2542+ Fri, 06 Jul 2018 19:26:36 +0100
REM compiler GCC version 9.3.0
REM options -cpp -mtune=generic -march=x86-64 -g -O0
REM seed 1593525156 -863264444 608755409 -765078129 241071675 -452778029 -988580212 -1754942968 -323950733 1711674521 19479681 1704760808 906780075 402534831 -635147434 109135018 -760337881 1730144897 197555517 -689861042 1511956117 -1325951022 -1529884602 2108694159 -1455718763 -633216710 -319504041 505636036 -734850694 -90968858 397378074 350693763 438972381
REM
CELL 1.54180   50.00000   50.00000   50.00000   90.00000   90.00000   90.00000
LATT -1
SFAC C  
C      1  0.4941260000000  0.5417660000000  0.5487880000000 1.0
C      1  0.4172250000000  0.5067680000000  0.5272930000000 1.0
C      1  0.5264520000000  0.4314690000000  0.5529280000000 1.0
C      1  0.5067420000000  0.4303430000000  0.5083230000000 1.0
C      1  0.4218970000000  0.4664290000000  0.4871920000000 1.0
C      1  0.4350870000000  0.5555470000000  0.5191990000000 1.0
C      1  0.5243230000000  0.5046370000000  0.5233540000000 1.0
C      1  0.4506990000000  0.4687550000000  0.4326250000000 1.0
C      1  0.5734360000000  0.4874950000000  0.4661840000000 1.0
C      1  0.4295300000000  0.5092320000000  0.5520770000000 1.0
C      1  0.4862900000000  0.5803040000000  0.5199410000000 1.0
C      1  0.4442480000000  0.5332660000000  0.5613260000000 1.0
C      1  0.4738110000000  0.4668280000000  0.5022500000000 1.0
C      1  0.5764090000000  0.5114900000000  0.5501560000000 1.0
C      1  0.4402760000000  0.4455350000000  0.4805920000000 1.0
C      1  0.4453230000000  0.4859780000000  0.5564620000000 1.0
C      1  0.4769710000000  0.5643340000000  0.5412040000000 1.0
C      1  0.4675920000000  0.5313000000000  0.4918240000000 1.0
C      1  0.5892090000000  0.5224900000000  0.5055710000000 1.0
C      1  0.5220410000000  0.5162090000000  0.4272980000000 1.0
C      1  0.4798290000000  0.4366860000000  0.5474790000000 1.0
C      1  0.4269120000000  0.4794340000000  0.5143850000000 1.0
C      1  0.5553270000000  0.5229920000000  0.5668160000000 1.0
C      1  0.5173900000000  0.4155710000000  0.4659660000000 1.0
C      1  0.5107860000000  0.5770190000000  0.5027170000000 1.0
C      1  0.4580650000000  0.4522370000000  0.4556430000000 1.0
C      1  0.5458570000000  0.4783940000000  0.4280300000000 1.0
C      1  0.5296680000000  0.4214540000000  0.4905250000000 1.0
C      1  0.4780660000000  0.5170810000000  0.5359950000000 1.0
C      1  0.5805460000000  0.4865370000000  0.5350900000000 1.0
C      1  0.5835410000000  0.4758280000000  0.4898290000000 1.0
C      1  0.5753640000000  0.5492470000000  0.4601340000000 1.0
C      1  0.4693440000000  0.5840030000000  0.4967370000000 1.0
C      1  0.5716150000000  0.5357830000000  0.4847970000000 1.0
C      1  0.4960300000000  0.5284170000000  0.4254080000000 1.0
C      1  0.4466000000000  0.5673700000000  0.4959900000000 1.0
C      1  0.5336880000000  0.5128510000000  0.5838350000000 1.0
C      1  0.4505630000000  0.5247830000000  0.4318540000000 1.0
C      1  0.4730280000000  0.5115230000000  0.4200190000000 1.0
C      1  0.5379630000000  0.5768110000000  0.4890820000000 1.0
C      1  0.4268290000000  0.5110570000000  0.4371790000000 1.0
C      1  0.4597000000000  0.4387390000000  0.5023060000000 1.0
C      1  0.5540430000000  0.4371670000000  0.4852300000000 1.0
C      1  0.5040460000000  0.4249970000000  0.5363650000000 1.0
C      1  0.4888350000000  0.4168960000000  0.4681670000000 1.0
C      1  0.5222910000000  0.4882520000000  0.4204140000000 1.0
C      1  0.4272270000000  0.4822510000000  0.4383930000000 1.0
C      1  0.4486790000000  0.5560500000000  0.5438650000000 1.0
C      1  0.4939230000000  0.4928770000000  0.4719350000000 1.0
C      1  0.4991500000000  0.4708030000000  0.4206860000000 1.0
C      1  0.5025630000000  0.4456590000000  0.4342660000000 1.0
C      1  0.4731560000000  0.4826080000000  0.4197360000000 1.0
C      1  0.5649900000000  0.5530540000000  0.5301490000000 1.0
C      1  0.4923120000000  0.5813820000000  0.4794550000000 1.0
C      1  0.5908880000000  0.4944730000000  0.5093770000000 1.0
C      1  0.4235350000000  0.5301850000000  0.4820330000000 1.0
C      1  0.4658290000000  0.5232940000000  0.5770240000000 1.0
C      1  0.4473060000000  0.5464900000000  0.4749880000000 1.0
C      1  0.4569720000000  0.4430170000000  0.5316490000000 1.0
C      1  0.5031560000000  0.5696640000000  0.4561140000000 1.0
C      1  0.5408830000000  0.4575560000000  0.5467520000000 1.0
C      1  0.4964780000000  0.5086650000000  0.5164010000000 1.0
C      1  0.5432380000000  0.5250860000000  0.4444890000000 1.0
C      1  0.5236190000000  0.5490250000000  0.5084240000000 1.0
C      1  0.5463290000000  0.5446810000000  0.5502700000000 1.0
C      1  0.5265490000000  0.4340730000000  0.4463110000000 1.0
C      1  0.5699000000000  0.4537180000000  0.5030470000000 1.0
C      1  0.4918870000000  0.4518720000000  0.5692410000000 1.0
C      1  0.5042880000000  0.4645790000000  0.5085000000000 1.0
C      1  0.5842430000000  0.5325580000000  0.5314430000000 1.0
C      1  0.5217900000000  0.5370770000000  0.5357840000000 1.0
C      1  0.4245510000000  0.5293050000000  0.5109900000000 1.0
C      1  0.4869960000000  0.5512710000000  0.4409040000000 1.0
C      1  0.4143040000000  0.5116760000000  0.4637790000000 1.0
C      1  0.4818600000000  0.4218320000000  0.4944270000000 1.0
C      1  0.4570110000000  0.5168060000000  0.5141680000000 1.0
C      1  0.5223610000000  0.4867300000000  0.5810930000000 1.0
C      1  0.4145390000000  0.4821570000000  0.4649620000000 1.0
C      1  0.4396040000000  0.4655360000000  0.5370930000000 1.0
C      1  0.5618110000000  0.4695010000000  0.4475380000000 1.0
C      1  0.5363590000000  0.4626510000000  0.5770630000000 1.0
C      1  0.4724120000000  0.4979050000000  0.5609060000000 1.0
C      1  0.5135320000000  0.5307430000000  0.5925020000000 1.0
C      1  0.4707000000000  0.4777690000000  0.4754770000000 1.0
C      1  0.4912430000000  0.5366340000000  0.5790320000000 1.0
C      1  0.4543100000000  0.4879490000000  0.5079710000000 1.0
C      1  0.5339010000000  0.5038870000000  0.4935160000000 1.0
C      1  0.5164140000000  0.4803340000000  0.4849900000000 1.0
C      1  0.4591710000000  0.5468280000000  0.4475400000000 1.0
C      1  0.4797850000000  0.4351720000000  0.4488540000000 1.0
C      1  0.4978240000000  0.4805730000000  0.5633040000000 1.0
C      1  0.5660250000000  0.4617480000000  0.5312480000000 1.0
C      1  0.5517060000000  0.4446840000000  0.4572550000000 1.0
C      1  0.5504970000000  0.5528300000000  0.4483460000000 1.0
C      1  0.4922660000000  0.5184150000000  0.4871290000000 1.0
C      1  0.5318340000000  0.5699640000000  0.4615400000000 1.0
C      1  0.5172230000000  0.4410840000000  0.5777800000000 1.0
C      1  0.5188900000000  0.5294330000000  0.4869310000000 1.0
C      1  0.5557400000000  0.5113220000000  0.4709100000000 1.0
C      1  0.5159870000000  0.4770310000000  0.5346330000000 1.0
C      1  0.5546400000000  0.5562330000000  0.5032030000000 1.0
END
