TITL C-22844-2240-3 -0.0536412893219961 125000 -374.973540994841 0 0 54 (C1) n - 1
REM
REM in /rds/project/t2_vol4/rds-t2-cs072/BORA/CARBON/from-Arr/AIRSS/Generating-Clusters/GAP-ML-2020/Only-C1/SD-CG/HFTN-CG
REM
REM
REM
REM
REM
REM ./C.cell (11c1c37f851c82e70ff6c80c92926a4b)
REM AIRSS Version 0.9.1 bugfix July 2018 build 013d7b7c2542+ Fri, 06 Jul 2018 19:26:36 +0100
REM compiler GCC version 9.3.0
REM options -cpp -mtune=generic -march=x86-64 -g -O0
REM seed 1992581269 1239086869 1242414506 -1187765283 -905202331 925155097 1636839139 1359399644 -1555567808 -223747936 1151795989 1211292486 279749937 -1250268267 1651194204 1570213256 124173225 -1576930929 447958796 -1383391069 95831106 2066444475 1487966069 -477272632 540445538 147077910 -1280329161 500171349 1288842322 1654191528 -1087894972 -647599337 -735735407
REM
CELL 1.54180   50.00000   50.00000   50.00000   90.00000   90.00000   90.00000
LATT -1
SFAC C  
C      1  0.4896720000000  0.4843570000000  0.4988780000000 1.0
C      1  0.5135720000000  0.5585920000000  0.4590790000000 1.0
C      1  0.4488430000000  0.5215470000000  0.4756000000000 1.0
C      1  0.4571100000000  0.4522860000000  0.5209710000000 1.0
C      1  0.4595110000000  0.4554700000000  0.4717510000000 1.0
C      1  0.4836360000000  0.4410880000000  0.5223820000000 1.0
C      1  0.4853920000000  0.4847590000000  0.5291560000000 1.0
C      1  0.4650030000000  0.4773780000000  0.4533840000000 1.0
C      1  0.5343990000000  0.4946660000000  0.4487510000000 1.0
C      1  0.5089800000000  0.5561440000000  0.5220760000000 1.0
C      1  0.5140560000000  0.4941110000000  0.4955890000000 1.0
C      1  0.5439780000000  0.4710980000000  0.4627080000000 1.0
C      1  0.5112300000000  0.5732350000000  0.4840870000000 1.0
C      1  0.5425240000000  0.4688490000000  0.5325200000000 1.0
C      1  0.4824840000000  0.4389130000000  0.4733830000000 1.0
C      1  0.5477200000000  0.5176100000000  0.4574980000000 1.0
C      1  0.5648970000000  0.4972560000000  0.4999870000000 1.0
C      1  0.4661090000000  0.5388390000000  0.5245910000000 1.0
C      1  0.5218670000000  0.4662520000000  0.5518520000000 1.0
C      1  0.5267530000000  0.4488960000000  0.4654220000000 1.0
C      1  0.5309800000000  0.5596790000000  0.5033470000000 1.0
C      1  0.4660830000000  0.5030610000000  0.5705420000000 1.0
C      1  0.5577210000000  0.5106090000000  0.5534100000000 1.0
C      1  0.4906760000000  0.5717020000000  0.5035970000000 1.0
C      1  0.4320080000000  0.4828960000000  0.4967680000000 1.0
C      1  0.5259110000000  0.5035370000000  0.5195140000000 1.0
C      1  0.5571890000000  0.4729370000000  0.4882670000000 1.0
C      1  0.4910340000000  0.4722720000000  0.4419470000000 1.0
C      1  0.4931820000000  0.5352520000000  0.5339610000000 1.0
C      1  0.4451870000000  0.4591970000000  0.4960590000000 1.0
C      1  0.4966520000000  0.4335750000000  0.4981440000000 1.0
C      1  0.5613370000000  0.5192910000000  0.4836720000000 1.0
C      1  0.4655500000000  0.5588230000000  0.5029700000000 1.0
C      1  0.4590200000000  0.4752170000000  0.5384190000000 1.0
C      1  0.4624110000000  0.5059160000000  0.4554130000000 1.0
C      1  0.4892280000000  0.4977510000000  0.5792650000000 1.0
C      1  0.5248050000000  0.4400360000000  0.4930940000000 1.0
C      1  0.4394340000000  0.5083330000000  0.4999650000000 1.0
C      1  0.5375730000000  0.5441450000000  0.4604870000000 1.0
C      1  0.5401030000000  0.5089090000000  0.5716460000000 1.0
C      1  0.4900230000000  0.5461330000000  0.4482060000000 1.0
C      1  0.5149000000000  0.4953560000000  0.5653100000000 1.0
C      1  0.5438410000000  0.4557160000000  0.5073340000000 1.0
C      1  0.4466640000000  0.5184290000000  0.5265540000000 1.0
C      1  0.5013220000000  0.4486360000000  0.4537130000000 1.0
C      1  0.5533790000000  0.4969520000000  0.5278220000000 1.0
C      1  0.4868840000000  0.5174480000000  0.4440740000000 1.0
C      1  0.5499880000000  0.5456690000000  0.4878460000000 1.0
C      1  0.4669660000000  0.5599790000000  0.4545230000000 1.0
C      1  0.5064830000000  0.4961960000000  0.4397340000000 1.0
C      1  0.4561720000000  0.5492130000000  0.4773400000000 1.0
C      1  0.5039040000000  0.5074910000000  0.5385740000000 1.0
C      1  0.4979170000000  0.4590190000000  0.5398850000000 1.0
C      1  0.4477400000000  0.4992800000000  0.5489340000000 1.0
END
