TITL C-221351-4632-1 -0.0306944894734167 125000 -88.2878245758404 0 0 14 (C1) n - 1
REM
REM in /rds/project/t2_vol4/rds-t2-cs072/BORA/CARBON/from-Arr/AIRSS/Generating-Clusters/GAP-ML-2020/Only-C1/SD-CG/HFTN-CG
REM
REM
REM
REM
REM
REM ./C.cell (11c1c37f851c82e70ff6c80c92926a4b)
REM AIRSS Version 0.9.1 bugfix July 2018 build 013d7b7c2542+ Fri, 06 Jul 2018 19:26:36 +0100
REM compiler GCC version 9.3.0
REM options -cpp -mtune=generic -march=x86-64 -g -O0
REM seed -1499710500 1233808867 -871406301 -1254641209 173276212 -1945187449 2040301205 -1072218281 1300775525 630622396 1228624314 1629711337 -1102426326 -1338044706 -766323774 -1697013477 364238728 1125178010 8258179 -2100531538 -1173145370 737746363 -1844776569 1408967390 -30734038 478665041 -319976516 -1131370426 367487181 -1785315576 1551028590 -1247303915 2057433672
REM
CELL 1.54180   50.00000   50.00000   50.00000   90.00000   90.00000   90.00000
LATT -1
SFAC C  
C      1  0.4969110000000  0.5318630000000  0.4782460000000 1.0
C      1  0.5380730000000  0.5169280000000  0.4577290000000 1.0
C      1  0.4992960000000  0.4652910000000  0.5038910000000 1.0
C      1  0.5146080000000  0.4827990000000  0.5589880000000 1.0
C      1  0.5059050000000  0.5138030000000  0.5260140000000 1.0
C      1  0.4971570000000  0.5128310000000  0.5011630000000 1.0
C      1  0.5110660000000  0.5072160000000  0.5498040000000 1.0
C      1  0.4709320000000  0.5371640000000  0.4669290000000 1.0
C      1  0.5197760000000  0.5338480000000  0.4631110000000 1.0
C      1  0.5160160000000  0.4607460000000  0.5464100000000 1.0
C      1  0.4880360000000  0.4859820000000  0.4910410000000 1.0
C      1  0.5098490000000  0.4519540000000  0.5224520000000 1.0
C      1  0.4644680000000  0.5121920000000  0.4633190000000 1.0
C      1  0.4679070000000  0.4873810000000  0.4709020000000 1.0
END
