TITL C-224020-4444-8 0.22075951149198 125000 -616.309214504754 0 0 89 (C1) n - 1
REM
REM in /rds/project/t2_vol4/rds-t2-cs072/BORA/CARBON/from-Arr/AIRSS/Generating-Clusters/GAP-ML-2020/Only-C1/SD-CG/HFTN-CG
REM
REM
REM
REM
REM
REM ./C.cell (11c1c37f851c82e70ff6c80c92926a4b)
REM AIRSS Version 0.9.1 bugfix July 2018 build 013d7b7c2542+ Fri, 06 Jul 2018 19:26:36 +0100
REM compiler GCC version 9.3.0
REM options -cpp -mtune=generic -march=x86-64 -g -O0
REM seed 628516306 787838099 -1173900568 -1692280153 1775842550 -1996415334 117154749 1783598321 -1518634457 293365685 -258942661 1890101127 -1212201250 2008575963 683663263 1865575307 1282674096 538842996 10015178 311789267 -772515945 -237211062 1943475271 124386990 1734950138 -29973571 -2140265770 2019389158 341489649 440396887 -1966018401 -1991685681 196989731
REM
CELL 1.54180   50.00000   50.00000   50.00000   90.00000   90.00000   90.00000
LATT -1
SFAC C  
C      1  0.5239620000000  0.5110860000000  0.4172060000000 1.0
C      1  0.5758280000000  0.5302710000000  0.4943810000000 1.0
C      1  0.4784640000000  0.5186350000000  0.4400130000000 1.0
C      1  0.4817830000000  0.4473710000000  0.4966880000000 1.0
C      1  0.5652090000000  0.5315920000000  0.4678440000000 1.0
C      1  0.5089380000000  0.4481330000000  0.5050580000000 1.0
C      1  0.5036300000000  0.5275040000000  0.5763940000000 1.0
C      1  0.4929020000000  0.4581950000000  0.5604460000000 1.0
C      1  0.5172360000000  0.5273610000000  0.4594730000000 1.0
C      1  0.4965160000000  0.5643880000000  0.5480900000000 1.0
C      1  0.4787990000000  0.4318380000000  0.4741180000000 1.0
C      1  0.4953950000000  0.5712780000000  0.5201950000000 1.0
C      1  0.5515070000000  0.4320760000000  0.5310680000000 1.0
C      1  0.4351000000000  0.5376750000000  0.5330180000000 1.0
C      1  0.5546990000000  0.4461230000000  0.4757570000000 1.0
C      1  0.4343270000000  0.5157020000000  0.5512750000000 1.0
C      1  0.5135850000000  0.5014120000000  0.5801460000000 1.0
C      1  0.5111660000000  0.4355120000000  0.5540950000000 1.0
C      1  0.5762620000000  0.4853630000000  0.4617030000000 1.0
C      1  0.5697230000000  0.4732820000000  0.5413490000000 1.0
C      1  0.5716780000000  0.5003330000000  0.5338060000000 1.0
C      1  0.4436920000000  0.5341990000000  0.4697610000000 1.0
C      1  0.4945460000000  0.4799630000000  0.5818240000000 1.0
C      1  0.4449870000000  0.5725420000000  0.4971890000000 1.0
C      1  0.5345420000000  0.4187430000000  0.5123470000000 1.0
C      1  0.5187380000000  0.4643290000000  0.4234050000000 1.0
C      1  0.4212980000000  0.4757460000000  0.4993870000000 1.0
C      1  0.5722110000000  0.4570040000000  0.4963280000000 1.0
C      1  0.4513610000000  0.5177270000000  0.4935200000000 1.0
C      1  0.5088220000000  0.4882130000000  0.4128780000000 1.0
C      1  0.5269310000000  0.5676950000000  0.4772710000000 1.0
C      1  0.4610070000000  0.5363530000000  0.5163670000000 1.0
C      1  0.4849040000000  0.5219850000000  0.5248590000000 1.0
C      1  0.5385670000000  0.4429060000000  0.5551400000000 1.0
C      1  0.5491810000000  0.4692860000000  0.5606610000000 1.0
C      1  0.5810660000000  0.5051200000000  0.5070350000000 1.0
C      1  0.5158700000000  0.4970620000000  0.4663730000000 1.0
C      1  0.4621120000000  0.4599340000000  0.5636350000000 1.0
C      1  0.5487020000000  0.5007150000000  0.4288900000000 1.0
C      1  0.4535320000000  0.5084550000000  0.4286270000000 1.0
C      1  0.5404070000000  0.5444850000000  0.4661390000000 1.0
C      1  0.5394260000000  0.5402600000000  0.5453090000000 1.0
C      1  0.5054980000000  0.4331610000000  0.4615550000000 1.0
C      1  0.5286490000000  0.4335040000000  0.4828000000000 1.0
C      1  0.5607650000000  0.4629670000000  0.4531420000000 1.0
C      1  0.4967070000000  0.5155580000000  0.4997820000000 1.0
C      1  0.4835870000000  0.5673430000000  0.4470370000000 1.0
C      1  0.4598380000000  0.5087080000000  0.5648150000000 1.0
C      1  0.4456760000000  0.4595840000000  0.5414450000000 1.0
C      1  0.5207710000000  0.5683370000000  0.5063420000000 1.0
C      1  0.5196490000000  0.4964210000000  0.4961100000000 1.0
C      1  0.5051280000000  0.5596140000000  0.4322490000000 1.0
C      1  0.4406540000000  0.4680700000000  0.4786930000000 1.0
C      1  0.5068570000000  0.5300110000000  0.4318880000000 1.0
C      1  0.4276480000000  0.5527620000000  0.4883700000000 1.0
C      1  0.4520670000000  0.4801210000000  0.4323510000000 1.0
C      1  0.5148880000000  0.4754880000000  0.5151960000000 1.0
C      1  0.4227520000000  0.4696450000000  0.5286180000000 1.0
C      1  0.5518770000000  0.5146190000000  0.5500830000000 1.0
C      1  0.4659960000000  0.4840700000000  0.5794100000000 1.0
C      1  0.4617710000000  0.4790760000000  0.5252980000000 1.0
C      1  0.4753960000000  0.5320360000000  0.5735600000000 1.0
C      1  0.4172400000000  0.5363820000000  0.5097320000000 1.0
C      1  0.4341450000000  0.5137540000000  0.4499330000000 1.0
C      1  0.4211990000000  0.4980090000000  0.5344720000000 1.0
C      1  0.5165460000000  0.5469010000000  0.5600540000000 1.0
C      1  0.5669760000000  0.5092380000000  0.4496810000000 1.0
C      1  0.4731310000000  0.5552160000000  0.5594690000000 1.0
C      1  0.5815770000000  0.4828290000000  0.4893350000000 1.0
C      1  0.5453130000000  0.4721180000000  0.4315500000000 1.0
C      1  0.4717760000000  0.5412440000000  0.4592020000000 1.0
C      1  0.4593570000000  0.4484990000000  0.4631040000000 1.0
C      1  0.5675240000000  0.5517280000000  0.5095650000000 1.0
C      1  0.4980940000000  0.4788670000000  0.5387210000000 1.0
C      1  0.4751020000000  0.4996740000000  0.4862870000000 1.0
C      1  0.4999900000000  0.4503310000000  0.4392550000000 1.0
C      1  0.5109870000000  0.4256180000000  0.5265060000000 1.0
C      1  0.4746350000000  0.4664420000000  0.4455900000000 1.0
C      1  0.5426850000000  0.5552830000000  0.5207680000000 1.0
C      1  0.5706340000000  0.4512770000000  0.5234670000000 1.0
C      1  0.4341150000000  0.4851750000000  0.4547860000000 1.0
C      1  0.4666190000000  0.4730790000000  0.4979100000000 1.0
C      1  0.4776960000000  0.4987690000000  0.5392400000000 1.0
C      1  0.4231160000000  0.5062880000000  0.5051500000000 1.0
C      1  0.4677030000000  0.5647760000000  0.5102780000000 1.0
C      1  0.4862730000000  0.4940840000000  0.4586960000000 1.0
C      1  0.5092470000000  0.5745400000000  0.4550020000000 1.0
C      1  0.4950810000000  0.5357840000000  0.4775030000000 1.0
C      1  0.5384560000000  0.4951480000000  0.5669350000000 1.0
END
