TITL C-22860-8281-2 -0.228323670128112 125000 -592.413084533756 0 0 86 (C1) n - 1
REM
REM in /rds/project/t2_vol4/rds-t2-cs072/BORA/CARBON/from-Arr/AIRSS/Generating-Clusters/GAP-ML-2020/Only-C1/SD-CG/HFTN-CG
REM
REM
REM
REM
REM
REM ./C.cell (11c1c37f851c82e70ff6c80c92926a4b)
REM AIRSS Version 0.9.1 bugfix July 2018 build 013d7b7c2542+ Fri, 06 Jul 2018 19:26:36 +0100
REM compiler GCC version 9.3.0
REM options -cpp -mtune=generic -march=x86-64 -g -O0
REM seed 1642082628 1680428064 2127213134 -1705288059 731629273 176978365 1111089170 -402696968 1109315467 -206503019 698522150 1242649249 59521051 2050361570 996890654 1396932427 1413876864 2065220614 2003723363 -1001801857 1771900480 -621978202 1382929967 -985177837 -851543647 599708738 179520831 -1413203166 -64707959 1742476642 681245892 -2120865625 1740312422
REM
CELL 1.54180   50.00000   50.00000   50.00000   90.00000   90.00000   90.00000
LATT -1
SFAC C  
C      1  0.5058520000000  0.4706240000000  0.4281480000000 1.0
C      1  0.4679180000000  0.5744250000000  0.4985080000000 1.0
C      1  0.5029110000000  0.4314210000000  0.4931460000000 1.0
C      1  0.5353070000000  0.4443140000000  0.4620830000000 1.0
C      1  0.5188020000000  0.4978900000000  0.5702680000000 1.0
C      1  0.5641430000000  0.5283370000000  0.5330290000000 1.0
C      1  0.4256620000000  0.4845100000000  0.4911670000000 1.0
C      1  0.4580740000000  0.5007940000000  0.5265020000000 1.0
C      1  0.5422360000000  0.4998380000000  0.4488170000000 1.0
C      1  0.4510700000000  0.4892540000000  0.5530670000000 1.0
C      1  0.5020920000000  0.4912630000000  0.5089890000000 1.0
C      1  0.5361620000000  0.4506570000000  0.5697010000000 1.0
C      1  0.4912660000000  0.4891890000000  0.5703290000000 1.0
C      1  0.4720440000000  0.4632030000000  0.4976510000000 1.0
C      1  0.4847680000000  0.4639110000000  0.5538350000000 1.0
C      1  0.5489460000000  0.5753880000000  0.5260390000000 1.0
C      1  0.5201940000000  0.4884360000000  0.4684970000000 1.0
C      1  0.4558730000000  0.4620630000000  0.5551050000000 1.0
C      1  0.5286380000000  0.5722770000000  0.5465800000000 1.0
C      1  0.5634510000000  0.4823860000000  0.4495620000000 1.0
C      1  0.4817860000000  0.5740890000000  0.5247580000000 1.0
C      1  0.4689270000000  0.4392320000000  0.4545170000000 1.0
C      1  0.4146180000000  0.4644900000000  0.5090670000000 1.0
C      1  0.4685410000000  0.4983930000000  0.4785410000000 1.0
C      1  0.5421530000000  0.5519720000000  0.4496740000000 1.0
C      1  0.4808590000000  0.5780240000000  0.4723630000000 1.0
C      1  0.5718410000000  0.5008540000000  0.4935660000000 1.0
C      1  0.4844750000000  0.5224980000000  0.4238290000000 1.0
C      1  0.4797050000000  0.5515480000000  0.5437250000000 1.0
C      1  0.5210410000000  0.5247390000000  0.5606820000000 1.0
C      1  0.4952850000000  0.4476860000000  0.4162600000000 1.0
C      1  0.4921200000000  0.4344700000000  0.5541020000000 1.0
C      1  0.5384640000000  0.4782240000000  0.5612070000000 1.0
C      1  0.4465800000000  0.5476220000000  0.4648510000000 1.0
C      1  0.5725590000000  0.4777660000000  0.4751520000000 1.0
C      1  0.5694940000000  0.5253060000000  0.4779040000000 1.0
C      1  0.5020840000000  0.5313280000000  0.5370800000000 1.0
C      1  0.5339990000000  0.5529020000000  0.5653090000000 1.0
C      1  0.5082510000000  0.5810110000000  0.4643660000000 1.0
C      1  0.5165350000000  0.4526760000000  0.5107060000000 1.0
C      1  0.5526810000000  0.4783460000000  0.5355850000000 1.0
C      1  0.4325390000000  0.5353760000000  0.5076070000000 1.0
C      1  0.4450160000000  0.4464940000000  0.4670200000000 1.0
C      1  0.5656750000000  0.5013750000000  0.5219690000000 1.0
C      1  0.4654560000000  0.5029520000000  0.4299340000000 1.0
C      1  0.4899720000000  0.4504580000000  0.4732490000000 1.0
C      1  0.4232700000000  0.5153080000000  0.4887390000000 1.0
C      1  0.5678180000000  0.5512140000000  0.4893800000000 1.0
C      1  0.5535670000000  0.5256160000000  0.4533350000000 1.0
C      1  0.4967970000000  0.5045840000000  0.4813780000000 1.0
C      1  0.5501270000000  0.5323680000000  0.5571350000000 1.0
C      1  0.4692140000000  0.5600410000000  0.4525590000000 1.0
C      1  0.4321390000000  0.4443600000000  0.5157780000000 1.0
C      1  0.5600660000000  0.4525750000000  0.4755030000000 1.0
C      1  0.5130330000000  0.4632400000000  0.4566800000000 1.0
C      1  0.5447150000000  0.4498820000000  0.5236810000000 1.0
C      1  0.5294870000000  0.4248210000000  0.4834020000000 1.0
C      1  0.4485960000000  0.4409850000000  0.5386150000000 1.0
C      1  0.4438870000000  0.5260510000000  0.5317020000000 1.0
C      1  0.4343290000000  0.5215730000000  0.4637670000000 1.0
C      1  0.4596540000000  0.5343670000000  0.5540090000000 1.0
C      1  0.5179710000000  0.5388920000000  0.5121630000000 1.0
C      1  0.5528480000000  0.4362350000000  0.4980870000000 1.0
C      1  0.5433070000000  0.4336340000000  0.5489520000000 1.0
C      1  0.4341260000000  0.4732630000000  0.4645170000000 1.0
C      1  0.5520080000000  0.5676110000000  0.4718190000000 1.0
C      1  0.4461730000000  0.5561740000000  0.4921580000000 1.0
C      1  0.4898680000000  0.5484790000000  0.4351450000000 1.0
C      1  0.5646430000000  0.5529610000000  0.5174790000000 1.0
C      1  0.5071870000000  0.5294620000000  0.4903750000000 1.0
C      1  0.4545810000000  0.4869850000000  0.5001580000000 1.0
C      1  0.4726240000000  0.4244640000000  0.5343740000000 1.0
C      1  0.4493290000000  0.4977790000000  0.4542990000000 1.0
C      1  0.4912970000000  0.4945210000000  0.4235270000000 1.0
C      1  0.4676040000000  0.5073460000000  0.5681550000000 1.0
C      1  0.5314470000000  0.5853130000000  0.4812210000000 1.0
C      1  0.4877970000000  0.5071400000000  0.5272700000000 1.0
C      1  0.5082470000000  0.5843810000000  0.5281850000000 1.0
C      1  0.5146570000000  0.5612120000000  0.4441800000000 1.0
C      1  0.5182730000000  0.4291400000000  0.5616600000000 1.0
C      1  0.4523170000000  0.4378410000000  0.4952260000000 1.0
C      1  0.4915990000000  0.4663210000000  0.5205150000000 1.0
C      1  0.4761270000000  0.4218700000000  0.5064940000000 1.0
C      1  0.5257730000000  0.4786290000000  0.4967760000000 1.0
C      1  0.5299890000000  0.5889860000000  0.5087170000000 1.0
C      1  0.4774430000000  0.4343660000000  0.4288430000000 1.0
END
