TITL C-22845-2236-1 -14.6620978482226 125000 -505.705897165776 0 0 72 (C1) n - 1
REM
REM in /rds/project/t2_vol4/rds-t2-cs072/BORA/CARBON/from-Arr/AIRSS/Generating-Clusters/GAP-ML-2020/Only-C1/SD-CG/HFTN-CG
REM
REM
REM
REM
REM
REM ./C.cell (11c1c37f851c82e70ff6c80c92926a4b)
REM AIRSS Version 0.9.1 bugfix July 2018 build 013d7b7c2542+ Fri, 06 Jul 2018 19:26:36 +0100
REM compiler GCC version 9.3.0
REM options -cpp -mtune=generic -march=x86-64 -g -O0
REM seed 372183293 -509473989 758572556 -1666450569 -1089755936 715863362 -2031380867 -955579253 759841308 -42229386 2080434621 1746024280 -740393624 -1655857855 -1976435471 -911643007 1024851673 51771898 1580030745 -1348187180 -1870237334 1285331090 658207364 -1281170549 -1461601919 747948174 -1826442620 203408400 -1764509904 528199417 2022083253 915432850 628041967
REM
CELL 1.54180   50.00000   50.00000   50.00000   90.00000   90.00000   90.00000
LATT -1
SFAC C  
C      1  0.5519980000000  0.4483290000000  0.5212260000000 1.0
C      1  0.4634270000000  0.4979930000000  0.5607380000000 1.0
C      1  0.4456200000000  0.4680510000000  0.4515490000000 1.0
C      1  0.4769400000000  0.4565840000000  0.5508870000000 1.0
C      1  0.5309440000000  0.4932220000000  0.4334210000000 1.0
C      1  0.5134740000000  0.4356830000000  0.4653200000000 1.0
C      1  0.5378080000000  0.4671080000000  0.4351300000000 1.0
C      1  0.5123740000000  0.4778640000000  0.5193720000000 1.0
C      1  0.4298170000000  0.4900810000000  0.4625440000000 1.0
C      1  0.4934140000000  0.4661700000000  0.5027570000000 1.0
C      1  0.5230030000000  0.4533950000000  0.5577340000000 1.0
C      1  0.5368130000000  0.4502340000000  0.4559730000000 1.0
C      1  0.4849940000000  0.5215020000000  0.4823310000000 1.0
C      1  0.5085710000000  0.5813290000000  0.5073720000000 1.0
C      1  0.5630610000000  0.5525990000000  0.4692340000000 1.0
C      1  0.5313950000000  0.5129620000000  0.4571840000000 1.0
C      1  0.5712440000000  0.5141660000000  0.4907600000000 1.0
C      1  0.4907740000000  0.4966790000000  0.5694380000000 1.0
C      1  0.5486780000000  0.4613550000000  0.5472440000000 1.0
C      1  0.4590320000000  0.4391810000000  0.4907640000000 1.0
C      1  0.4897070000000  0.5164650000000  0.4339850000000 1.0
C      1  0.5335920000000  0.5533530000000  0.5398590000000 1.0
C      1  0.5036410000000  0.5598340000000  0.4654440000000 1.0
C      1  0.5487000000000  0.5616750000000  0.4913580000000 1.0
C      1  0.4877170000000  0.4695230000000  0.4299790000000 1.0
C      1  0.4754370000000  0.4946020000000  0.4773710000000 1.0
C      1  0.5527770000000  0.5505750000000  0.5185120000000 1.0
C      1  0.4800340000000  0.5401130000000  0.5578580000000 1.0
C      1  0.5290670000000  0.4311340000000  0.5163600000000 1.0
C      1  0.4907670000000  0.4531730000000  0.4553800000000 1.0
C      1  0.4614710000000  0.4795020000000  0.4306540000000 1.0
C      1  0.5470110000000  0.4675790000000  0.4761020000000 1.0
C      1  0.4616170000000  0.5079510000000  0.4322200000000 1.0
C      1  0.4686220000000  0.4815810000000  0.5022580000000 1.0
C      1  0.5039700000000  0.4933670000000  0.4257870000000 1.0
C      1  0.4544370000000  0.4741230000000  0.5486370000000 1.0
C      1  0.4850350000000  0.5636680000000  0.5436290000000 1.0
C      1  0.4588640000000  0.5434550000000  0.4832760000000 1.0
C      1  0.5017000000000  0.5235730000000  0.5667110000000 1.0
C      1  0.4986140000000  0.4768570000000  0.4743370000000 1.0
C      1  0.5000890000000  0.5199740000000  0.5066040000000 1.0
C      1  0.5195770000000  0.5010730000000  0.5068470000000 1.0
C      1  0.5228780000000  0.5716410000000  0.4845990000000 1.0
C      1  0.5422730000000  0.5077670000000  0.5618440000000 1.0
C      1  0.5112640000000  0.4275820000000  0.4928600000000 1.0
C      1  0.5577890000000  0.4885340000000  0.5510300000000 1.0
C      1  0.4499490000000  0.5488410000000  0.5120240000000 1.0
C      1  0.4464350000000  0.4606150000000  0.5044130000000 1.0
C      1  0.4770590000000  0.5671150000000  0.4762960000000 1.0
C      1  0.5749280000000  0.4885120000000  0.5045420000000 1.0
C      1  0.5043360000000  0.5304100000000  0.4562730000000 1.0
C      1  0.5288760000000  0.5308360000000  0.5586080000000 1.0
C      1  0.4865280000000  0.4348180000000  0.5349090000000 1.0
C      1  0.5577780000000  0.5253920000000  0.4675870000000 1.0
C      1  0.5631780000000  0.4632930000000  0.4990740000000 1.0
C      1  0.4412410000000  0.5268320000000  0.5278660000000 1.0
C      1  0.4991230000000  0.4692770000000  0.5647570000000 1.0
C      1  0.4296700000000  0.5034920000000  0.5150000000000 1.0
C      1  0.5139620000000  0.4328960000000  0.5402340000000 1.0
C      1  0.5114000000000  0.5697110000000  0.5337610000000 1.0
C      1  0.4665050000000  0.5691160000000  0.5223630000000 1.0
C      1  0.4394720000000  0.5140510000000  0.4480840000000 1.0
C      1  0.5251860000000  0.4906650000000  0.4777500000000 1.0
C      1  0.4371870000000  0.4764570000000  0.5253550000000 1.0
C      1  0.5685490000000  0.5273360000000  0.5166310000000 1.0
C      1  0.4257420000000  0.5068640000000  0.4869210000000 1.0
C      1  0.4621630000000  0.4482260000000  0.4644150000000 1.0
C      1  0.4808860000000  0.5811200000000  0.5004280000000 1.0
C      1  0.4570230000000  0.5239010000000  0.5516030000000 1.0
C      1  0.4846960000000  0.4355340000000  0.5051630000000 1.0
C      1  0.4360300000000  0.5299180000000  0.4713100000000 1.0
C      1  0.5720660000000  0.5016110000000  0.5301550000000 1.0
END
