TITL C-22549-8205-4 -202.275279442992 125000 -136.879283944059 0 0 21 (C1) n - 1
REM
REM in /rds/project/t2_vol4/rds-t2-cs072/BORA/CARBON/from-Arr/AIRSS/Generating-Clusters/GAP-ML-2020/Only-C1/SD-CG/HFTN-CG
REM
REM
REM
REM
REM
REM ./C.cell (11c1c37f851c82e70ff6c80c92926a4b)
REM AIRSS Version 0.9.1 bugfix July 2018 build 013d7b7c2542+ Fri, 06 Jul 2018 19:26:36 +0100
REM compiler GCC version 9.3.0
REM options -cpp -mtune=generic -march=x86-64 -g -O0
REM seed -970999927 -665359818 186706241 -983653108 -1672775989 -242964144 800298778 -1748532954 -1121235782 595226526 1201907607 -679972882 -2052546056 -276169741 807578301 1398350169 1906778533 -1664305538 -1897302226 -1967714467 941875439 931044287 -20378820 -958599347 -1364600340 -5464689 1351455084 1577139750 -1339923249 -1238325673 519787441 -921315699 -1873476392
REM
CELL 1.54180   50.00000   50.00000   50.00000   90.00000   90.00000   90.00000
LATT -1
SFAC C  
C      1  0.4519510000000  0.4605450000000  0.5242990000000 1.0
C      1  0.4950910000000  0.4809900000000  0.5278620000000 1.0
C      1  0.5103490000000  0.5244750000000  0.4574820000000 1.0
C      1  0.5246900000000  0.5271120000000  0.5247570000000 1.0
C      1  0.4902460000000  0.4545860000000  0.4657690000000 1.0
C      1  0.5395100000000  0.5130470000000  0.4819670000000 1.0
C      1  0.4916450000000  0.5424680000000  0.4728260000000 1.0
C      1  0.5183950000000  0.4619860000000  0.4931030000000 1.0
C      1  0.4824170000000  0.5070720000000  0.5339920000000 1.0
C      1  0.5318450000000  0.5388720000000  0.4712680000000 1.0
C      1  0.4940340000000  0.5477440000000  0.5014690000000 1.0
C      1  0.4973340000000  0.5301580000000  0.5233830000000 1.0
C      1  0.4921460000000  0.4498180000000  0.4935000000000 1.0
C      1  0.4556870000000  0.5043720000000  0.5401210000000 1.0
C      1  0.5217580000000  0.4985550000000  0.4629360000000 1.0
C      1  0.5195250000000  0.4812560000000  0.5136680000000 1.0
C      1  0.4785500000000  0.4597330000000  0.5170050000000 1.0
C      1  0.4426520000000  0.4821680000000  0.5357180000000 1.0
C      1  0.5320950000000  0.5064330000000  0.5086340000000 1.0
C      1  0.5155040000000  0.4712790000000  0.4659760000000 1.0
C      1  0.5145770000000  0.5573340000000  0.4842670000000 1.0
END
