TITL C-221360-4705-6 122.098169750654 125000 -819.161603285681 0 0 116 (C1) n - 1
REM
REM in /rds/project/t2_vol4/rds-t2-cs072/BORA/CARBON/from-Arr/AIRSS/Generating-Clusters/GAP-ML-2020/Only-C1/SD-CG/HFTN-CG
REM
REM
REM
REM
REM
REM ./C.cell (11c1c37f851c82e70ff6c80c92926a4b)
REM AIRSS Version 0.9.1 bugfix July 2018 build 013d7b7c2542+ Fri, 06 Jul 2018 19:26:36 +0100
REM compiler GCC version 9.3.0
REM options -cpp -mtune=generic -march=x86-64 -g -O0
REM seed -428857833 887398644 -540664731 -1583717073 1112072787 510458961 2045586301 108711369 1240485276 -723825740 -1212927122 327966113 690393039 1205378589 -372365477 2002335437 332891541 -1209686439 8488901 1284307032 -47572878 -1079549429 1339274385 398373267 -192083336 1753359970 1888540375 -1222762663 -8976392 492103874 -1715637852 1199231282 1841270059
REM
CELL 1.54180   50.00000   50.00000   50.00000   90.00000   90.00000   90.00000
LATT -1
SFAC C  
C      1  0.4564620000000  0.4887710000000  0.5733780000000 1.0
C      1  0.5336490000000  0.5598210000000  0.4389540000000 1.0
C      1  0.4926450000000  0.5347390000000  0.4309940000000 1.0
C      1  0.5063440000000  0.5943120000000  0.4972720000000 1.0
C      1  0.5224430000000  0.4726060000000  0.5038110000000 1.0
C      1  0.5684220000000  0.5497590000000  0.5273720000000 1.0
C      1  0.5024020000000  0.4133570000000  0.4696550000000 1.0
C      1  0.4713820000000  0.5455030000000  0.5193200000000 1.0
C      1  0.5277620000000  0.4179310000000  0.5094690000000 1.0
C      1  0.4453300000000  0.4571290000000  0.4445530000000 1.0
C      1  0.5061670000000  0.5605730000000  0.4316120000000 1.0
C      1  0.5476660000000  0.5745570000000  0.4904940000000 1.0
C      1  0.5147560000000  0.4896270000000  0.5270570000000 1.0
C      1  0.5607440000000  0.5030680000000  0.5209130000000 1.0
C      1  0.5403290000000  0.5085300000000  0.4219240000000 1.0
C      1  0.4796350000000  0.4720970000000  0.4731510000000 1.0
C      1  0.5558570000000  0.4873290000000  0.4341900000000 1.0
C      1  0.5497070000000  0.4913790000000  0.4956510000000 1.0
C      1  0.5095270000000  0.5893920000000  0.4676350000000 1.0
C      1  0.5117730000000  0.5252340000000  0.5754230000000 1.0
C      1  0.4353200000000  0.4815770000000  0.5320880000000 1.0
C      1  0.5339510000000  0.5116780000000  0.5337110000000 1.0
C      1  0.5794680000000  0.5254640000000  0.5164480000000 1.0
C      1  0.4307660000000  0.4532620000000  0.5207100000000 1.0
C      1  0.4614350000000  0.4901520000000  0.5129340000000 1.0
C      1  0.5158040000000  0.4683520000000  0.4193440000000 1.0
C      1  0.5418150000000  0.4622280000000  0.4318500000000 1.0
C      1  0.5032530000000  0.4067310000000  0.4970510000000 1.0
C      1  0.4482120000000  0.5545840000000  0.5380860000000 1.0
C      1  0.4390270000000  0.5017060000000  0.4465950000000 1.0
C      1  0.5719800000000  0.4797770000000  0.4805980000000 1.0
C      1  0.5750130000000  0.4932540000000  0.4558380000000 1.0
C      1  0.4553030000000  0.5459400000000  0.4325330000000 1.0
C      1  0.5490810000000  0.5511860000000  0.5478950000000 1.0
C      1  0.5568350000000  0.5268570000000  0.4594130000000 1.0
C      1  0.4085170000000  0.5113700000000  0.4802150000000 1.0
C      1  0.4444530000000  0.5803430000000  0.4624810000000 1.0
C      1  0.5002590000000  0.5684360000000  0.5513930000000 1.0
C      1  0.5293990000000  0.4203320000000  0.4619600000000 1.0
C      1  0.5506120000000  0.4967280000000  0.5750180000000 1.0
C      1  0.5833940000000  0.5345240000000  0.4897240000000 1.0
C      1  0.4211100000000  0.4891170000000  0.4658830000000 1.0
C      1  0.4845640000000  0.4863920000000  0.5745250000000 1.0
C      1  0.5828900000000  0.5197090000000  0.4652690000000 1.0
C      1  0.4376870000000  0.5816700000000  0.4889050000000 1.0
C      1  0.4718320000000  0.4816120000000  0.4153020000000 1.0
C      1  0.5641470000000  0.4388830000000  0.4755720000000 1.0
C      1  0.5075470000000  0.4769780000000  0.4789670000000 1.0
C      1  0.4463160000000  0.4803890000000  0.4278530000000 1.0
C      1  0.5185210000000  0.5316860000000  0.4933220000000 1.0
C      1  0.4451790000000  0.4431830000000  0.5437800000000 1.0
C      1  0.4660720000000  0.4650620000000  0.4976760000000 1.0
C      1  0.4913600000000  0.5798170000000  0.4456960000000 1.0
C      1  0.4867750000000  0.5050800000000  0.4089490000000 1.0
C      1  0.4838090000000  0.4089510000000  0.5373310000000 1.0
C      1  0.5153950000000  0.4959860000000  0.4119890000000 1.0
C      1  0.5562450000000  0.4203990000000  0.5515740000000 1.0
C      1  0.4618660000000  0.4246210000000  0.4891390000000 1.0
C      1  0.4923060000000  0.5168920000000  0.4572420000000 1.0
C      1  0.5385310000000  0.5227780000000  0.5619710000000 1.0
C      1  0.5283870000000  0.5818610000000  0.5105110000000 1.0
C      1  0.5065280000000  0.4989190000000  0.5866350000000 1.0
C      1  0.3969780000000  0.5124040000000  0.5046360000000 1.0
C      1  0.5534170000000  0.4374720000000  0.5767100000000 1.0
C      1  0.4417460000000  0.4481350000000  0.4934400000000 1.0
C      1  0.4779520000000  0.4103530000000  0.5091430000000 1.0
C      1  0.4436780000000  0.4687400000000  0.5575780000000 1.0
C      1  0.4942440000000  0.4790820000000  0.5465850000000 1.0
C      1  0.4238160000000  0.5569320000000  0.4935980000000 1.0
C      1  0.5465910000000  0.5343470000000  0.4339890000000 1.0
C      1  0.4586060000000  0.5097370000000  0.4914430000000 1.0
C      1  0.4683840000000  0.4996070000000  0.4652140000000 1.0
C      1  0.5183460000000  0.5340560000000  0.5216080000000 1.0
C      1  0.5472590000000  0.4412470000000  0.4508310000000 1.0
C      1  0.5366500000000  0.5133920000000  0.4790840000000 1.0
C      1  0.4899950000000  0.5411510000000  0.5613260000000 1.0
C      1  0.4958480000000  0.4507000000000  0.5419270000000 1.0
C      1  0.4717050000000  0.5299660000000  0.4136600000000 1.0
C      1  0.5754470000000  0.4535480000000  0.5688000000000 1.0
C      1  0.5343480000000  0.4093460000000  0.5376510000000 1.0
C      1  0.5095960000000  0.4112670000000  0.5515340000000 1.0
C      1  0.4539850000000  0.5924390000000  0.5103530000000 1.0
C      1  0.4235360000000  0.5485280000000  0.5210750000000 1.0
C      1  0.5350950000000  0.5772780000000  0.4635380000000 1.0
C      1  0.5776680000000  0.4378780000000  0.5428540000000 1.0
C      1  0.5456930000000  0.4184850000000  0.4856650000000 1.0
C      1  0.5250780000000  0.5637870000000  0.5353870000000 1.0
C      1  0.4108950000000  0.5237040000000  0.5256080000000 1.0
C      1  0.4446750000000  0.5139430000000  0.5639120000000 1.0
C      1  0.4880500000000  0.4600740000000  0.4237580000000 1.0
C      1  0.4301260000000  0.4617360000000  0.4686860000000 1.0
C      1  0.4584050000000  0.5385680000000  0.5620510000000 1.0
C      1  0.4701630000000  0.5357120000000  0.4939500000000 1.0
C      1  0.4829350000000  0.5872780000000  0.5410360000000 1.0
C      1  0.4353520000000  0.5311700000000  0.4474220000000 1.0
C      1  0.4727010000000  0.4475790000000  0.4473310000000 1.0
C      1  0.4829180000000  0.5974580000000  0.5134400000000 1.0
C      1  0.5150780000000  0.4474500000000  0.5169210000000 1.0
C      1  0.5286790000000  0.4514700000000  0.5806670000000 1.0
C      1  0.4904480000000  0.5286200000000  0.5321460000000 1.0
C      1  0.5698480000000  0.5594700000000  0.5000610000000 1.0
C      1  0.4712060000000  0.4331640000000  0.5418780000000 1.0
C      1  0.4202610000000  0.5370530000000  0.4714530000000 1.0
C      1  0.4769420000000  0.4245780000000  0.4643820000000 1.0
C      1  0.5716170000000  0.4808820000000  0.5627310000000 1.0
C      1  0.4538540000000  0.5827740000000  0.5375750000000 1.0
C      1  0.5802710000000  0.4569960000000  0.5215410000000 1.0
C      1  0.5090360000000  0.4373610000000  0.5654560000000 1.0
C      1  0.4941970000000  0.5359570000000  0.4800600000000 1.0
C      1  0.4247230000000  0.5066520000000  0.5440040000000 1.0
C      1  0.5793100000000  0.4555440000000  0.4928190000000 1.0
C      1  0.4625670000000  0.5723520000000  0.4441770000000 1.0
C      1  0.5297620000000  0.4813610000000  0.5861090000000 1.0
C      1  0.5750710000000  0.4820310000000  0.5346390000000 1.0
C      1  0.4857400000000  0.4994330000000  0.5274960000000 1.0
C      1  0.5155470000000  0.4995790000000  0.4642580000000 1.0
END
