TITL C-22846-8539-3 -0.19331265030483 125000 -533.681282069495 0 0 77 (C1) n - 1
REM
REM in /rds/project/t2_vol4/rds-t2-cs072/BORA/CARBON/from-Arr/AIRSS/Generating-Clusters/GAP-ML-2020/Only-C1/SD-CG/HFTN-CG
REM
REM
REM
REM
REM
REM ./C.cell (11c1c37f851c82e70ff6c80c92926a4b)
REM AIRSS Version 0.9.1 bugfix July 2018 build 013d7b7c2542+ Fri, 06 Jul 2018 19:26:36 +0100
REM compiler GCC version 9.3.0
REM options -cpp -mtune=generic -march=x86-64 -g -O0
REM seed 870478833 -107867317 1148949521 1892463514 1384852437 1343696483 -2023667801 305655341 -281542424 952662957 -1409667678 1615785538 -1464337949 2068921824 398143446 585189228 1385894506 1041879623 -370295512 -1385477905 2004893271 1629039566 1695540857 -1038136756 1876618115 1434425433 191897392 -2047697950 -1112527762 1094102517 277014221 -844753468 -1554814297
REM
CELL 1.54180   50.00000   50.00000   50.00000   90.00000   90.00000   90.00000
LATT -1
SFAC C  
C      1  0.4446490000000  0.5070170000000  0.4535670000000 1.0
C      1  0.5461440000000  0.4539180000000  0.5438040000000 1.0
C      1  0.5318650000000  0.5100700000000  0.4204690000000 1.0
C      1  0.4504350000000  0.4625020000000  0.5687640000000 1.0
C      1  0.5060490000000  0.5759750000000  0.5200170000000 1.0
C      1  0.5442290000000  0.4985650000000  0.5575820000000 1.0
C      1  0.4584460000000  0.5660270000000  0.5125040000000 1.0
C      1  0.5178360000000  0.4836070000000  0.5573050000000 1.0
C      1  0.4985580000000  0.4660380000000  0.4547440000000 1.0
C      1  0.4915950000000  0.5685460000000  0.4737270000000 1.0
C      1  0.5247170000000  0.5660790000000  0.5402330000000 1.0
C      1  0.4820100000000  0.5612310000000  0.5568500000000 1.0
C      1  0.4322560000000  0.4795000000000  0.4958290000000 1.0
C      1  0.4768290000000  0.5028880000000  0.4939150000000 1.0
C      1  0.4655310000000  0.5689750000000  0.4842060000000 1.0
C      1  0.4523670000000  0.5346720000000  0.4524210000000 1.0
C      1  0.5586380000000  0.4806940000000  0.5405820000000 1.0
C      1  0.5600830000000  0.5328740000000  0.4528220000000 1.0
C      1  0.4809420000000  0.4805990000000  0.5136170000000 1.0
C      1  0.5053350000000  0.4674200000000  0.5067650000000 1.0
C      1  0.4773640000000  0.5350990000000  0.4383120000000 1.0
C      1  0.4813500000000  0.5081980000000  0.4266160000000 1.0
C      1  0.5422020000000  0.4863210000000  0.4322660000000 1.0
C      1  0.5049190000000  0.4361020000000  0.4567960000000 1.0
C      1  0.5119820000000  0.5698750000000  0.4933570000000 1.0
C      1  0.5633410000000  0.5096120000000  0.4693630000000 1.0
C      1  0.5214130000000  0.4412180000000  0.4323670000000 1.0
C      1  0.5432940000000  0.4637120000000  0.4727800000000 1.0
C      1  0.4427090000000  0.4529770000000  0.4938190000000 1.0
C      1  0.4381400000000  0.5196040000000  0.5236900000000 1.0
C      1  0.5424240000000  0.5340670000000  0.4294210000000 1.0
C      1  0.4891950000000  0.4227850000000  0.5004470000000 1.0
C      1  0.4494990000000  0.4455340000000  0.5204660000000 1.0
C      1  0.5430440000000  0.5443090000000  0.5363190000000 1.0
C      1  0.4916140000000  0.5191010000000  0.5756810000000 1.0
C      1  0.5243980000000  0.4561560000000  0.5617670000000 1.0
C      1  0.4996800000000  0.5500720000000  0.4514900000000 1.0
C      1  0.5469370000000  0.5566370000000  0.4624170000000 1.0
C      1  0.5165710000000  0.5345620000000  0.5744430000000 1.0
C      1  0.5114770000000  0.4379050000000  0.5155160000000 1.0
C      1  0.4847070000000  0.5235790000000  0.5141040000000 1.0
C      1  0.5136720000000  0.5140880000000  0.5122320000000 1.0
C      1  0.5340030000000  0.4396650000000  0.4571160000000 1.0
C      1  0.5541830000000  0.4603800000000  0.4997780000000 1.0
C      1  0.5056010000000  0.5052520000000  0.4821840000000 1.0
C      1  0.4460480000000  0.4985390000000  0.4801090000000 1.0
C      1  0.4694720000000  0.4659520000000  0.4506600000000 1.0
C      1  0.5135490000000  0.4765160000000  0.4790200000000 1.0
C      1  0.4460190000000  0.4698010000000  0.5410150000000 1.0
C      1  0.4397670000000  0.5434640000000  0.5060410000000 1.0
C      1  0.4712160000000  0.4276990000000  0.5227670000000 1.0
C      1  0.5415080000000  0.4426900000000  0.5189710000000 1.0
C      1  0.5321870000000  0.5496860000000  0.4866330000000 1.0
C      1  0.4981150000000  0.4442090000000  0.5649480000000 1.0
C      1  0.5636080000000  0.4846250000000  0.5123160000000 1.0
C      1  0.4720950000000  0.5351340000000  0.5617300000000 1.0
C      1  0.4775910000000  0.4638120000000  0.5762720000000 1.0
C      1  0.5162910000000  0.4709230000000  0.4296000000000 1.0
C      1  0.4830300000000  0.4273980000000  0.4735090000000 1.0
C      1  0.4708530000000  0.4888920000000  0.5414660000000 1.0
C      1  0.5142120000000  0.5293350000000  0.4692660000000 1.0
C      1  0.5094180000000  0.5604920000000  0.5637480000000 1.0
C      1  0.4315650000000  0.4906050000000  0.5220210000000 1.0
C      1  0.5418070000000  0.5312690000000  0.5091920000000 1.0
C      1  0.4613560000000  0.4905010000000  0.4378280000000 1.0
C      1  0.4939480000000  0.4335840000000  0.5400730000000 1.0
C      1  0.4905370000000  0.4901520000000  0.5678180000000 1.0
C      1  0.5551740000000  0.4853570000000  0.4568040000000 1.0
C      1  0.5273780000000  0.5568270000000  0.4400610000000 1.0
C      1  0.4787180000000  0.5729110000000  0.5304770000000 1.0
C      1  0.5402230000000  0.5261730000000  0.5593910000000 1.0
C      1  0.4605090000000  0.4469540000000  0.4707030000000 1.0
C      1  0.4460600000000  0.5492120000000  0.4765260000000 1.0
C      1  0.5058520000000  0.4971020000000  0.4174790000000 1.0
C      1  0.4637630000000  0.5183840000000  0.5382420000000 1.0
C      1  0.5606190000000  0.5101440000000  0.4982380000000 1.0
C      1  0.5152770000000  0.4876530000000  0.5246060000000 1.0
END
