TITL C-22545-8243-3 18.3258409016791 125000 -571.715665128371 0 0 84 (C1) n - 1
REM
REM in /rds/project/t2_vol4/rds-t2-cs072/BORA/CARBON/from-Arr/AIRSS/Generating-Clusters/GAP-ML-2020/Only-C1/SD-CG/HFTN-CG
REM
REM
REM
REM
REM
REM ./C.cell (11c1c37f851c82e70ff6c80c92926a4b)
REM AIRSS Version 0.9.1 bugfix July 2018 build 013d7b7c2542+ Fri, 06 Jul 2018 19:26:36 +0100
REM compiler GCC version 9.3.0
REM options -cpp -mtune=generic -march=x86-64 -g -O0
REM seed 365514242 -1987582753 2143147803 -1265934839 77743123 2067887732 -1421682157 1691794785 316546370 -1979937733 1111522613 -447195510 907139172 -365779268 1301417313 1518395811 -3673348 1656833099 -539292207 -1461910457 956606309 1247275382 318817668 1867513591 2054882580 398499000 1180385777 1647538090 1245422127 -1420299890 1781917536 -946834189 668037929
REM
CELL 1.54180   50.00000   50.00000   50.00000   90.00000   90.00000   90.00000
LATT -1
SFAC C  
C      1  0.5290930000000  0.4628700000000  0.4611000000000 1.0
C      1  0.5294970000000  0.5568850000000  0.5166440000000 1.0
C      1  0.4812700000000  0.4922130000000  0.5903980000000 1.0
C      1  0.5365920000000  0.4347350000000  0.4657740000000 1.0
C      1  0.5167400000000  0.5281120000000  0.5139630000000 1.0
C      1  0.4940740000000  0.5244530000000  0.4981370000000 1.0
C      1  0.4375000000000  0.4910320000000  0.5516040000000 1.0
C      1  0.5743840000000  0.4625790000000  0.4717670000000 1.0
C      1  0.5637980000000  0.4894420000000  0.5535610000000 1.0
C      1  0.5100740000000  0.4823670000000  0.5086660000000 1.0
C      1  0.5683390000000  0.5322730000000  0.4966040000000 1.0
C      1  0.4800140000000  0.4414530000000  0.5096070000000 1.0
C      1  0.4890380000000  0.4343130000000  0.4835570000000 1.0
C      1  0.5166430000000  0.4646230000000  0.4351970000000 1.0
C      1  0.5573350000000  0.5339050000000  0.5419990000000 1.0
C      1  0.4608700000000  0.4740410000000  0.4696130000000 1.0
C      1  0.4686670000000  0.5572580000000  0.5319520000000 1.0
C      1  0.4174990000000  0.4472240000000  0.4734420000000 1.0
C      1  0.4779020000000  0.4506190000000  0.4627090000000 1.0
C      1  0.4708130000000  0.4781720000000  0.4252200000000 1.0
C      1  0.5143110000000  0.4467600000000  0.5536260000000 1.0
C      1  0.5559950000000  0.4803640000000  0.4566270000000 1.0
C      1  0.5405180000000  0.4890070000000  0.5699640000000 1.0
C      1  0.4892040000000  0.4588850000000  0.4355420000000 1.0
C      1  0.4933580000000  0.5842410000000  0.5023310000000 1.0
C      1  0.4703860000000  0.5150470000000  0.5797210000000 1.0
C      1  0.5629770000000  0.4619690000000  0.5448180000000 1.0
C      1  0.5179510000000  0.5753700000000  0.4963560000000 1.0
C      1  0.5580810000000  0.5486640000000  0.5178420000000 1.0
C      1  0.4488060000000  0.5366500000000  0.5346180000000 1.0
C      1  0.5523850000000  0.5299370000000  0.4730980000000 1.0
C      1  0.4596960000000  0.4829290000000  0.4985900000000 1.0
C      1  0.5025640000000  0.5035840000000  0.4584600000000 1.0
C      1  0.5061620000000  0.5557810000000  0.4259500000000 1.0
C      1  0.5689980000000  0.5026650000000  0.5031640000000 1.0
C      1  0.5637100000000  0.4355610000000  0.4763490000000 1.0
C      1  0.4762750000000  0.4716040000000  0.5461330000000 1.0
C      1  0.4975430000000  0.4563190000000  0.5280030000000 1.0
C      1  0.5256800000000  0.5027960000000  0.5245800000000 1.0
C      1  0.5710550000000  0.4548860000000  0.5190670000000 1.0
C      1  0.4786300000000  0.5533050000000  0.4604210000000 1.0
C      1  0.4397760000000  0.5391910000000  0.4849530000000 1.0
C      1  0.4480170000000  0.4656620000000  0.5390470000000 1.0
C      1  0.4994810000000  0.5722740000000  0.4504990000000 1.0
C      1  0.4310640000000  0.4444550000000  0.4953080000000 1.0
C      1  0.4303490000000  0.4719460000000  0.4666050000000 1.0
C      1  0.4913650000000  0.5581000000000  0.5475480000000 1.0
C      1  0.5582630000000  0.4328480000000  0.5044200000000 1.0
C      1  0.4498590000000  0.4933560000000  0.4183820000000 1.0
C      1  0.5198820000000  0.4864080000000  0.4791520000000 1.0
C      1  0.5218440000000  0.5084310000000  0.4344810000000 1.0
C      1  0.4358100000000  0.5275810000000  0.5108200000000 1.0
C      1  0.5315810000000  0.4235100000000  0.5076520000000 1.0
C      1  0.4526900000000  0.4536450000000  0.5118560000000 1.0
C      1  0.4994280000000  0.4475520000000  0.5770890000000 1.0
C      1  0.4342880000000  0.5195010000000  0.4644720000000 1.0
C      1  0.4815650000000  0.4678770000000  0.5754230000000 1.0
C      1  0.4830010000000  0.4984730000000  0.5084010000000 1.0
C      1  0.5571280000000  0.5060610000000  0.5315350000000 1.0
C      1  0.4700160000000  0.5706460000000  0.5058730000000 1.0
C      1  0.4566180000000  0.5139570000000  0.5530940000000 1.0
C      1  0.5490060000000  0.5011820000000  0.4768130000000 1.0
C      1  0.4523420000000  0.5161680000000  0.4407390000000 1.0
C      1  0.4309450000000  0.4988690000000  0.5054370000000 1.0
C      1  0.5381520000000  0.4610760000000  0.5595320000000 1.0
C      1  0.4225730000000  0.4973550000000  0.4768980000000 1.0
C      1  0.5256450000000  0.5368780000000  0.4330960000000 1.0
C      1  0.4817240000000  0.5522020000000  0.4144690000000 1.0
C      1  0.5372940000000  0.4854860000000  0.4324170000000 1.0
C      1  0.4733830000000  0.4945670000000  0.4518140000000 1.0
C      1  0.4809390000000  0.5007470000000  0.5386480000000 1.0
C      1  0.5004240000000  0.5304520000000  0.4701810000000 1.0
C      1  0.4978700000000  0.5141940000000  0.5868710000000 1.0
C      1  0.5219310000000  0.5713920000000  0.4682620000000 1.0
C      1  0.5185940000000  0.5585890000000  0.5453000000000 1.0
C      1  0.5786030000000  0.4747490000000  0.4987690000000 1.0
C      1  0.5360280000000  0.5394840000000  0.5593200000000 1.0
C      1  0.4244150000000  0.4853220000000  0.5297900000000 1.0
C      1  0.5163860000000  0.4240940000000  0.4844460000000 1.0
C      1  0.4660860000000  0.5420440000000  0.4353030000000 1.0
C      1  0.5078610000000  0.5110030000000  0.5446190000000 1.0
C      1  0.5312700000000  0.5443750000000  0.4613630000000 1.0
C      1  0.4593800000000  0.5588310000000  0.4823980000000 1.0
C      1  0.5226940000000  0.5145720000000  0.5701350000000 1.0
END
