TITL C-22829-2248-4 -0.0196502484499408 125000 -189.929701371054 0 0 29 (C1) n - 1
REM
REM in /rds/project/t2_vol4/rds-t2-cs072/BORA/CARBON/from-Arr/AIRSS/Generating-Clusters/GAP-ML-2020/Only-C1/SD-CG/HFTN-CG
REM
REM
REM
REM
REM
REM ./C.cell (11c1c37f851c82e70ff6c80c92926a4b)
REM AIRSS Version 0.9.1 bugfix July 2018 build 013d7b7c2542+ Fri, 06 Jul 2018 19:26:36 +0100
REM compiler GCC version 9.3.0
REM options -cpp -mtune=generic -march=x86-64 -g -O0
REM seed -1527070496 1245267765 1174485814 330807665 9164594 929349472 1149036702 -1774761331 1824378668 1093756540 1097345899 844713937 -865416991 -1922244236 346379333 -712027979 626964955 872929160 -1315841409 465436674 2360776 1356416024 -797366245 -1698774354 -449717714 526308273 689734514 854496341 1910299205 2097383364 -576642741 2103193060 -2062009931
REM
CELL 1.54180   50.00000   50.00000   50.00000   90.00000   90.00000   90.00000
LATT -1
SFAC C  
C      1  0.5316070000000  0.4498950000000  0.5087950000000 1.0
C      1  0.5583720000000  0.4745350000000  0.4821890000000 1.0
C      1  0.4715290000000  0.5592400000000  0.4837120000000 1.0
C      1  0.4728170000000  0.5066460000000  0.4791690000000 1.0
C      1  0.4968250000000  0.4425240000000  0.4732610000000 1.0
C      1  0.5447590000000  0.4938920000000  0.4969500000000 1.0
C      1  0.4678560000000  0.4666880000000  0.5036510000000 1.0
C      1  0.5139240000000  0.5357840000000  0.4878640000000 1.0
C      1  0.5121860000000  0.4588570000000  0.5254600000000 1.0
C      1  0.5398860000000  0.4542990000000  0.4803290000000 1.0
C      1  0.5187100000000  0.4562290000000  0.4619120000000 1.0
C      1  0.4831730000000  0.4587950000000  0.5272330000000 1.0
C      1  0.4715640000000  0.4677430000000  0.5509460000000 1.0
C      1  0.5112900000000  0.5841000000000  0.5018140000000 1.0
C      1  0.4821180000000  0.4855130000000  0.4627140000000 1.0
C      1  0.4549610000000  0.5071090000000  0.5273980000000 1.0
C      1  0.5187830000000  0.5572110000000  0.5091650000000 1.0
C      1  0.4846640000000  0.5338140000000  0.4812010000000 1.0
C      1  0.5308320000000  0.5139910000000  0.4804470000000 1.0
C      1  0.5329480000000  0.4768860000000  0.5189180000000 1.0
C      1  0.4774740000000  0.4603460000000  0.4779230000000 1.0
C      1  0.4626360000000  0.4930620000000  0.5505700000000 1.0
C      1  0.5252060000000  0.5036680000000  0.4544260000000 1.0
C      1  0.4602290000000  0.4943690000000  0.5025520000000 1.0
C      1  0.4949790000000  0.5344900000000  0.5442550000000 1.0
C      1  0.4721840000000  0.5207750000000  0.5455060000000 1.0
C      1  0.5086530000000  0.4827700000000  0.4523270000000 1.0
C      1  0.5128790000000  0.5497300000000  0.5350450000000 1.0
C      1  0.4869580000000  0.5770400000000  0.4942690000000 1.0
END
