TITL C-22839-8333-5 6.94774066518214 125000 -573.422553166022 0 0 84 (C1) n - 1
REM
REM in /rds/project/t2_vol4/rds-t2-cs072/BORA/CARBON/from-Arr/AIRSS/Generating-Clusters/GAP-ML-2020/Only-C1/SD-CG/HFTN-CG
REM
REM
REM
REM
REM
REM ./C.cell (11c1c37f851c82e70ff6c80c92926a4b)
REM AIRSS Version 0.9.1 bugfix July 2018 build 013d7b7c2542+ Fri, 06 Jul 2018 19:26:36 +0100
REM compiler GCC version 9.3.0
REM options -cpp -mtune=generic -march=x86-64 -g -O0
REM seed 1959574688 -372284401 402372919 2027569663 1193998946 873961477 -1743974546 -1588498673 -889493288 320336578 1973450148 -860651812 -1484021701 -177213946 -1652276324 955031991 1287933503 546748274 1116805771 1659564282 2084832365 -731528570 -1232542825 -1038439721 238319358 1654440959 -474254025 -1664665755 -1660538039 -1261076484 1563508629 1139658112 450502598
REM
CELL 1.54180   50.00000   50.00000   50.00000   90.00000   90.00000   90.00000
LATT -1
SFAC C  
C      1  0.4553410000000  0.4855440000000  0.4938250000000 1.0
C      1  0.4858460000000  0.5447420000000  0.5617290000000 1.0
C      1  0.5541580000000  0.4839380000000  0.5564860000000 1.0
C      1  0.4609720000000  0.5330990000000  0.5160360000000 1.0
C      1  0.5259720000000  0.5659480000000  0.4870720000000 1.0
C      1  0.4853760000000  0.5650910000000  0.5423600000000 1.0
C      1  0.4931520000000  0.4221370000000  0.5039240000000 1.0
C      1  0.4284760000000  0.5904200000000  0.5065000000000 1.0
C      1  0.4833370000000  0.5368410000000  0.4352720000000 1.0
C      1  0.5613540000000  0.4471850000000  0.5190340000000 1.0
C      1  0.5487380000000  0.5127530000000  0.5597750000000 1.0
C      1  0.5283210000000  0.4370870000000  0.4750510000000 1.0
C      1  0.4335910000000  0.4733900000000  0.4756990000000 1.0
C      1  0.4552350000000  0.5323210000000  0.4412930000000 1.0
C      1  0.4731120000000  0.4999980000000  0.5783800000000 1.0
C      1  0.5586250000000  0.4857670000000  0.4522430000000 1.0
C      1  0.4351640000000  0.5766460000000  0.5280380000000 1.0
C      1  0.5419740000000  0.5285220000000  0.4598280000000 1.0
C      1  0.4559560000000  0.4380120000000  0.4803980000000 1.0
C      1  0.5016610000000  0.5782470000000  0.4949350000000 1.0
C      1  0.5261930000000  0.4464110000000  0.4318840000000 1.0
C      1  0.5439940000000  0.4378680000000  0.4501340000000 1.0
C      1  0.4700800000000  0.5257420000000  0.5440390000000 1.0
C      1  0.5255900000000  0.5033940000000  0.5048350000000 1.0
C      1  0.5131010000000  0.4714600000000  0.4405130000000 1.0
C      1  0.5756980000000  0.4999100000000  0.4713710000000 1.0
C      1  0.5714460000000  0.5362640000000  0.5020850000000 1.0
C      1  0.4723830000000  0.4703900000000  0.5147320000000 1.0
C      1  0.5424630000000  0.4273710000000  0.5240050000000 1.0
C      1  0.5823860000000  0.4905960000000  0.5189720000000 1.0
C      1  0.5099560000000  0.5258990000000  0.5164640000000 1.0
C      1  0.5381190000000  0.4609300000000  0.4888970000000 1.0
C      1  0.5228140000000  0.5068160000000  0.4765140000000 1.0
C      1  0.4930490000000  0.5124230000000  0.4771730000000 1.0
C      1  0.5252430000000  0.5529930000000  0.4615070000000 1.0
C      1  0.5313770000000  0.4801720000000  0.4657910000000 1.0
C      1  0.5032110000000  0.4411030000000  0.5443610000000 1.0
C      1  0.4448360000000  0.4717280000000  0.5433140000000 1.0
C      1  0.4297630000000  0.5197540000000  0.4787530000000 1.0
C      1  0.5003200000000  0.4370330000000  0.4801050000000 1.0
C      1  0.5805270000000  0.5181300000000  0.5229550000000 1.0
C      1  0.4384940000000  0.5883700000000  0.4824330000000 1.0
C      1  0.4875200000000  0.4844160000000  0.5368830000000 1.0
C      1  0.5177610000000  0.4989370000000  0.4277740000000 1.0
C      1  0.4537230000000  0.5675730000000  0.4733340000000 1.0
C      1  0.5199650000000  0.4750350000000  0.5092310000000 1.0
C      1  0.4976890000000  0.5539990000000  0.4532690000000 1.0
C      1  0.4712280000000  0.4759080000000  0.5607320000000 1.0
C      1  0.4950300000000  0.4663210000000  0.4953940000000 1.0
C      1  0.4295120000000  0.4976310000000  0.4598750000000 1.0
C      1  0.4836660000000  0.4705370000000  0.4491330000000 1.0
C      1  0.4966530000000  0.5207110000000  0.5776940000000 1.0
C      1  0.4524850000000  0.5140210000000  0.5643760000000 1.0
C      1  0.4780400000000  0.4431330000000  0.4627110000000 1.0
C      1  0.4812630000000  0.4864960000000  0.4767370000000 1.0
C      1  0.5630420000000  0.5298800000000  0.5430370000000 1.0
C      1  0.5049910000000  0.5725950000000  0.5237500000000 1.0
C      1  0.4303240000000  0.4460380000000  0.4734900000000 1.0
C      1  0.5548070000000  0.5492520000000  0.5227030000000 1.0
C      1  0.4274250000000  0.5048100000000  0.5559930000000 1.0
C      1  0.4305400000000  0.4939720000000  0.5312260000000 1.0
C      1  0.4925060000000  0.5106490000000  0.4261620000000 1.0
C      1  0.5430380000000  0.5083070000000  0.4376460000000 1.0
C      1  0.5264780000000  0.4803430000000  0.5617370000000 1.0
C      1  0.4425890000000  0.5423080000000  0.4646630000000 1.0
C      1  0.5826770000000  0.4823400000000  0.4920860000000 1.0
C      1  0.5130360000000  0.4684310000000  0.5389130000000 1.0
C      1  0.4647780000000  0.4291300000000  0.5070210000000 1.0
C      1  0.5671570000000  0.5264410000000  0.4759790000000 1.0
C      1  0.5142630000000  0.4234280000000  0.5249300000000 1.0
C      1  0.4858930000000  0.5333320000000  0.4976120000000 1.0
C      1  0.4476020000000  0.5048100000000  0.4387560000000 1.0
C      1  0.4576950000000  0.5607190000000  0.5283560000000 1.0
C      1  0.4596700000000  0.4470830000000  0.5305770000000 1.0
C      1  0.5689050000000  0.4713180000000  0.5352230000000 1.0
C      1  0.4971210000000  0.5121860000000  0.5393410000000 1.0
C      1  0.4831610000000  0.5620670000000  0.4781650000000 1.0
C      1  0.5686080000000  0.4577000000000  0.4880880000000 1.0
C      1  0.5654350000000  0.4566560000000  0.4570690000000 1.0
C      1  0.5271120000000  0.5529720000000  0.5162630000000 1.0
C      1  0.4413800000000  0.5106800000000  0.5056000000000 1.0
C      1  0.4712830000000  0.4910140000000  0.4312560000000 1.0
C      1  0.5190210000000  0.5090630000000  0.5648780000000 1.0
C      1  0.4775210000000  0.4453160000000  0.5536210000000 1.0
END
