TITL C-221343-4578-2 4.68596166674987 125000 -701.180258087719 0 0 101 (C1) n - 1
REM
REM in /rds/project/t2_vol4/rds-t2-cs072/BORA/CARBON/from-Arr/AIRSS/Generating-Clusters/GAP-ML-2020/Only-C1/SD-CG/HFTN-CG
REM
REM
REM
REM
REM
REM ./C.cell (11c1c37f851c82e70ff6c80c92926a4b)
REM AIRSS Version 0.9.1 bugfix July 2018 build 013d7b7c2542+ Fri, 06 Jul 2018 19:26:36 +0100
REM compiler GCC version 9.3.0
REM options -cpp -mtune=generic -march=x86-64 -g -O0
REM seed -770081916 -1793785451 1589042262 1640619233 -493685743 1269559171 -633675828 1733418587 1826514536 1930220939 -1377442015 -758612941 -535974511 -2029687468 -1061505831 35621392 241993753 2032468319 1805461700 786214251 453946504 -1822459886 -504352314 445877489 -161231197 1913493183 -939774046 -1793010220 -450632182 -704633698 -557436818 1668413594 235455638
REM
CELL 1.54180   50.00000   50.00000   50.00000   90.00000   90.00000   90.00000
LATT -1
SFAC C  
C      1  0.4996450000000  0.4080820000000  0.5055320000000 1.0
C      1  0.5355770000000  0.4957250000000  0.5156290000000 1.0
C      1  0.5056720000000  0.4894490000000  0.4166510000000 1.0
C      1  0.4256580000000  0.5562260000000  0.5255620000000 1.0
C      1  0.5503540000000  0.5333220000000  0.5650360000000 1.0
C      1  0.5172770000000  0.4932010000000  0.4452660000000 1.0
C      1  0.5757260000000  0.4882710000000  0.4623200000000 1.0
C      1  0.4980710000000  0.5027020000000  0.5309080000000 1.0
C      1  0.5379550000000  0.5194380000000  0.4724230000000 1.0
C      1  0.4738170000000  0.4520880000000  0.5177830000000 1.0
C      1  0.4908070000000  0.5098850000000  0.5614960000000 1.0
C      1  0.4578720000000  0.4774240000000  0.5216670000000 1.0
C      1  0.5114240000000  0.4499390000000  0.4594960000000 1.0
C      1  0.4289650000000  0.4703200000000  0.5055730000000 1.0
C      1  0.4504990000000  0.4375230000000  0.5579440000000 1.0
C      1  0.4981260000000  0.4545060000000  0.5663780000000 1.0
C      1  0.5630070000000  0.4355880000000  0.5129770000000 1.0
C      1  0.4843010000000  0.4863430000000  0.4835350000000 1.0
C      1  0.5038660000000  0.4565470000000  0.5139830000000 1.0
C      1  0.5130950000000  0.4274350000000  0.5244650000000 1.0
C      1  0.5802590000000  0.5292400000000  0.5278100000000 1.0
C      1  0.4940090000000  0.5176910000000  0.4140700000000 1.0
C      1  0.5337060000000  0.4904450000000  0.4876040000000 1.0
C      1  0.5319940000000  0.5640110000000  0.4603840000000 1.0
C      1  0.4480690000000  0.5705440000000  0.4747560000000 1.0
C      1  0.4744280000000  0.5007160000000  0.5102620000000 1.0
C      1  0.5403710000000  0.5125080000000  0.4439010000000 1.0
C      1  0.4676780000000  0.5135020000000  0.4237370000000 1.0
C      1  0.4412920000000  0.5786750000000  0.5237220000000 1.0
C      1  0.5160500000000  0.5411520000000  0.4732890000000 1.0
C      1  0.4721180000000  0.4331040000000  0.5409450000000 1.0
C      1  0.5704720000000  0.4564960000000  0.4944770000000 1.0
C      1  0.5545630000000  0.4705760000000  0.4730700000000 1.0
C      1  0.5214820000000  0.4709050000000  0.5610560000000 1.0
C      1  0.4813650000000  0.4723130000000  0.4244050000000 1.0
C      1  0.4232060000000  0.4868860000000  0.5479050000000 1.0
C      1  0.5590290000000  0.5618550000000  0.4714350000000 1.0
C      1  0.4531750000000  0.5838030000000  0.5001640000000 1.0
C      1  0.5081460000000  0.4222150000000  0.4692930000000 1.0
C      1  0.5164740000000  0.4774980000000  0.5314760000000 1.0
C      1  0.5244580000000  0.5461000000000  0.5705180000000 1.0
C      1  0.4569250000000  0.4872120000000  0.4252690000000 1.0
C      1  0.5874470000000  0.4983380000000  0.4874300000000 1.0
C      1  0.5393220000000  0.4204440000000  0.5113160000000 1.0
C      1  0.4895180000000  0.5455720000000  0.4543210000000 1.0
C      1  0.4177880000000  0.5119960000000  0.5369160000000 1.0
C      1  0.4984300000000  0.4298900000000  0.5505130000000 1.0
C      1  0.4810410000000  0.5769250000000  0.4943530000000 1.0
C      1  0.4413440000000  0.5254110000000  0.4627580000000 1.0
C      1  0.4295510000000  0.5362620000000  0.5459280000000 1.0
C      1  0.5642200000000  0.4954040000000  0.4374170000000 1.0
C      1  0.4629720000000  0.5084080000000  0.5642240000000 1.0
C      1  0.5696020000000  0.4638610000000  0.5507190000000 1.0
C      1  0.5699420000000  0.4397860000000  0.5393850000000 1.0
C      1  0.4861520000000  0.4554480000000  0.4460370000000 1.0
C      1  0.4921620000000  0.5027040000000  0.4621050000000 1.0
C      1  0.4697450000000  0.5234800000000  0.4517920000000 1.0
C      1  0.4411640000000  0.4598700000000  0.4607710000000 1.0
C      1  0.5493720000000  0.4786930000000  0.5668040000000 1.0
C      1  0.5495570000000  0.4727620000000  0.4242390000000 1.0
C      1  0.4121520000000  0.5156700000000  0.5087170000000 1.0
C      1  0.4676100000000  0.4606760000000  0.5665660000000 1.0
C      1  0.4181800000000  0.4942270000000  0.4917910000000 1.0
C      1  0.4914510000000  0.5659220000000  0.5421560000000 1.0
C      1  0.5618000000000  0.5470250000000  0.5424650000000 1.0
C      1  0.4652040000000  0.5289740000000  0.5105770000000 1.0
C      1  0.5857210000000  0.4806350000000  0.5338020000000 1.0
C      1  0.4176940000000  0.5424500000000  0.5014420000000 1.0
C      1  0.5333910000000  0.5706870000000  0.5082030000000 1.0
C      1  0.5813030000000  0.5063180000000  0.5443290000000 1.0
C      1  0.4691490000000  0.4602770000000  0.4693990000000 1.0
C      1  0.4650310000000  0.4399030000000  0.4919540000000 1.0
C      1  0.4163370000000  0.4628960000000  0.5319340000000 1.0
C      1  0.4277830000000  0.5010600000000  0.4652050000000 1.0
C      1  0.4760620000000  0.5686980000000  0.4669810000000 1.0
C      1  0.4985360000000  0.5346640000000  0.5730760000000 1.0
C      1  0.4530660000000  0.5350350000000  0.5616150000000 1.0
C      1  0.5325700000000  0.5343950000000  0.4267110000000 1.0
C      1  0.4874760000000  0.5542510000000  0.5135640000000 1.0
C      1  0.5288710000000  0.5602900000000  0.4327170000000 1.0
C      1  0.4363400000000  0.4819340000000  0.4452490000000 1.0
C      1  0.4363290000000  0.4492620000000  0.4863190000000 1.0
C      1  0.5818040000000  0.5238490000000  0.4988900000000 1.0
C      1  0.5197540000000  0.5664850000000  0.5513420000000 1.0
C      1  0.5300170000000  0.4786830000000  0.4058830000000 1.0
C      1  0.4318830000000  0.5475470000000  0.4768880000000 1.0
C      1  0.5137990000000  0.5447720000000  0.5030200000000 1.0
C      1  0.4773190000000  0.5516060000000  0.5627180000000 1.0
C      1  0.4524390000000  0.4837260000000  0.5541760000000 1.0
C      1  0.5095140000000  0.4698500000000  0.4875020000000 1.0
C      1  0.5043640000000  0.5414170000000  0.4276250000000 1.0
C      1  0.5870660000000  0.4766090000000  0.5056970000000 1.0
C      1  0.5350410000000  0.4648350000000  0.4502270000000 1.0
C      1  0.5246610000000  0.4095500000000  0.4891360000000 1.0
C      1  0.5191750000000  0.5191640000000  0.5182590000000 1.0
C      1  0.5435740000000  0.5801500000000  0.4838020000000 1.0
C      1  0.4824960000000  0.4175620000000  0.4854840000000 1.0
C      1  0.5603190000000  0.5058630000000  0.5646530000000 1.0
C      1  0.5426970000000  0.5682580000000  0.5343180000000 1.0
C      1  0.4290110000000  0.4424160000000  0.5432340000000 1.0
C      1  0.5626970000000  0.5356990000000  0.4811750000000 1.0
END
