TITL C-22868-8415-13 -0.059066084653177 125000 -410.385887100299 0 0 60 (C1) n - 1
REM
REM in /rds/project/t2_vol4/rds-t2-cs072/BORA/CARBON/from-Arr/AIRSS/Generating-Clusters/GAP-ML-2020/Only-C1/SD-CG/HFTN-CG
REM
REM
REM
REM
REM
REM ./C.cell (11c1c37f851c82e70ff6c80c92926a4b)
REM AIRSS Version 0.9.1 bugfix July 2018 build 013d7b7c2542+ Fri, 06 Jul 2018 19:26:36 +0100
REM compiler GCC version 9.3.0
REM options -cpp -mtune=generic -march=x86-64 -g -O0
REM seed 322775221 311872278 870015749 -152155865 -1965032998 -939491019 -2134854832 1351618907 1857747549 453526561 1408011327 622593455 1987891489 -1564698420 401096335 -1248021843 -264122449 -1928272316 1419214564 -744457201 -1714150895 2027627336 713661499 -1193758313 -164237871 -1997012776 1867201991 -832326441 -1119951034 -1277809453 -774703443 1831419306 1880403059
REM
CELL 1.54180   50.00000   50.00000   50.00000   90.00000   90.00000   90.00000
LATT -1
SFAC C  
C      1  0.5090530000000  0.4916790000000  0.4393970000000 1.0
C      1  0.5541350000000  0.5365240000000  0.4975940000000 1.0
C      1  0.4656730000000  0.4695570000000  0.5475210000000 1.0
C      1  0.5086810000000  0.4711810000000  0.5608480000000 1.0
C      1  0.5311700000000  0.4866630000000  0.5503070000000 1.0
C      1  0.5056310000000  0.5552470000000  0.4743360000000 1.0
C      1  0.4294020000000  0.4694460000000  0.5144420000000 1.0
C      1  0.5517750000000  0.4966020000000  0.4661750000000 1.0
C      1  0.4470870000000  0.4524410000000  0.4997040000000 1.0
C      1  0.5393710000000  0.5582760000000  0.5097020000000 1.0
C      1  0.5123980000000  0.5537970000000  0.5479780000000 1.0
C      1  0.4944900000000  0.5621080000000  0.5270980000000 1.0
C      1  0.5302070000000  0.4543860000000  0.4641940000000 1.0
C      1  0.5619550000000  0.4812800000000  0.4880650000000 1.0
C      1  0.4677300000000  0.5121020000000  0.4443740000000 1.0
C      1  0.5193640000000  0.5063250000000  0.4900520000000 1.0
C      1  0.4805810000000  0.5257710000000  0.4215870000000 1.0
C      1  0.5530690000000  0.4747260000000  0.5339390000000 1.0
C      1  0.4810690000000  0.4395740000000  0.4524280000000 1.0
C      1  0.5109430000000  0.5573260000000  0.5025170000000 1.0
C      1  0.5329040000000  0.5139250000000  0.5579380000000 1.0
C      1  0.4636710000000  0.4604580000000  0.4502280000000 1.0
C      1  0.5271920000000  0.4356440000000  0.5343600000000 1.0
C      1  0.5449400000000  0.4504170000000  0.5202130000000 1.0
C      1  0.5083440000000  0.5285740000000  0.5606180000000 1.0
C      1  0.4732540000000  0.4452150000000  0.5094220000000 1.0
C      1  0.5628920000000  0.5194680000000  0.5187220000000 1.0
C      1  0.4818210000000  0.4872300000000  0.4506560000000 1.0
C      1  0.4499980000000  0.4691630000000  0.4758090000000 1.0
C      1  0.4488010000000  0.5360970000000  0.5180930000000 1.0
C      1  0.5260180000000  0.5419810000000  0.4589540000000 1.0
C      1  0.4688050000000  0.4982960000000  0.5073780000000 1.0
C      1  0.4915050000000  0.5070550000000  0.5239410000000 1.0
C      1  0.4839870000000  0.5134610000000  0.5536740000000 1.0
C      1  0.4769120000000  0.4815480000000  0.4833370000000 1.0
C      1  0.4941860000000  0.4588880000000  0.4914190000000 1.0
C      1  0.4608190000000  0.5303850000000  0.5445430000000 1.0
C      1  0.4615980000000  0.5297360000000  0.4663880000000 1.0
C      1  0.5514350000000  0.5296320000000  0.5433050000000 1.0
C      1  0.4678580000000  0.5525920000000  0.5297400000000 1.0
C      1  0.5055810000000  0.4458260000000  0.5466280000000 1.0
C      1  0.5646580000000  0.4920320000000  0.5144040000000 1.0
C      1  0.4113130000000  0.4854530000000  0.4996760000000 1.0
C      1  0.5426380000000  0.5232880000000  0.4740440000000 1.0
C      1  0.4311630000000  0.4958060000000  0.4848760000000 1.0
C      1  0.5101410000000  0.4850820000000  0.5258170000000 1.0
C      1  0.4807410000000  0.5517670000000  0.4600850000000 1.0
C      1  0.4501660000000  0.5191420000000  0.4926260000000 1.0
C      1  0.4833140000000  0.4849290000000  0.5628320000000 1.0
C      1  0.4781120000000  0.4458130000000  0.5372440000000 1.0
C      1  0.4505940000000  0.4829590000000  0.5276940000000 1.0
C      1  0.5172000000000  0.5408700000000  0.4315050000000 1.0
C      1  0.5113460000000  0.5227340000000  0.5110670000000 1.0
C      1  0.5433450000000  0.4592030000000  0.4914210000000 1.0
C      1  0.5170630000000  0.4770530000000  0.4993570000000 1.0
C      1  0.5323910000000  0.4802900000000  0.4518470000000 1.0
C      1  0.5083670000000  0.5146190000000  0.4214580000000 1.0
C      1  0.5388580000000  0.5542270000000  0.5376290000000 1.0
C      1  0.4887310000000  0.5502150000000  0.4318740000000 1.0
C      1  0.5035580000000  0.4439120000000  0.4669180000000 1.0
END
