TITL C-22847-8448-3 0.117854281524228 125000 -340.364247672498 0 0 51 (C1) n - 1
REM
REM in /rds/project/t2_vol4/rds-t2-cs072/BORA/CARBON/from-Arr/AIRSS/Generating-Clusters/GAP-ML-2020/Only-C1/SD-CG/HFTN-CG
REM
REM
REM
REM
REM
REM ./C.cell (11c1c37f851c82e70ff6c80c92926a4b)
REM AIRSS Version 0.9.1 bugfix July 2018 build 013d7b7c2542+ Fri, 06 Jul 2018 19:26:36 +0100
REM compiler GCC version 9.3.0
REM options -cpp -mtune=generic -march=x86-64 -g -O0
REM seed 1337529865 -1878641692 2000273124 738492968 1708994633 1687476770 -1257451928 403614955 1443685465 -113487714 285030462 1348332112 1790419551 1351857900 1383459710 -596430767 -526609892 -234046258 516937221 1526984043 242226316 -1602740425 -1487784257 -601453626 -1969357067 -1942738450 -1257994397 476953234 -1884754662 1394318787 839164412 -664849410 604527340
REM
CELL 1.54180   50.00000   50.00000   50.00000   90.00000   90.00000   90.00000
LATT -1
SFAC C  
C      1  0.4524250000000  0.5291430000000  0.4585960000000 1.0
C      1  0.5340820000000  0.5281830000000  0.5167610000000 1.0
C      1  0.4665610000000  0.4545070000000  0.5105190000000 1.0
C      1  0.5250590000000  0.5148480000000  0.4401050000000 1.0
C      1  0.5503940000000  0.5038890000000  0.4811660000000 1.0
C      1  0.5179660000000  0.5065850000000  0.5609590000000 1.0
C      1  0.5144610000000  0.4687380000000  0.5407530000000 1.0
C      1  0.4855380000000  0.5376580000000  0.5412010000000 1.0
C      1  0.5187990000000  0.5461370000000  0.4673270000000 1.0
C      1  0.5410100000000  0.5263950000000  0.4625400000000 1.0
C      1  0.4987180000000  0.4870600000000  0.5195990000000 1.0
C      1  0.5204600000000  0.4985290000000  0.4847030000000 1.0
C      1  0.5230660000000  0.4896170000000  0.4327200000000 1.0
C      1  0.4670060000000  0.4827630000000  0.5195990000000 1.0
C      1  0.4937470000000  0.4385480000000  0.4764750000000 1.0
C      1  0.4823420000000  0.5214650000000  0.4930090000000 1.0
C      1  0.5523210000000  0.4858280000000  0.5252510000000 1.0
C      1  0.4797410000000  0.5165270000000  0.4600810000000 1.0
C      1  0.5026290000000  0.5309420000000  0.4483810000000 1.0
C      1  0.4651550000000  0.5184880000000  0.5385670000000 1.0
C      1  0.4344450000000  0.4832070000000  0.4652640000000 1.0
C      1  0.5100080000000  0.4748430000000  0.4958710000000 1.0
C      1  0.4956220000000  0.4948710000000  0.5720100000000 1.0
C      1  0.5040600000000  0.5622510000000  0.4847530000000 1.0
C      1  0.4947460000000  0.4515090000000  0.5498450000000 1.0
C      1  0.5090930000000  0.5694830000000  0.5128380000000 1.0
C      1  0.5541110000000  0.4646290000000  0.5059940000000 1.0
C      1  0.4375970000000  0.5233350000000  0.4943510000000 1.0
C      1  0.5355060000000  0.4857860000000  0.5491400000000 1.0
C      1  0.4878910000000  0.4412830000000  0.5237180000000 1.0
C      1  0.5379800000000  0.4528570000000  0.4691270000000 1.0
C      1  0.5070570000000  0.4334980000000  0.5027750000000 1.0
C      1  0.5121750000000  0.4510270000000  0.4578140000000 1.0
C      1  0.5123570000000  0.5324850000000  0.5507920000000 1.0
C      1  0.5336140000000  0.4452220000000  0.4978820000000 1.0
C      1  0.4689650000000  0.4508950000000  0.4820890000000 1.0
C      1  0.4347050000000  0.5094130000000  0.4696280000000 1.0
C      1  0.5078800000000  0.5138970000000  0.5065620000000 1.0
C      1  0.4836970000000  0.5576790000000  0.5211540000000 1.0
C      1  0.5321850000000  0.5484650000000  0.5368250000000 1.0
C      1  0.4647020000000  0.4907300000000  0.5478180000000 1.0
C      1  0.5298130000000  0.5747230000000  0.5292940000000 1.0
C      1  0.4764990000000  0.5513620000000  0.4933030000000 1.0
C      1  0.4597190000000  0.4720700000000  0.4649630000000 1.0
C      1  0.5548390000000  0.4752690000000  0.4771300000000 1.0
C      1  0.4815370000000  0.4735540000000  0.5631960000000 1.0
C      1  0.4797300000000  0.4878490000000  0.4525780000000 1.0
C      1  0.4503500000000  0.5471020000000  0.4814590000000 1.0
C      1  0.4594930000000  0.5108010000000  0.5098290000000 1.0
C      1  0.5032370000000  0.4739710000000  0.4432280000000 1.0
C      1  0.5549070000000  0.5100830000000  0.5104570000000 1.0
END
