TITL C-22561-9486-4 -0.0968835545517933 125000 -258.761798904226 0 0 40 (C1) n - 1
REM
REM in /rds/project/t2_vol4/rds-t2-cs072/BORA/CARBON/from-Arr/AIRSS/Generating-Clusters/GAP-ML-2020/Only-C1/SD-CG/HFTN-CG
REM
REM
REM
REM
REM
REM ./C.cell (11c1c37f851c82e70ff6c80c92926a4b)
REM AIRSS Version 0.9.1 bugfix July 2018 build 013d7b7c2542+ Fri, 06 Jul 2018 19:26:36 +0100
REM compiler GCC version 9.3.0
REM options -cpp -mtune=generic -march=x86-64 -g -O0
REM seed 1767515958 352940635 1527012596 -377887401 766880423 -684827698 440323688 302868610 344177821 1745275148 2072529679 1926264489 1961996676 346821026 -1066857639 -1727274222 2146436709 2106102137 683849987 252516429 -1961080408 1243899650 1300464643 -61493732 961110811 2022384059 1717868414 -1080001761 72181410 -722979105 -1960970842 1165327640 554916548
REM
CELL 1.54180   50.00000   50.00000   50.00000   90.00000   90.00000   90.00000
LATT -1
SFAC C  
C      1  0.5627240000000  0.4733640000000  0.5342350000000 1.0
C      1  0.4686040000000  0.4560540000000  0.4800740000000 1.0
C      1  0.4406910000000  0.5008080000000  0.4936270000000 1.0
C      1  0.5542790000000  0.5172160000000  0.5174570000000 1.0
C      1  0.4877680000000  0.4510690000000  0.4603060000000 1.0
C      1  0.4994260000000  0.5257470000000  0.5473130000000 1.0
C      1  0.4834420000000  0.5255280000000  0.5007010000000 1.0
C      1  0.4469870000000  0.5276310000000  0.4823060000000 1.0
C      1  0.5401860000000  0.4630470000000  0.4697720000000 1.0
C      1  0.5311890000000  0.5025490000000  0.4851550000000 1.0
C      1  0.4589920000000  0.4956420000000  0.4510620000000 1.0
C      1  0.5257700000000  0.5074470000000  0.5149530000000 1.0
C      1  0.5512210000000  0.4803630000000  0.4868150000000 1.0
C      1  0.4850530000000  0.4960860000000  0.4932300000000 1.0
C      1  0.5253630000000  0.5175480000000  0.5586560000000 1.0
C      1  0.4925640000000  0.4771310000000  0.5149550000000 1.0
C      1  0.4944760000000  0.4667510000000  0.4382620000000 1.0
C      1  0.5480270000000  0.5260710000000  0.5427760000000 1.0
C      1  0.5373230000000  0.4748090000000  0.5461500000000 1.0
C      1  0.5129820000000  0.4683170000000  0.4620800000000 1.0
C      1  0.5466000000000  0.5279210000000  0.4875030000000 1.0
C      1  0.4620300000000  0.4898340000000  0.5374210000000 1.0
C      1  0.4580100000000  0.5379810000000  0.5065780000000 1.0
C      1  0.4428390000000  0.5035300000000  0.5217800000000 1.0
C      1  0.5059020000000  0.4957960000000  0.4727790000000 1.0
C      1  0.4827530000000  0.4921420000000  0.4361570000000 1.0
C      1  0.5246910000000  0.5415750000000  0.4771350000000 1.0
C      1  0.5135520000000  0.5368230000000  0.4516410000000 1.0
C      1  0.5338520000000  0.4931730000000  0.5676800000000 1.0
C      1  0.4733550000000  0.5154910000000  0.5491020000000 1.0
C      1  0.5176870000000  0.4822390000000  0.5272350000000 1.0
C      1  0.5646290000000  0.4877060000000  0.5114520000000 1.0
C      1  0.4637980000000  0.5226110000000  0.4591260000000 1.0
C      1  0.5042410000000  0.5435950000000  0.4957590000000 1.0
C      1  0.4944200000000  0.5161950000000  0.4510100000000 1.0
C      1  0.5065880000000  0.5294560000000  0.5199250000000 1.0
C      1  0.4508310000000  0.5292240000000  0.5324860000000 1.0
C      1  0.4607440000000  0.4848700000000  0.4793550000000 1.0
C      1  0.4693080000000  0.4644440000000  0.5291680000000 1.0
C      1  0.4771030000000  0.4522170000000  0.5068260000000 1.0
END
