TITL C-22834-2139-7 -311.301699822163 125000 -824.520829664469 0 0 119 (C1) n - 1
REM
REM in /rds/project/t2_vol4/rds-t2-cs072/BORA/CARBON/from-Arr/AIRSS/Generating-Clusters/GAP-ML-2020/Only-C1/SD-CG/HFTN-CG
REM
REM
REM
REM
REM
REM ./C.cell (11c1c37f851c82e70ff6c80c92926a4b)
REM AIRSS Version 0.9.1 bugfix July 2018 build 013d7b7c2542+ Fri, 06 Jul 2018 19:26:36 +0100
REM compiler GCC version 9.3.0
REM options -cpp -mtune=generic -march=x86-64 -g -O0
REM seed -1483087347 1210722682 1038947533 269494584 577015003 -1925877111 -400186295 -1712664235 -177630532 1917288382 -688746472 1774570166 -38690591 -1284166013 202324044 1142819222 1961803073 1027781780 -638683334 786957111 537496233 744424149 -289910040 -327036436 -365075945 -625774908 -1394917544 1620908158 1060041988 1687131113 440894877 -1356571896 -770814023
REM
CELL 1.54180   50.00000   50.00000   50.00000   90.00000   90.00000   90.00000
LATT -1
SFAC C  
C      1  0.4560850000000  0.4311270000000  0.5365240000000 1.0
C      1  0.5169320000000  0.4989750000000  0.5108730000000 1.0
C      1  0.5359640000000  0.4912830000000  0.4196300000000 1.0
C      1  0.4791110000000  0.4808090000000  0.5362610000000 1.0
C      1  0.4545620000000  0.5133450000000  0.4663930000000 1.0
C      1  0.5784470000000  0.5260330000000  0.4881240000000 1.0
C      1  0.4721120000000  0.4422490000000  0.4588710000000 1.0
C      1  0.5595490000000  0.5673030000000  0.5037500000000 1.0
C      1  0.4357640000000  0.5057070000000  0.5659870000000 1.0
C      1  0.5229000000000  0.4434010000000  0.4384800000000 1.0
C      1  0.5061520000000  0.5091290000000  0.4651920000000 1.0
C      1  0.4662910000000  0.5800870000000  0.4437370000000 1.0
C      1  0.5603980000000  0.4377620000000  0.5107610000000 1.0
C      1  0.4474570000000  0.4272580000000  0.5083670000000 1.0
C      1  0.4496250000000  0.4618980000000  0.5833860000000 1.0
C      1  0.4920650000000  0.5892350000000  0.4866360000000 1.0
C      1  0.5179910000000  0.5376870000000  0.4166900000000 1.0
C      1  0.4474980000000  0.5089900000000  0.4958610000000 1.0
C      1  0.4846920000000  0.4835990000000  0.5827540000000 1.0
C      1  0.4821740000000  0.5245890000000  0.4688320000000 1.0
C      1  0.5068680000000  0.4294880000000  0.5404050000000 1.0
C      1  0.5762160000000  0.5456120000000  0.5133500000000 1.0
C      1  0.5477150000000  0.4928330000000  0.4801590000000 1.0
C      1  0.5113630000000  0.5469580000000  0.4980780000000 1.0
C      1  0.5195480000000  0.4864690000000  0.4830220000000 1.0
C      1  0.4928220000000  0.5751560000000  0.4385440000000 1.0
C      1  0.4793810000000  0.4346780000000  0.5540740000000 1.0
C      1  0.5204240000000  0.5174760000000  0.5848730000000 1.0
C      1  0.4334880000000  0.5545180000000  0.4609640000000 1.0
C      1  0.4336370000000  0.4733060000000  0.4491810000000 1.0
C      1  0.5469670000000  0.5239090000000  0.5784910000000 1.0
C      1  0.5280220000000  0.5302310000000  0.4634780000000 1.0
C      1  0.4870250000000  0.4954410000000  0.5125560000000 1.0
C      1  0.4925250000000  0.5874110000000  0.5325670000000 1.0
C      1  0.5726970000000  0.5423540000000  0.4651960000000 1.0
C      1  0.4154030000000  0.4818870000000  0.4698680000000 1.0
C      1  0.4469920000000  0.4806610000000  0.5029750000000 1.0
C      1  0.4173350000000  0.5187930000000  0.5000780000000 1.0
C      1  0.4751330000000  0.4535710000000  0.5766690000000 1.0
C      1  0.4604540000000  0.5519830000000  0.5615660000000 1.0
C      1  0.5744340000000  0.5382360000000  0.5408210000000 1.0
C      1  0.5400570000000  0.4168440000000  0.5029430000000 1.0
C      1  0.4944050000000  0.4705240000000  0.4097550000000 1.0
C      1  0.5241010000000  0.4782660000000  0.5540010000000 1.0
C      1  0.5090340000000  0.4123910000000  0.4693100000000 1.0
C      1  0.4507080000000  0.4407280000000  0.4134090000000 1.0
C      1  0.5458660000000  0.4368910000000  0.4554380000000 1.0
C      1  0.5375540000000  0.5410650000000  0.4365420000000 1.0
C      1  0.5283860000000  0.4481100000000  0.5458350000000 1.0
C      1  0.4487070000000  0.4776760000000  0.5326300000000 1.0
C      1  0.5314030000000  0.4760030000000  0.5981350000000 1.0
C      1  0.5303330000000  0.5638580000000  0.5441230000000 1.0
C      1  0.5370620000000  0.4848870000000  0.5283510000000 1.0
C      1  0.4105950000000  0.4965850000000  0.5183180000000 1.0
C      1  0.5669500000000  0.4922470000000  0.5329710000000 1.0
C      1  0.5060990000000  0.5795960000000  0.4629930000000 1.0
C      1  0.5620100000000  0.5289640000000  0.4410160000000 1.0
C      1  0.4675750000000  0.5094950000000  0.4215630000000 1.0
C      1  0.4884410000000  0.5482450000000  0.5623040000000 1.0
C      1  0.5862310000000  0.4961810000000  0.4818100000000 1.0
C      1  0.5158930000000  0.4581080000000  0.4932450000000 1.0
C      1  0.5631650000000  0.5018340000000  0.5730290000000 1.0
C      1  0.4963650000000  0.4926580000000  0.5577950000000 1.0
C      1  0.4848530000000  0.5382300000000  0.4935380000000 1.0
C      1  0.4727980000000  0.4541170000000  0.4083150000000 1.0
C      1  0.5550400000000  0.4497090000000  0.5584990000000 1.0
C      1  0.4236900000000  0.5477170000000  0.5073320000000 1.0
C      1  0.4904710000000  0.4989190000000  0.4086140000000 1.0
C      1  0.5505290000000  0.5441800000000  0.5563480000000 1.0
C      1  0.5366440000000  0.5777930000000  0.5192340000000 1.0
C      1  0.4109070000000  0.5100330000000  0.4724760000000 1.0
C      1  0.5672440000000  0.4544440000000  0.4629560000000 1.0
C      1  0.4497630000000  0.5699110000000  0.5413850000000 1.0
C      1  0.4181630000000  0.4724780000000  0.4987900000000 1.0
C      1  0.5166420000000  0.5105940000000  0.4095180000000 1.0
C      1  0.5593620000000  0.4999390000000  0.4354100000000 1.0
C      1  0.4943640000000  0.4113450000000  0.4932790000000 1.0
C      1  0.4626390000000  0.5834360000000  0.4955120000000 1.0
C      1  0.5490520000000  0.4748970000000  0.5751720000000 1.0
C      1  0.4382480000000  0.5331210000000  0.5579160000000 1.0
C      1  0.4573450000000  0.4914610000000  0.4467700000000 1.0
C      1  0.4382440000000  0.5650290000000  0.4877670000000 1.0
C      1  0.4653040000000  0.5849540000000  0.5239660000000 1.0
C      1  0.5365110000000  0.4568060000000  0.5162800000000 1.0
C      1  0.5102790000000  0.5905750000000  0.5105300000000 1.0
C      1  0.5895200000000  0.4735810000000  0.4991830000000 1.0
C      1  0.4464260000000  0.4468470000000  0.4408040000000 1.0
C      1  0.5732000000000  0.4468110000000  0.5369150000000 1.0
C      1  0.5105230000000  0.4929520000000  0.5978420000000 1.0
C      1  0.4853160000000  0.4519690000000  0.5304760000000 1.0
C      1  0.5136320000000  0.4140820000000  0.5150910000000 1.0
C      1  0.4740360000000  0.4756630000000  0.4918670000000 1.0
C      1  0.5364940000000  0.4169880000000  0.4743860000000 1.0
C      1  0.5272070000000  0.5261070000000  0.5102890000000 1.0
C      1  0.5680760000000  0.4847470000000  0.4593280000000 1.0
C      1  0.5260380000000  0.5593150000000  0.4715770000000 1.0
C      1  0.5051390000000  0.5228110000000  0.5602050000000 1.0
C      1  0.5035560000000  0.5699000000000  0.5516270000000 1.0
C      1  0.5210410000000  0.4656700000000  0.4206830000000 1.0
C      1  0.4286650000000  0.5271070000000  0.4579470000000 1.0
C      1  0.4683090000000  0.5386280000000  0.4231600000000 1.0
C      1  0.5772750000000  0.5112660000000  0.5502390000000 1.0
C      1  0.4709720000000  0.4287650000000  0.4887200000000 1.0
C      1  0.4873110000000  0.4514760000000  0.5012210000000 1.0
C      1  0.5558140000000  0.5640880000000  0.4759470000000 1.0
C      1  0.4357860000000  0.4512740000000  0.5369690000000 1.0
C      1  0.4990210000000  0.4305700000000  0.4502840000000 1.0
C      1  0.4938430000000  0.5517900000000  0.4210730000000 1.0
C      1  0.5773100000000  0.4500490000000  0.4888940000000 1.0
C      1  0.4716440000000  0.5199540000000  0.5098190000000 1.0
C      1  0.5268310000000  0.5326500000000  0.5402330000000 1.0
C      1  0.4292620000000  0.5504300000000  0.5350480000000 1.0
C      1  0.4247140000000  0.4455690000000  0.5107620000000 1.0
C      1  0.4267630000000  0.4942640000000  0.5419530000000 1.0
C      1  0.4537900000000  0.4896080000000  0.5837090000000 1.0
C      1  0.4514190000000  0.5583950000000  0.4384580000000 1.0
C      1  0.5846880000000  0.4713600000000  0.5268930000000 1.0
C      1  0.4756930000000  0.4725710000000  0.4626090000000 1.0
C      1  0.5474340000000  0.5204640000000  0.4866430000000 1.0
END
