TITL C-221371-4336-7 0.00710066088257216 125000 -220.639592102816 0 0 34 (C1) n - 1
REM
REM in /rds/project/t2_vol4/rds-t2-cs072/BORA/CARBON/from-Arr/AIRSS/Generating-Clusters/GAP-ML-2020/Only-C1/SD-CG/HFTN-CG
REM
REM
REM
REM
REM
REM ./C.cell (11c1c37f851c82e70ff6c80c92926a4b)
REM AIRSS Version 0.9.1 bugfix July 2018 build 013d7b7c2542+ Fri, 06 Jul 2018 19:26:36 +0100
REM compiler GCC version 9.3.0
REM options -cpp -mtune=generic -march=x86-64 -g -O0
REM seed -624817801 -2079052670 75572788 -86775603 1348064856 -492507236 -531666169 -1971014123 -940040305 -1088501510 911624577 1458949099 -2013694978 742389228 -252543820 2057039522 1137912852 -2077224518 712082744 -1535613083 669433219 790964513 -1026239198 1467178658 -1822757116 -2007857906 -1066133968 1911158388 -2006877333 38509862 1173289575 -1483531675 -1620184981
REM
CELL 1.54180   50.00000   50.00000   50.00000   90.00000   90.00000   90.00000
LATT -1
SFAC C  
C      1  0.4447590000000  0.5091030000000  0.5321350000000 1.0
C      1  0.4713480000000  0.5235600000000  0.4759440000000 1.0
C      1  0.4896750000000  0.4476510000000  0.4636800000000 1.0
C      1  0.4850890000000  0.5642270000000  0.5135260000000 1.0
C      1  0.5439890000000  0.5124160000000  0.5289740000000 1.0
C      1  0.4842430000000  0.4461740000000  0.5094480000000 1.0
C      1  0.5299570000000  0.4968370000000  0.4824410000000 1.0
C      1  0.4775770000000  0.4686580000000  0.5248100000000 1.0
C      1  0.5297800000000  0.5641890000000  0.4945470000000 1.0
C      1  0.4996680000000  0.4771510000000  0.5420770000000 1.0
C      1  0.4641650000000  0.4933110000000  0.4798650000000 1.0
C      1  0.4801480000000  0.4923510000000  0.5063630000000 1.0
C      1  0.4355230000000  0.5132550000000  0.5066810000000 1.0
C      1  0.5098280000000  0.4926460000000  0.5034410000000 1.0
C      1  0.4730280000000  0.5144530000000  0.5294460000000 1.0
C      1  0.4972220000000  0.5052480000000  0.5431650000000 1.0
C      1  0.4355360000000  0.4932250000000  0.4884960000000 1.0
C      1  0.5340060000000  0.4713950000000  0.4647060000000 1.0
C      1  0.5160840000000  0.5146290000000  0.5235110000000 1.0
C      1  0.4716780000000  0.4686110000000  0.4680170000000 1.0
C      1  0.5417300000000  0.5408440000000  0.4903080000000 1.0
C      1  0.5587550000000  0.5261220000000  0.5077490000000 1.0
C      1  0.5478720000000  0.4836320000000  0.5243580000000 1.0
C      1  0.4533250000000  0.5353640000000  0.4947540000000 1.0
C      1  0.4692250000000  0.5425670000000  0.5176970000000 1.0
C      1  0.5156890000000  0.4506510000000  0.4755040000000 1.0
C      1  0.4976420000000  0.5344500000000  0.4762660000000 1.0
C      1  0.5231730000000  0.5237480000000  0.4751640000000 1.0
C      1  0.5546700000000  0.4993050000000  0.5007420000000 1.0
C      1  0.5216290000000  0.4707250000000  0.5216500000000 1.0
C      1  0.5124420000000  0.4485360000000  0.5042970000000 1.0
C      1  0.5573410000000  0.4686400000000  0.4522010000000 1.0
C      1  0.5023060000000  0.5603370000000  0.4928850000000 1.0
C      1  0.4708990000000  0.4459920000000  0.4851490000000 1.0
END
