TITL C-22841-2147-4 -0.00336810058370105 125000 -667.43708210702 0 0 95 (C1) n - 1
REM
REM in /rds/project/t2_vol4/rds-t2-cs072/BORA/CARBON/from-Arr/AIRSS/Generating-Clusters/GAP-ML-2020/Only-C1/SD-CG/HFTN-CG
REM
REM
REM
REM
REM
REM ./C.cell (11c1c37f851c82e70ff6c80c92926a4b)
REM AIRSS Version 0.9.1 bugfix July 2018 build 013d7b7c2542+ Fri, 06 Jul 2018 19:26:36 +0100
REM compiler GCC version 9.3.0
REM options -cpp -mtune=generic -march=x86-64 -g -O0
REM seed -1994360423 -211221999 1691080493 -871521816 -490274607 -776174197 1839237652 1126158552 698703597 -1884880204 1773929667 -566604419 -951648089 1846671846 -1996956281 -311527630 -1898709162 -1414226996 314320795 -1711886890 886478054 455869048 2014847920 436524093 1099790316 226812666 1034482028 -343177156 -1388961803 -16076918 745792652 1039091947 -474168381
REM
CELL 1.54180   50.00000   50.00000   50.00000   90.00000   90.00000   90.00000
LATT -1
SFAC C  
C      1  0.4456630000000  0.4451420000000  0.5048660000000 1.0
C      1  0.5443100000000  0.4572520000000  0.4481700000000 1.0
C      1  0.5077330000000  0.4678520000000  0.4972790000000 1.0
C      1  0.4582210000000  0.4491310000000  0.4795820000000 1.0
C      1  0.5808230000000  0.5230500000000  0.5382450000000 1.0
C      1  0.4410670000000  0.5381990000000  0.5358550000000 1.0
C      1  0.4506570000000  0.4465150000000  0.4519410000000 1.0
C      1  0.5562700000000  0.4501410000000  0.5693800000000 1.0
C      1  0.4983490000000  0.5662240000000  0.5229990000000 1.0
C      1  0.5049160000000  0.5417620000000  0.5681780000000 1.0
C      1  0.5761700000000  0.4828750000000  0.5414810000000 1.0
C      1  0.4532320000000  0.5723180000000  0.5013330000000 1.0
C      1  0.5283740000000  0.5693900000000  0.5243870000000 1.0
C      1  0.5185640000000  0.5238260000000  0.4102960000000 1.0
C      1  0.5644850000000  0.5486000000000  0.5020700000000 1.0
C      1  0.5798370000000  0.5005720000000  0.4932010000000 1.0
C      1  0.5075460000000  0.5504240000000  0.4508400000000 1.0
C      1  0.5565790000000  0.5295070000000  0.4588920000000 1.0
C      1  0.5860390000000  0.5003440000000  0.5206620000000 1.0
C      1  0.5198480000000  0.4831410000000  0.4124320000000 1.0
C      1  0.4763980000000  0.4345990000000  0.4410230000000 1.0
C      1  0.5041250000000  0.5171980000000  0.5196900000000 1.0
C      1  0.4924460000000  0.5349550000000  0.4738140000000 1.0
C      1  0.4990070000000  0.4239690000000  0.4527830000000 1.0
C      1  0.5685660000000  0.5062790000000  0.5577500000000 1.0
C      1  0.4178790000000  0.5168760000000  0.4490280000000 1.0
C      1  0.4809060000000  0.5011230000000  0.5216670000000 1.0
C      1  0.4899450000000  0.5187430000000  0.5790390000000 1.0
C      1  0.4457020000000  0.5551320000000  0.4550760000000 1.0
C      1  0.4410700000000  0.4571060000000  0.5495280000000 1.0
C      1  0.4900040000000  0.4191720000000  0.5166410000000 1.0
C      1  0.4230070000000  0.4923000000000  0.5200700000000 1.0
C      1  0.4799260000000  0.5827260000000  0.5065080000000 1.0
C      1  0.5564350000000  0.4615970000000  0.5398630000000 1.0
C      1  0.5422210000000  0.4644500000000  0.5849390000000 1.0
C      1  0.4995380000000  0.4920490000000  0.5784060000000 1.0
C      1  0.5496380000000  0.5047170000000  0.4443700000000 1.0
C      1  0.5329920000000  0.5390320000000  0.5649590000000 1.0
C      1  0.5301530000000  0.4788620000000  0.5399170000000 1.0
C      1  0.5058960000000  0.4346280000000  0.5370670000000 1.0
C      1  0.5040110000000  0.5064320000000  0.4721770000000 1.0
C      1  0.5539640000000  0.4422880000000  0.5170850000000 1.0
C      1  0.5445510000000  0.5131650000000  0.5701000000000 1.0
C      1  0.4877930000000  0.5567430000000  0.5503780000000 1.0
C      1  0.5379380000000  0.5504030000000  0.4565010000000 1.0
C      1  0.4611610000000  0.5322120000000  0.4657640000000 1.0
C      1  0.4444780000000  0.5028140000000  0.5649420000000 1.0
C      1  0.4813200000000  0.4716940000000  0.5672760000000 1.0
C      1  0.4996170000000  0.5382390000000  0.4259980000000 1.0
C      1  0.4827410000000  0.5850330000000  0.4770300000000 1.0
C      1  0.4210930000000  0.5071450000000  0.4942990000000 1.0
C      1  0.4848790000000  0.4420520000000  0.5592590000000 1.0
C      1  0.4630300000000  0.5230810000000  0.5723510000000 1.0
C      1  0.5705550000000  0.5270260000000  0.4835440000000 1.0
C      1  0.4956560000000  0.4549440000000  0.4491290000000 1.0
C      1  0.4839030000000  0.4772710000000  0.5349600000000 1.0
C      1  0.5279200000000  0.5028600000000  0.5192730000000 1.0
C      1  0.4616150000000  0.5451950000000  0.5544710000000 1.0
C      1  0.4242340000000  0.5435280000000  0.4433710000000 1.0
C      1  0.5136090000000  0.4155740000000  0.4998520000000 1.0
C      1  0.4310370000000  0.5112560000000  0.5409430000000 1.0
C      1  0.5197020000000  0.4210230000000  0.4721980000000 1.0
C      1  0.4049360000000  0.5098350000000  0.4726600000000 1.0
C      1  0.5438660000000  0.5554500000000  0.5438410000000 1.0
C      1  0.5312240000000  0.4256320000000  0.5203120000000 1.0
C      1  0.5719800000000  0.4754410000000  0.4797730000000 1.0
C      1  0.4603920000000  0.4357190000000  0.5476360000000 1.0
C      1  0.5436650000000  0.4382430000000  0.4690750000000 1.0
C      1  0.5435710000000  0.5680310000000  0.4995880000000 1.0
C      1  0.4989050000000  0.5404330000000  0.5031970000000 1.0
C      1  0.5607950000000  0.4493040000000  0.4901080000000 1.0
C      1  0.4660000000000  0.5018210000000  0.4979110000000 1.0
C      1  0.5619060000000  0.4788860000000  0.4537260000000 1.0
C      1  0.5397620000000  0.5053940000000  0.4157760000000 1.0
C      1  0.4850240000000  0.4637730000000  0.4767470000000 1.0
C      1  0.5671410000000  0.5452380000000  0.5300540000000 1.0
C      1  0.4783130000000  0.4921110000000  0.4728140000000 1.0
C      1  0.4370630000000  0.4952980000000  0.4416320000000 1.0
C      1  0.4981000000000  0.5007910000000  0.4082730000000 1.0
C      1  0.5075870000000  0.4634900000000  0.5271650000000 1.0
C      1  0.5332150000000  0.5729900000000  0.4738690000000 1.0
C      1  0.4435310000000  0.5471960000000  0.5097910000000 1.0
C      1  0.4520670000000  0.4762600000000  0.5677750000000 1.0
C      1  0.5210680000000  0.4963130000000  0.4517270000000 1.0
C      1  0.5192090000000  0.4687460000000  0.4384900000000 1.0
C      1  0.4801780000000  0.5157200000000  0.4249440000000 1.0
C      1  0.4553050000000  0.5765630000000  0.4726180000000 1.0
C      1  0.5203220000000  0.4932530000000  0.4931830000000 1.0
C      1  0.4375060000000  0.4681720000000  0.4424710000000 1.0
C      1  0.4308110000000  0.4640310000000  0.5237150000000 1.0
C      1  0.5277030000000  0.4882980000000  0.5711890000000 1.0
C      1  0.4634620000000  0.5074470000000  0.4482210000000 1.0
C      1  0.4473760000000  0.5241430000000  0.4915870000000 1.0
C      1  0.4625140000000  0.4265780000000  0.5208270000000 1.0
C      1  0.5061600000000  0.5776410000000  0.4641760000000 1.0
END
