TITL C-221356-4544-5 364.855025454818 125000 -720.623896559093 0 0 104 (C1) n - 1
REM
REM in /rds/project/t2_vol4/rds-t2-cs072/BORA/CARBON/from-Arr/AIRSS/Generating-Clusters/GAP-ML-2020/Only-C1/SD-CG/HFTN-CG
REM
REM
REM
REM
REM
REM ./C.cell (11c1c37f851c82e70ff6c80c92926a4b)
REM AIRSS Version 0.9.1 bugfix July 2018 build 013d7b7c2542+ Fri, 06 Jul 2018 19:26:36 +0100
REM compiler GCC version 9.3.0
REM options -cpp -mtune=generic -march=x86-64 -g -O0
REM seed -18150977 1430533936 -1354678641 -12987731 -1973378327 506415651 -378578471 -997688732 1637447728 -54434627 -81338405 -839305594 -1455583591 -454359343 2080023332 1639407486 -1716279073 -667204577 -1798431568 -384549133 -1688478263 -2010666994 -995036141 -524175585 -988515387 876062993 984032812 16893881 -200455916 -1132279843 -1316870714 1879061740 -1227555825
REM
CELL 1.54180   50.00000   50.00000   50.00000   90.00000   90.00000   90.00000
LATT -1
SFAC C  
C      1  0.4140220000000  0.4741210000000  0.4718090000000 1.0
C      1  0.4887470000000  0.5177520000000  0.5076620000000 1.0
C      1  0.5631230000000  0.4993330000000  0.5658530000000 1.0
C      1  0.5252880000000  0.5154000000000  0.5438180000000 1.0
C      1  0.4850100000000  0.5712180000000  0.5120660000000 1.0
C      1  0.4982060000000  0.5826710000000  0.4886930000000 1.0
C      1  0.4918940000000  0.4315550000000  0.4370560000000 1.0
C      1  0.4143960000000  0.4661340000000  0.5001720000000 1.0
C      1  0.4284600000000  0.4889340000000  0.5459010000000 1.0
C      1  0.4557710000000  0.5680800000000  0.5091320000000 1.0
C      1  0.4703880000000  0.5139470000000  0.5289870000000 1.0
C      1  0.5809980000000  0.5021910000000  0.4954870000000 1.0
C      1  0.5452370000000  0.4646580000000  0.4588740000000 1.0
C      1  0.4261730000000  0.5374900000000  0.5338830000000 1.0
C      1  0.4154940000000  0.5308010000000  0.5087520000000 1.0
C      1  0.4675880000000  0.5380850000000  0.5720470000000 1.0
C      1  0.5022610000000  0.4674790000000  0.4996510000000 1.0
C      1  0.5282890000000  0.4912360000000  0.4555410000000 1.0
C      1  0.4292770000000  0.5167110000000  0.5539560000000 1.0
C      1  0.4604800000000  0.5202260000000  0.4219090000000 1.0
C      1  0.4768160000000  0.4690490000000  0.5163850000000 1.0
C      1  0.5681870000000  0.4436930000000  0.5057980000000 1.0
C      1  0.4873030000000  0.5726740000000  0.5419260000000 1.0
C      1  0.5136160000000  0.5503080000000  0.5759760000000 1.0
C      1  0.5348300000000  0.4393250000000  0.5339530000000 1.0
C      1  0.4827330000000  0.4169230000000  0.4818080000000 1.0
C      1  0.5216940000000  0.5403460000000  0.4780440000000 1.0
C      1  0.4450000000000  0.5581930000000  0.5332390000000 1.0
C      1  0.5338670000000  0.4967380000000  0.5231250000000 1.0
C      1  0.4260780000000  0.5261920000000  0.4590310000000 1.0
C      1  0.5661200000000  0.5506300000000  0.4900090000000 1.0
C      1  0.4444510000000  0.5606860000000  0.4843730000000 1.0
C      1  0.4364860000000  0.4820710000000  0.4369330000000 1.0
C      1  0.5797200000000  0.5211520000000  0.4288250000000 1.0
C      1  0.5550670000000  0.4569910000000  0.5463480000000 1.0
C      1  0.5736010000000  0.4710790000000  0.4552270000000 1.0
C      1  0.4295090000000  0.4583780000000  0.4528270000000 1.0
C      1  0.5269630000000  0.5410830000000  0.5266980000000 1.0
C      1  0.4742950000000  0.4361960000000  0.4604950000000 1.0
C      1  0.4054280000000  0.5060470000000  0.5072860000000 1.0
C      1  0.5023120000000  0.5022530000000  0.5600650000000 1.0
C      1  0.5278670000000  0.5821570000000  0.4933310000000 1.0
C      1  0.4299840000000  0.4438450000000  0.5068080000000 1.0
C      1  0.4856260000000  0.4396220000000  0.5585650000000 1.0
C      1  0.5110570000000  0.5712010000000  0.5572080000000 1.0
C      1  0.5372700000000  0.5866070000000  0.5185230000000 1.0
C      1  0.5843810000000  0.4894730000000  0.5226100000000 1.0
C      1  0.4656810000000  0.4808280000000  0.4904990000000 1.0
C      1  0.4455770000000  0.5227370000000  0.5747620000000 1.0
C      1  0.5789230000000  0.5078190000000  0.5441290000000 1.0
C      1  0.5431590000000  0.5181440000000  0.5701120000000 1.0
C      1  0.4595380000000  0.4466950000000  0.5502590000000 1.0
C      1  0.4383370000000  0.4257580000000  0.4871490000000 1.0
C      1  0.4902310000000  0.4807150000000  0.4241730000000 1.0
C      1  0.5113510000000  0.4118090000000  0.4775470000000 1.0
C      1  0.5284350000000  0.4463680000000  0.4402320000000 1.0
C      1  0.5162690000000  0.4223780000000  0.4501780000000 1.0
C      1  0.5746760000000  0.4626930000000  0.5263490000000 1.0
C      1  0.4962700000000  0.5312660000000  0.4406260000000 1.0
C      1  0.5473740000000  0.4758760000000  0.5655080000000 1.0
C      1  0.5321710000000  0.5020500000000  0.4267300000000 1.0
C      1  0.4844590000000  0.5096280000000  0.4598890000000 1.0
C      1  0.5053250000000  0.5425230000000  0.5066410000000 1.0
C      1  0.4647750000000  0.5599990000000  0.5531560000000 1.0
C      1  0.4716650000000  0.5083550000000  0.4857690000000 1.0
C      1  0.5486410000000  0.4566460000000  0.4882540000000 1.0
C      1  0.5885540000000  0.5175200000000  0.4553570000000 1.0
C      1  0.5424760000000  0.5440410000000  0.5777430000000 1.0
C      1  0.4593380000000  0.4916170000000  0.4234880000000 1.0
C      1  0.4606590000000  0.5585920000000  0.4608080000000 1.0
C      1  0.4203000000000  0.4985230000000  0.4552480000000 1.0
C      1  0.5249850000000  0.4499310000000  0.5045580000000 1.0
C      1  0.5186630000000  0.4785690000000  0.5709280000000 1.0
C      1  0.4241400000000  0.5409860000000  0.4837920000000 1.0
C      1  0.5510960000000  0.4198690000000  0.5153080000000 1.0
C      1  0.5713590000000  0.5353500000000  0.5379160000000 1.0
C      1  0.5569350000000  0.5119250000000  0.4212180000000 1.0
C      1  0.5038230000000  0.4539670000000  0.4239290000000 1.0
C      1  0.5125010000000  0.4328310000000  0.5523540000000 1.0
C      1  0.4977640000000  0.4849190000000  0.4538700000000 1.0
C      1  0.4767980000000  0.4890980000000  0.5418310000000 1.0
C      1  0.4875310000000  0.5693740000000  0.4651480000000 1.0
C      1  0.4944430000000  0.5287640000000  0.5752510000000 1.0
C      1  0.4574790000000  0.4425280000000  0.5213400000000 1.0
C      1  0.4524510000000  0.4751450000000  0.5534480000000 1.0
C      1  0.5573160000000  0.5537620000000  0.5558910000000 1.0
C      1  0.4125080000000  0.4846270000000  0.5218550000000 1.0
C      1  0.4860700000000  0.4658010000000  0.4735750000000 1.0
C      1  0.5840240000000  0.5307200000000  0.4801960000000 1.0
C      1  0.5422780000000  0.5617880000000  0.4801080000000 1.0
C      1  0.4881170000000  0.5256860000000  0.4149950000000 1.0
C      1  0.5294610000000  0.4195020000000  0.4967110000000 1.0
C      1  0.4444190000000  0.4361960000000  0.4616680000000 1.0
C      1  0.5520910000000  0.5089340000000  0.5016310000000 1.0
C      1  0.4479330000000  0.5371950000000  0.4434710000000 1.0
C      1  0.5551050000000  0.5361500000000  0.5136920000000 1.0
C      1  0.5056110000000  0.5035390000000  0.4139330000000 1.0
C      1  0.5857090000000  0.4905490000000  0.4683810000000 1.0
C      1  0.5300520000000  0.5098170000000  0.4801870000000 1.0
C      1  0.5354530000000  0.5690680000000  0.5405110000000 1.0
C      1  0.5063690000000  0.4536640000000  0.5700810000000 1.0
C      1  0.5066730000000  0.5516830000000  0.4552480000000 1.0
C      1  0.5122850000000  0.4957390000000  0.5035540000000 1.0
C      1  0.4630090000000  0.4188070000000  0.5021460000000 1.0
END
