TITL C-22855-8351-2 68.9898020090393 125000 -752.592137558664 0 0 108 (C1) n - 1
REM
REM in /rds/project/t2_vol4/rds-t2-cs072/BORA/CARBON/from-Arr/AIRSS/Generating-Clusters/GAP-ML-2020/Only-C1/SD-CG/HFTN-CG
REM
REM
REM
REM
REM
REM ./C.cell (11c1c37f851c82e70ff6c80c92926a4b)
REM AIRSS Version 0.9.1 bugfix July 2018 build 013d7b7c2542+ Fri, 06 Jul 2018 19:26:36 +0100
REM compiler GCC version 9.3.0
REM options -cpp -mtune=generic -march=x86-64 -g -O0
REM seed -1793216266 -673812313 -1801223648 -404846419 391434054 -1695127359 766981521 -1837646326 -1479221363 1499968558 188322578 -1107307803 1303351254 2135845566 -816861948 460112842 265362580 -1765963722 -373482387 1629511991 -1424428469 1332638400 -1773486956 1431889847 -1082637394 1752142897 368891310 1926168286 1763453385 -124836737 -884671221 1711311385 1240307350
REM
CELL 1.54180   50.00000   50.00000   50.00000   90.00000   90.00000   90.00000
LATT -1
SFAC C  
C      1  0.5509290000000  0.5011310000000  0.5857680000000 1.0
C      1  0.4243630000000  0.5537700000000  0.5155900000000 1.0
C      1  0.4914160000000  0.4904730000000  0.4151830000000 1.0
C      1  0.5347350000000  0.4862250000000  0.5472770000000 1.0
C      1  0.5471590000000  0.4700960000000  0.4410930000000 1.0
C      1  0.5330380000000  0.4389160000000  0.5506260000000 1.0
C      1  0.4845580000000  0.4310810000000  0.4449380000000 1.0
C      1  0.5268970000000  0.5760310000000  0.4640390000000 1.0
C      1  0.4353960000000  0.5157270000000  0.5529290000000 1.0
C      1  0.5382580000000  0.4256410000000  0.5015680000000 1.0
C      1  0.5237360000000  0.5420940000000  0.5079590000000 1.0
C      1  0.5477060000000  0.4796320000000  0.4911080000000 1.0
C      1  0.4509200000000  0.5397560000000  0.5553140000000 1.0
C      1  0.5893800000000  0.4652510000000  0.5003190000000 1.0
C      1  0.5206950000000  0.4751190000000  0.4526020000000 1.0
C      1  0.4574240000000  0.5790950000000  0.4560380000000 1.0
C      1  0.4466390000000  0.5388730000000  0.4359800000000 1.0
C      1  0.4700090000000  0.4127640000000  0.4853370000000 1.0
C      1  0.4301300000000  0.5417840000000  0.4605820000000 1.0
C      1  0.5225190000000  0.5023840000000  0.5939200000000 1.0
C      1  0.5710470000000  0.5312830000000  0.5214720000000 1.0
C      1  0.4735500000000  0.5075240000000  0.5805140000000 1.0
C      1  0.5774650000000  0.4588380000000  0.5263390000000 1.0
C      1  0.5787000000000  0.5099980000000  0.4499080000000 1.0
C      1  0.5367240000000  0.5393910000000  0.4313830000000 1.0
C      1  0.4844910000000  0.5175190000000  0.4107350000000 1.0
C      1  0.4975610000000  0.4909800000000  0.4462890000000 1.0
C      1  0.5029370000000  0.5809400000000  0.4507230000000 1.0
C      1  0.5120600000000  0.4687540000000  0.5064580000000 1.0
C      1  0.4370350000000  0.5737270000000  0.4990530000000 1.0
C      1  0.5600930000000  0.4872130000000  0.5625840000000 1.0
C      1  0.5884770000000  0.5130160000000  0.4773430000000 1.0
C      1  0.4681650000000  0.5143210000000  0.5067090000000 1.0
C      1  0.4768180000000  0.4130020000000  0.5337280000000 1.0
C      1  0.4615370000000  0.4287780000000  0.4628100000000 1.0
C      1  0.5441000000000  0.5074690000000  0.4850390000000 1.0
C      1  0.5042730000000  0.4056630000000  0.5305610000000 1.0
C      1  0.4639670000000  0.5620810000000  0.4343880000000 1.0
C      1  0.5054490000000  0.5371090000000  0.4255360000000 1.0
C      1  0.4623840000000  0.4666460000000  0.5127100000000 1.0
C      1  0.4981400000000  0.5265670000000  0.5467780000000 1.0
C      1  0.5234720000000  0.4645680000000  0.4793530000000 1.0
C      1  0.4965750000000  0.4920370000000  0.5880370000000 1.0
C      1  0.5098200000000  0.5847000000000  0.5319780000000 1.0
C      1  0.5574570000000  0.5198250000000  0.4328700000000 1.0
C      1  0.4986210000000  0.4145630000000  0.5748100000000 1.0
C      1  0.4981730000000  0.5294950000000  0.4756180000000 1.0
C      1  0.5480890000000  0.5665050000000  0.5390310000000 1.0
C      1  0.4432730000000  0.5598680000000  0.5377600000000 1.0
C      1  0.4445960000000  0.4788060000000  0.4549340000000 1.0
C      1  0.5448820000000  0.5570620000000  0.4524600000000 1.0
C      1  0.4168210000000  0.5285890000000  0.5069830000000 1.0
C      1  0.4565730000000  0.5798130000000  0.5207290000000 1.0
C      1  0.5571330000000  0.4486900000000  0.4581370000000 1.0
C      1  0.4733100000000  0.4826970000000  0.4656470000000 1.0
C      1  0.4735250000000  0.4868200000000  0.4944650000000 1.0
C      1  0.5413790000000  0.5360520000000  0.5311180000000 1.0
C      1  0.5700700000000  0.4619360000000  0.4797840000000 1.0
C      1  0.5744290000000  0.5574280000000  0.5366080000000 1.0
C      1  0.4365590000000  0.5679320000000  0.4714310000000 1.0
C      1  0.4765100000000  0.4255910000000  0.5608710000000 1.0
C      1  0.5799240000000  0.4827430000000  0.5429480000000 1.0
C      1  0.4273810000000  0.4495670000000  0.4882830000000 1.0
C      1  0.5178070000000  0.4154940000000  0.5545860000000 1.0
C      1  0.4200360000000  0.4832980000000  0.5211300000000 1.0
C      1  0.5576370000000  0.5536450000000  0.4784170000000 1.0
C      1  0.4867630000000  0.5956440000000  0.4925060000000 1.0
C      1  0.5214970000000  0.4628920000000  0.5611560000000 1.0
C      1  0.4402750000000  0.4485220000000  0.4633600000000 1.0
C      1  0.4726100000000  0.4529910000000  0.5679770000000 1.0
C      1  0.4755780000000  0.5346610000000  0.4895700000000 1.0
C      1  0.5222170000000  0.5718270000000  0.5531180000000 1.0
C      1  0.5862750000000  0.5046400000000  0.5245810000000 1.0
C      1  0.4788690000000  0.4465630000000  0.4233270000000 1.0
C      1  0.5384920000000  0.4718610000000  0.5196360000000 1.0
C      1  0.4197850000000  0.5212600000000  0.4782180000000 1.0
C      1  0.4995260000000  0.5196760000000  0.4501080000000 1.0
C      1  0.5084890000000  0.4222640000000  0.4613360000000 1.0
C      1  0.4571260000000  0.5158850000000  0.4220910000000 1.0
C      1  0.5161350000000  0.4082610000000  0.5055720000000 1.0
C      1  0.4970460000000  0.4662570000000  0.5757300000000 1.0
C      1  0.5346830000000  0.5668930000000  0.4927280000000 1.0
C      1  0.4496780000000  0.4958460000000  0.5685630000000 1.0
C      1  0.4507010000000  0.4691060000000  0.5594120000000 1.0
C      1  0.4443650000000  0.4425050000000  0.5102500000000 1.0
C      1  0.5336690000000  0.4367800000000  0.4732010000000 1.0
C      1  0.4870580000000  0.5096220000000  0.5278910000000 1.0
C      1  0.4166290000000  0.4756040000000  0.4936870000000 1.0
C      1  0.4770290000000  0.5319630000000  0.5664030000000 1.0
C      1  0.4410430000000  0.4672420000000  0.5323010000000 1.0
C      1  0.5489730000000  0.4438880000000  0.5252560000000 1.0
C      1  0.5947380000000  0.4941280000000  0.4992660000000 1.0
C      1  0.4711680000000  0.4710010000000  0.4148630000000 1.0
C      1  0.4227390000000  0.4933440000000  0.4726190000000 1.0
C      1  0.5681740000000  0.5298310000000  0.4901730000000 1.0
C      1  0.4601660000000  0.4185460000000  0.5113520000000 1.0
C      1  0.5633120000000  0.4921700000000  0.4340350000000 1.0
C      1  0.5348470000000  0.5829300000000  0.5174990000000 1.0
C      1  0.5016870000000  0.4947320000000  0.5074860000000 1.0
C      1  0.5262810000000  0.5185580000000  0.5501780000000 1.0
C      1  0.4499490000000  0.4879570000000  0.4266900000000 1.0
C      1  0.4982220000000  0.4076010000000  0.4828620000000 1.0
C      1  0.4840220000000  0.5898070000000  0.5189940000000 1.0
C      1  0.4196140000000  0.5099780000000  0.5289300000000 1.0
C      1  0.4812140000000  0.5904110000000  0.4670250000000 1.0
C      1  0.4925890000000  0.5630080000000  0.4304920000000 1.0
C      1  0.5336410000000  0.5223580000000  0.5789250000000 1.0
C      1  0.5181970000000  0.5166010000000  0.4934140000000 1.0
END
