TITL C-22848-8365-8 -0.134742480088914 125000 -914.840874512364 0 0 132 (C1) n - 1
REM
REM in /rds/project/t2_vol4/rds-t2-cs072/BORA/CARBON/from-Arr/AIRSS/Generating-Clusters/GAP-ML-2020/Only-C1/SD-CG/HFTN-CG
REM
REM
REM
REM
REM
REM ./C.cell (11c1c37f851c82e70ff6c80c92926a4b)
REM AIRSS Version 0.9.1 bugfix July 2018 build 013d7b7c2542+ Fri, 06 Jul 2018 19:26:36 +0100
REM compiler GCC version 9.3.0
REM options -cpp -mtune=generic -march=x86-64 -g -O0
REM seed -1153511559 966336344 460949899 -870912998 1754741865 -626402358 1718920554 172669685 -1636084029 -165717708 2035660482 -1526076226 429365401 1535580842 1608043692 -1592192611 1964080599 115154352 -1684997079 1949997898 1792422728 -1270538549 -735015667 -1157458323 333901429 -1858615608 1420523137 1170019658 -760716436 812693686 528830249 -1356059938 -962426162
REM
CELL 1.54180   50.00000   50.00000   50.00000   90.00000   90.00000   90.00000
LATT -1
SFAC C  
C      1  0.4478450000000  0.4529210000000  0.4303080000000 1.0
C      1  0.4592310000000  0.5509790000000  0.4259940000000 1.0
C      1  0.4365470000000  0.5290180000000  0.5496640000000 1.0
C      1  0.5368080000000  0.5659750000000  0.5636740000000 1.0
C      1  0.5780490000000  0.5064460000000  0.5330910000000 1.0
C      1  0.5253970000000  0.5572530000000  0.5056260000000 1.0
C      1  0.5771050000000  0.4405960000000  0.5212690000000 1.0
C      1  0.4968480000000  0.5626400000000  0.4989650000000 1.0
C      1  0.5232670000000  0.4897000000000  0.5445430000000 1.0
C      1  0.4494760000000  0.5254730000000  0.5756810000000 1.0
C      1  0.4714980000000  0.4216940000000  0.5563000000000 1.0
C      1  0.4382830000000  0.4383130000000  0.4528770000000 1.0
C      1  0.4380320000000  0.5225380000000  0.4797530000000 1.0
C      1  0.4472620000000  0.4182480000000  0.4934740000000 1.0
C      1  0.4304270000000  0.4407600000000  0.5019380000000 1.0
C      1  0.5127850000000  0.4846910000000  0.5019730000000 1.0
C      1  0.4721750000000  0.5848140000000  0.4614230000000 1.0
C      1  0.4017920000000  0.5191520000000  0.5054740000000 1.0
C      1  0.4825460000000  0.4089070000000  0.5341140000000 1.0
C      1  0.5170510000000  0.4383970000000  0.5707330000000 1.0
C      1  0.4925800000000  0.4783680000000  0.5418300000000 1.0
C      1  0.4824250000000  0.4461670000000  0.4730530000000 1.0
C      1  0.4302350000000  0.4798340000000  0.5395140000000 1.0
C      1  0.4863120000000  0.5834740000000  0.5206230000000 1.0
C      1  0.4618590000000  0.4859920000000  0.4544320000000 1.0
C      1  0.5362910000000  0.5823840000000  0.5198710000000 1.0
C      1  0.4694510000000  0.4791240000000  0.4994480000000 1.0
C      1  0.5194060000000  0.5301110000000  0.5953080000000 1.0
C      1  0.4473020000000  0.4976790000000  0.5838690000000 1.0
C      1  0.5112160000000  0.5784830000000  0.5603750000000 1.0
C      1  0.5711650000000  0.4979930000000  0.4828490000000 1.0
C      1  0.5092530000000  0.5024770000000  0.4387400000000 1.0
C      1  0.5305190000000  0.5409380000000  0.4143570000000 1.0
C      1  0.5697780000000  0.5270760000000  0.4441090000000 1.0
C      1  0.5875510000000  0.4865890000000  0.4597810000000 1.0
C      1  0.5366740000000  0.5382090000000  0.4852600000000 1.0
C      1  0.5777960000000  0.5712630000000  0.5036720000000 1.0
C      1  0.5535350000000  0.5748940000000  0.5428910000000 1.0
C      1  0.4898280000000  0.4653130000000  0.5162950000000 1.0
C      1  0.4260150000000  0.5499350000000  0.4840060000000 1.0
C      1  0.4924630000000  0.5234480000000  0.5988200000000 1.0
C      1  0.5073270000000  0.5217370000000  0.4146580000000 1.0
C      1  0.4294470000000  0.4561790000000  0.4765120000000 1.0
C      1  0.4530030000000  0.5686110000000  0.4465090000000 1.0
C      1  0.5022800000000  0.5379390000000  0.5529790000000 1.0
C      1  0.4582840000000  0.5901270000000  0.5099000000000 1.0
C      1  0.4808780000000  0.5350820000000  0.5039910000000 1.0
C      1  0.4451250000000  0.5744990000000  0.5314420000000 1.0
C      1  0.4131470000000  0.5055350000000  0.4838220000000 1.0
C      1  0.4738880000000  0.5391440000000  0.5836080000000 1.0
C      1  0.4125280000000  0.4805720000000  0.4692420000000 1.0
C      1  0.4467740000000  0.5063600000000  0.5320790000000 1.0
C      1  0.4699330000000  0.4157470000000  0.5092970000000 1.0
C      1  0.5643330000000  0.4714740000000  0.4293310000000 1.0
C      1  0.5044740000000  0.5502760000000  0.4494930000000 1.0
C      1  0.4268090000000  0.5518910000000  0.5340020000000 1.0
C      1  0.4601110000000  0.5231620000000  0.4305300000000 1.0
C      1  0.4679500000000  0.4540190000000  0.5885250000000 1.0
C      1  0.4702740000000  0.5738220000000  0.5448720000000 1.0
C      1  0.4120490000000  0.5445080000000  0.5094690000000 1.0
C      1  0.4402420000000  0.4809270000000  0.4316280000000 1.0
C      1  0.5752490000000  0.4990730000000  0.4370720000000 1.0
C      1  0.5471520000000  0.4421490000000  0.5264610000000 1.0
C      1  0.4683530000000  0.4818080000000  0.5974960000000 1.0
C      1  0.5049770000000  0.4607850000000  0.4599560000000 1.0
C      1  0.5305190000000  0.4210150000000  0.4552550000000 1.0
C      1  0.5805760000000  0.4597960000000  0.4506350000000 1.0
C      1  0.4875180000000  0.4349380000000  0.5763540000000 1.0
C      1  0.4606470000000  0.5152290000000  0.4604280000000 1.0
C      1  0.5296730000000  0.5613960000000  0.4360030000000 1.0
C      1  0.5141320000000  0.5284120000000  0.4681670000000 1.0
C      1  0.5912050000000  0.4636770000000  0.5129530000000 1.0
C      1  0.4795140000000  0.4816700000000  0.4098140000000 1.0
C      1  0.5039080000000  0.4945640000000  0.3988590000000 1.0
C      1  0.5811000000000  0.5442820000000  0.4951080000000 1.0
C      1  0.5107030000000  0.4116780000000  0.5284510000000 1.0
C      1  0.4897530000000  0.4949570000000  0.4885040000000 1.0
C      1  0.5666120000000  0.4961990000000  0.5581670000000 1.0
C      1  0.4527510000000  0.5235940000000  0.5060430000000 1.0
C      1  0.4565820000000  0.4985630000000  0.4148730000000 1.0
C      1  0.5891400000000  0.4421990000000  0.4957400000000 1.0
C      1  0.5559510000000  0.5900000000000  0.4969470000000 1.0
C      1  0.4917690000000  0.4334970000000  0.4299090000000 1.0
C      1  0.4886300000000  0.4376380000000  0.5006800000000 1.0
C      1  0.5388670000000  0.5298460000000  0.5131220000000 1.0
C      1  0.4455780000000  0.4367620000000  0.5513040000000 1.0
C      1  0.5275460000000  0.4268020000000  0.5453940000000 1.0
C      1  0.4981400000000  0.5733650000000  0.4680280000000 1.0
C      1  0.5341240000000  0.5057230000000  0.5945960000000 1.0
C      1  0.4862630000000  0.5207980000000  0.4786480000000 1.0
C      1  0.5204510000000  0.5074910000000  0.5212380000000 1.0
C      1  0.4544760000000  0.4182480000000  0.4647640000000 1.0
C      1  0.4893160000000  0.4815580000000  0.4429730000000 1.0
C      1  0.4536440000000  0.5903970000000  0.4827980000000 1.0
C      1  0.5107390000000  0.5906770000000  0.5347440000000 1.0
C      1  0.4829290000000  0.4204770000000  0.4561930000000 1.0
C      1  0.5259890000000  0.5843720000000  0.4564740000000 1.0
C      1  0.5439010000000  0.4672590000000  0.5416010000000 1.0
C      1  0.5533670000000  0.5446190000000  0.4286560000000 1.0
C      1  0.5193710000000  0.4423470000000  0.4375620000000 1.0
C      1  0.4438180000000  0.4531710000000  0.5738410000000 1.0
C      1  0.5454620000000  0.5951600000000  0.4718170000000 1.0
C      1  0.5233000000000  0.4755420000000  0.4016980000000 1.0
C      1  0.5746410000000  0.5613180000000  0.5313940000000 1.0
C      1  0.4148440000000  0.4845030000000  0.4420420000000 1.0
C      1  0.5697740000000  0.5329410000000  0.5223910000000 1.0
C      1  0.5378020000000  0.4611560000000  0.4197350000000 1.0
C      1  0.5132500000000  0.4211060000000  0.4991010000000 1.0
C      1  0.4322650000000  0.4513960000000  0.5291510000000 1.0
C      1  0.5289520000000  0.5062330000000  0.4572430000000 1.0
C      1  0.5321480000000  0.4608630000000  0.5824020000000 1.0
C      1  0.5832830000000  0.4906600000000  0.5098650000000 1.0
C      1  0.4858830000000  0.5596810000000  0.5644720000000 1.0
C      1  0.4328590000000  0.4786710000000  0.5680330000000 1.0
C      1  0.4740650000000  0.4532250000000  0.4196000000000 1.0
C      1  0.4346510000000  0.5723470000000  0.4693980000000 1.0
C      1  0.5269080000000  0.4672260000000  0.4835380000000 1.0
C      1  0.5433010000000  0.4881950000000  0.4744940000000 1.0
C      1  0.5369310000000  0.4391760000000  0.4969180000000 1.0
C      1  0.5519770000000  0.4276040000000  0.4730230000000 1.0
C      1  0.5423850000000  0.5093780000000  0.5666900000000 1.0
C      1  0.5563000000000  0.4686530000000  0.5668900000000 1.0
C      1  0.4761060000000  0.5016190000000  0.5398150000000 1.0
C      1  0.5285500000000  0.5379400000000  0.5679450000000 1.0
C      1  0.5669730000000  0.5288960000000  0.4749440000000 1.0
C      1  0.5198470000000  0.4819500000000  0.5995990000000 1.0
C      1  0.4944890000000  0.5224660000000  0.5292030000000 1.0
C      1  0.4925700000000  0.4944720000000  0.6033790000000 1.0
C      1  0.4868500000000  0.5404070000000  0.4261320000000 1.0
C      1  0.5088420000000  0.4113910000000  0.4698540000000 1.0
C      1  0.5775150000000  0.4387760000000  0.4697270000000 1.0
C      1  0.4594140000000  0.4661430000000  0.4758320000000 1.0
END
