TITL C-221373-4556-1 -355.573736753255 125000 -352.345112790767 0 0 52 (C1) n - 1
REM
REM in /rds/project/t2_vol4/rds-t2-cs072/BORA/CARBON/from-Arr/AIRSS/Generating-Clusters/GAP-ML-2020/Only-C1/SD-CG/HFTN-CG
REM
REM
REM
REM
REM
REM ./C.cell (11c1c37f851c82e70ff6c80c92926a4b)
REM AIRSS Version 0.9.1 bugfix July 2018 build 013d7b7c2542+ Fri, 06 Jul 2018 19:26:36 +0100
REM compiler GCC version 9.3.0
REM options -cpp -mtune=generic -march=x86-64 -g -O0
REM seed -2046694546 372659220 1798174091 -1439170580 -299108348 981701822 -18707943 658398126 -1979157803 -427580808 1226650218 -1650191720 -715032051 1756790869 -1317969028 -675624059 1863281338 -1057263354 888124684 -559655417 1705483868 -1736822948 134405034 -837163543 1614388970 566294960 1114658447 1957212478 851393490 2037732852 -306436002 929987564 413123927
REM
CELL 1.54180   50.00000   50.00000   50.00000   90.00000   90.00000   90.00000
LATT -1
SFAC C  
C      1  0.5638650000000  0.5024900000000  0.4602830000000 1.0
C      1  0.4631850000000  0.4702870000000  0.4807330000000 1.0
C      1  0.4946260000000  0.5462720000000  0.5245230000000 1.0
C      1  0.4800270000000  0.5525480000000  0.4611210000000 1.0
C      1  0.5069850000000  0.4726220000000  0.5359860000000 1.0
C      1  0.4946440000000  0.4383290000000  0.4941230000000 1.0
C      1  0.4749280000000  0.4880030000000  0.5677380000000 1.0
C      1  0.4527680000000  0.5461500000000  0.4997100000000 1.0
C      1  0.5497480000000  0.5151480000000  0.5415220000000 1.0
C      1  0.5063550000000  0.4957760000000  0.4795430000000 1.0
C      1  0.4821170000000  0.4662870000000  0.5489370000000 1.0
C      1  0.5570220000000  0.4769270000000  0.4560060000000 1.0
C      1  0.4370860000000  0.5313120000000  0.5170090000000 1.0
C      1  0.5312110000000  0.4737780000000  0.4426530000000 1.0
C      1  0.5232870000000  0.5501910000000  0.5154680000000 1.0
C      1  0.5212390000000  0.5571250000000  0.4873390000000 1.0
C      1  0.4928510000000  0.5337830000000  0.4436200000000 1.0
C      1  0.4864360000000  0.4842180000000  0.4377560000000 1.0
C      1  0.4938930000000  0.5640860000000  0.4829600000000 1.0
C      1  0.4643400000000  0.5107040000000  0.5533830000000 1.0
C      1  0.4586050000000  0.5120680000000  0.5101680000000 1.0
C      1  0.4758340000000  0.5097160000000  0.4424890000000 1.0
C      1  0.4626860000000  0.4571280000000  0.5305460000000 1.0
C      1  0.5601670000000  0.4985180000000  0.5191760000000 1.0
C      1  0.5209470000000  0.4356900000000  0.5070300000000 1.0
C      1  0.4391980000000  0.5099460000000  0.5386110000000 1.0
C      1  0.5573820000000  0.5251370000000  0.4745470000000 1.0
C      1  0.4561500000000  0.5408220000000  0.4714890000000 1.0
C      1  0.5476230000000  0.5380090000000  0.5225890000000 1.0
C      1  0.4990740000000  0.4492580000000  0.4675660000000 1.0
C      1  0.5278110000000  0.4581080000000  0.5245810000000 1.0
C      1  0.4774750000000  0.4641640000000  0.4567580000000 1.0
C      1  0.5611420000000  0.5226420000000  0.5021770000000 1.0
C      1  0.5062330000000  0.5012080000000  0.5284860000000 1.0
C      1  0.4825380000000  0.5183190000000  0.5305760000000 1.0
C      1  0.5119260000000  0.5044260000000  0.5748390000000 1.0
C      1  0.5348210000000  0.5424090000000  0.4666100000000 1.0
C      1  0.4926850000000  0.4948530000000  0.5888340000000 1.0
C      1  0.4561730000000  0.5138150000000  0.4627800000000 1.0
C      1  0.4349540000000  0.4609540000000  0.5381440000000 1.0
C      1  0.5420260000000  0.4340020000000  0.4882310000000 1.0
C      1  0.5123900000000  0.4820130000000  0.4259730000000 1.0
C      1  0.5475070000000  0.4624590000000  0.4830940000000 1.0
C      1  0.4257560000000  0.4848750000000  0.5405070000000 1.0
C      1  0.4721220000000  0.4532940000000  0.5030060000000 1.0
C      1  0.4536450000000  0.4962490000000  0.4846700000000 1.0
C      1  0.5197790000000  0.5326780000000  0.4453610000000 1.0
C      1  0.4780110000000  0.5602540000000  0.5066560000000 1.0
C      1  0.5497670000000  0.4739310000000  0.5114100000000 1.0
C      1  0.5147460000000  0.5080260000000  0.5006350000000 1.0
C      1  0.5246280000000  0.5086850000000  0.5511800000000 1.0
C      1  0.5195850000000  0.4703050000000  0.4708680000000 1.0
END
