TITL C-221361-4415-4 78.7025406721048 125000 -153.39834617631 0 0 24 (C1) n - 1
REM
REM in /rds/project/t2_vol4/rds-t2-cs072/BORA/CARBON/from-Arr/AIRSS/Generating-Clusters/GAP-ML-2020/Only-C1/SD-CG/HFTN-CG
REM
REM
REM
REM
REM
REM ./C.cell (11c1c37f851c82e70ff6c80c92926a4b)
REM AIRSS Version 0.9.1 bugfix July 2018 build 013d7b7c2542+ Fri, 06 Jul 2018 19:26:36 +0100
REM compiler GCC version 9.3.0
REM options -cpp -mtune=generic -march=x86-64 -g -O0
REM seed 1357901705 1997058158 -1121734038 -407543424 662315434 1297534227 1359950739 -1014486679 1754285926 -1843144856 -1191759496 -1735239919 1288489485 410243972 369461861 -1914952081 1550487687 -1439711556 -965523967 666774777 1416302843 1679711182 665935051 1378884799 -383676397 1614167718 -1403349579 2085296614 -2056537362 -790676092 547866850 -1428594114 539596616
REM
CELL 1.54180   50.00000   50.00000   50.00000   90.00000   90.00000   90.00000
LATT -1
SFAC C  
C      1  0.5113990000000  0.5006960000000  0.4639090000000 1.0
C      1  0.5555450000000  0.4745060000000  0.4970900000000 1.0
C      1  0.5018470000000  0.4857230000000  0.5466590000000 1.0
C      1  0.5536520000000  0.4757330000000  0.4711920000000 1.0
C      1  0.5006380000000  0.4541590000000  0.4957630000000 1.0
C      1  0.5531690000000  0.5289330000000  0.4698640000000 1.0
C      1  0.5099000000000  0.5412980000000  0.4951070000000 1.0
C      1  0.4579280000000  0.5112950000000  0.5341510000000 1.0
C      1  0.4771270000000  0.4754420000000  0.5361560000000 1.0
C      1  0.4679680000000  0.5330740000000  0.5214470000000 1.0
C      1  0.5269700000000  0.5276700000000  0.4769880000000 1.0
C      1  0.5257770000000  0.4760280000000  0.4643570000000 1.0
C      1  0.4973550000000  0.5308940000000  0.5171480000000 1.0
C      1  0.4802630000000  0.4699070000000  0.5069230000000 1.0
C      1  0.4536100000000  0.4882340000000  0.5448360000000 1.0
C      1  0.4574920000000  0.5381800000000  0.4786570000000 1.0
C      1  0.5482460000000  0.4751160000000  0.5217350000000 1.0
C      1  0.5131530000000  0.4515210000000  0.4734900000000 1.0
C      1  0.4525290000000  0.5472080000000  0.5021500000000 1.0
C      1  0.4731220000000  0.4909480000000  0.4910750000000 1.0
C      1  0.5264100000000  0.4874650000000  0.5326230000000 1.0
C      1  0.4649540000000  0.5238260000000  0.4580190000000 1.0
C      1  0.4822230000000  0.5025070000000  0.4680060000000 1.0
C      1  0.5087210000000  0.5096370000000  0.5326520000000 1.0
END
