TITL C-22841-2147-5 -71.2719620284125 125000 -416.432638590773 0 0 61 (C1) n - 1
REM
REM in /rds/project/t2_vol4/rds-t2-cs072/BORA/CARBON/from-Arr/AIRSS/Generating-Clusters/GAP-ML-2020/Only-C1/SD-CG/HFTN-CG
REM
REM
REM
REM
REM
REM ./C.cell (11c1c37f851c82e70ff6c80c92926a4b)
REM AIRSS Version 0.9.1 bugfix July 2018 build 013d7b7c2542+ Fri, 06 Jul 2018 19:26:36 +0100
REM compiler GCC version 9.3.0
REM options -cpp -mtune=generic -march=x86-64 -g -O0
REM seed -1314010901 2013720012 -1590459691 1099967833 1955730262 1717249909 -429369131 -412445536 -1922322043 -934049785 -908627621 -1367808975 1040974804 -290405434 -1620360797 486627247 -1527761974 1008606110 -864800714 1956150706 -1526198968 -2076507602 2058707547 -1389180441 507656478 261360460 813092958 1363075992 -836558182 -1827605180 2117221146 2082216204 69423604
REM
CELL 1.54180   50.00000   50.00000   50.00000   90.00000   90.00000   90.00000
LATT -1
SFAC C  
C      1  0.4940430000000  0.4702320000000  0.4267290000000 1.0
C      1  0.5515890000000  0.4445430000000  0.4851930000000 1.0
C      1  0.4506780000000  0.5023150000000  0.4718070000000 1.0
C      1  0.4503580000000  0.5280700000000  0.4857490000000 1.0
C      1  0.4232110000000  0.4705130000000  0.5331770000000 1.0
C      1  0.4884480000000  0.5147310000000  0.4371620000000 1.0
C      1  0.4701700000000  0.4575630000000  0.5487440000000 1.0
C      1  0.5674740000000  0.4858260000000  0.5031410000000 1.0
C      1  0.5566710000000  0.5119620000000  0.5127040000000 1.0
C      1  0.4470940000000  0.4789230000000  0.4880710000000 1.0
C      1  0.4945810000000  0.5512770000000  0.4701570000000 1.0
C      1  0.4724260000000  0.5433020000000  0.5382790000000 1.0
C      1  0.5319690000000  0.5299390000000  0.4455660000000 1.0
C      1  0.4762080000000  0.5393890000000  0.4892720000000 1.0
C      1  0.5668580000000  0.4960020000000  0.4750000000000 1.0
C      1  0.5275070000000  0.5092870000000  0.5048750000000 1.0
C      1  0.5119740000000  0.4754160000000  0.5570360000000 1.0
C      1  0.5143020000000  0.4420500000000  0.4608100000000 1.0
C      1  0.5347250000000  0.5492090000000  0.5320150000000 1.0
C      1  0.5398450000000  0.4561830000000  0.4626620000000 1.0
C      1  0.5007750000000  0.4816370000000  0.4835200000000 1.0
C      1  0.5067370000000  0.4871460000000  0.5112790000000 1.0
C      1  0.4905320000000  0.5047470000000  0.5258460000000 1.0
C      1  0.5257100000000  0.5524840000000  0.4861110000000 1.0
C      1  0.5202290000000  0.4998520000000  0.4768400000000 1.0
C      1  0.4910490000000  0.5856920000000  0.5304610000000 1.0
C      1  0.5266180000000  0.5245570000000  0.5586120000000 1.0
C      1  0.4815400000000  0.4968820000000  0.5711880000000 1.0
C      1  0.4649440000000  0.5005470000000  0.4471350000000 1.0
C      1  0.5137320000000  0.4623600000000  0.5310430000000 1.0
C      1  0.5081610000000  0.5740540000000  0.4826090000000 1.0
C      1  0.5594860000000  0.4605080000000  0.5082470000000 1.0
C      1  0.4558430000000  0.5010110000000  0.5590000000000 1.0
C      1  0.5183210000000  0.5373040000000  0.5098280000000 1.0
C      1  0.4292140000000  0.5360820000000  0.5018900000000 1.0
C      1  0.4351390000000  0.4867690000000  0.5134340000000 1.0
C      1  0.4902510000000  0.5624910000000  0.5476820000000 1.0
C      1  0.5306110000000  0.4307420000000  0.5005210000000 1.0
C      1  0.5454640000000  0.4849610000000  0.4584400000000 1.0
C      1  0.5617700000000  0.5229830000000  0.4841850000000 1.0
C      1  0.5340120000000  0.5023000000000  0.4375030000000 1.0
C      1  0.5062920000000  0.4323840000000  0.4868240000000 1.0
C      1  0.5032030000000  0.5369340000000  0.4468060000000 1.0
C      1  0.5169230000000  0.5521170000000  0.5544400000000 1.0
C      1  0.4620750000000  0.4541820000000  0.4821030000000 1.0
C      1  0.4377330000000  0.5167720000000  0.5192610000000 1.0
C      1  0.4667600000000  0.4744450000000  0.4375710000000 1.0
C      1  0.4679090000000  0.4520070000000  0.4547840000000 1.0
C      1  0.5500780000000  0.5257300000000  0.5390940000000 1.0
C      1  0.5075690000000  0.4947960000000  0.4283030000000 1.0
C      1  0.4881780000000  0.5327170000000  0.5148520000000 1.0
C      1  0.4858750000000  0.4481380000000  0.5266690000000 1.0
C      1  0.4876510000000  0.4690320000000  0.5694040000000 1.0
C      1  0.4467080000000  0.4752510000000  0.5474200000000 1.0
C      1  0.4985680000000  0.5801980000000  0.5071620000000 1.0
C      1  0.4516250000000  0.5243720000000  0.5432680000000 1.0
C      1  0.5368640000000  0.4476630000000  0.5225030000000 1.0
C      1  0.4814910000000  0.4404800000000  0.4995210000000 1.0
C      1  0.5053230000000  0.5054070000000  0.5543980000000 1.0
C      1  0.5447150000000  0.5393870000000  0.4690910000000 1.0
C      1  0.4941930000000  0.4461490000000  0.4430020000000 1.0
END
