TITL C-22819-2187-8 6.58913203062997 125000 -66.0933305337833 0 0 11 (C1) n - 1
REM
REM in /rds/project/t2_vol4/rds-t2-cs072/BORA/CARBON/from-Arr/AIRSS/Generating-Clusters/GAP-ML-2020/Only-C1/SD-CG/HFTN-CG
REM
REM
REM
REM
REM
REM ./C.cell (11c1c37f851c82e70ff6c80c92926a4b)
REM AIRSS Version 0.9.1 bugfix July 2018 build 013d7b7c2542+ Fri, 06 Jul 2018 19:26:36 +0100
REM compiler GCC version 9.3.0
REM options -cpp -mtune=generic -march=x86-64 -g -O0
REM seed 1556285007 580007001 1306369677 1678272771 644339843 1321816159 1753278336 1110044347 248761015 777326458 -765804393 1373720286 1660845232 1434918326 -612678243 1184420045 -508879076 -1743004598 -1839000729 122478347 1729986299 1163709999 -1212969761 -1173441898 -858325001 2041637779 339377927 -1746127568 -2080146085 1298644038 700264323 -1174342414 -418324958
REM
CELL 1.54180   50.00000   50.00000   50.00000   90.00000   90.00000   90.00000
LATT -1
SFAC C  
C      1  0.4721140000000  0.4614210000000  0.5010530000000 1.0
C      1  0.4929800000000  0.4948470000000  0.4654780000000 1.0
C      1  0.5003510000000  0.5482190000000  0.5224510000000 1.0
C      1  0.4793360000000  0.4767080000000  0.4822900000000 1.0
C      1  0.4929480000000  0.5215280000000  0.4777460000000 1.0
C      1  0.5213000000000  0.4596780000000  0.5147780000000 1.0
C      1  0.5097290000000  0.5088580000000  0.5244820000000 1.0
C      1  0.5059120000000  0.4882800000000  0.4426230000000 1.0
C      1  0.5175330000000  0.4831610000000  0.5242090000000 1.0
C      1  0.5087840000000  0.5316830000000  0.5413100000000 1.0
C      1  0.4990130000000  0.5256160000000  0.5035800000000 1.0
END
