TITL C-23836-9527-6 -43.5485055909556 125000 -830.317118827522 0 0 118 (C1) n - 1
REM
REM in /rds/project/t2_vol4/rds-t2-cs072/BORA/CARBON/from-Arr/AIRSS/Generating-Clusters/GAP-ML-2020/Only-C1/SD-CG/HFTN-CG
REM
REM
REM
REM
REM
REM ./C.cell (11c1c37f851c82e70ff6c80c92926a4b)
REM AIRSS Version 0.9.1 bugfix July 2018 build 013d7b7c2542+ Fri, 06 Jul 2018 19:26:36 +0100
REM compiler GCC version 9.3.0
REM options -cpp -mtune=generic -march=x86-64 -g -O0
REM seed -1631063065 -350628651 1206638463 -323902010 1713388419 -1338613320 110293072 -2084498185 -293868912 1380425702 1445794864 -1714322312 -1278221578 -1648556901 -736876287 -1301141898 2008222931 -508206108 1874857752 1897708835 -1313908846 525197493 -1739334884 -1062990601 -746775064 184230116 1711911360 -73366597 2033734003 -2144895009 -1140871819 2084554612 -1907943879
REM
CELL 1.54180   50.00000   50.00000   50.00000   90.00000   90.00000   90.00000
LATT -1
SFAC C  
C      1  0.5415460000000  0.5746280000000  0.5091080000000 1.0
C      1  0.4588170000000  0.4641730000000  0.5270460000000 1.0
C      1  0.5051610000000  0.4472370000000  0.5736970000000 1.0
C      1  0.5179670000000  0.4488810000000  0.5169750000000 1.0
C      1  0.5364650000000  0.4775390000000  0.4314290000000 1.0
C      1  0.5581310000000  0.4297650000000  0.5013590000000 1.0
C      1  0.5254810000000  0.4589330000000  0.4883850000000 1.0
C      1  0.5709780000000  0.4833950000000  0.5788260000000 1.0
C      1  0.4760740000000  0.4598970000000  0.4778840000000 1.0
C      1  0.5768100000000  0.4781060000000  0.4870600000000 1.0
C      1  0.5326590000000  0.5872350000000  0.4845530000000 1.0
C      1  0.4602830000000  0.5064080000000  0.4834630000000 1.0
C      1  0.5153700000000  0.5208270000000  0.4263430000000 1.0
C      1  0.4466690000000  0.5392030000000  0.5628250000000 1.0
C      1  0.5584900000000  0.4404620000000  0.4560220000000 1.0
C      1  0.4153190000000  0.4525760000000  0.4756370000000 1.0
C      1  0.4505400000000  0.5774410000000  0.5390620000000 1.0
C      1  0.5251970000000  0.4665830000000  0.5807760000000 1.0
C      1  0.4717120000000  0.4270210000000  0.5537510000000 1.0
C      1  0.5054180000000  0.5934280000000  0.4817230000000 1.0
C      1  0.4876870000000  0.5841500000000  0.4600050000000 1.0
C      1  0.5535660000000  0.4610830000000  0.5760130000000 1.0
C      1  0.5854200000000  0.5199680000000  0.5167300000000 1.0
C      1  0.5285080000000  0.5115330000000  0.5228560000000 1.0
C      1  0.4646920000000  0.5948490000000  0.4980660000000 1.0
C      1  0.5886430000000  0.4962150000000  0.4656120000000 1.0
C      1  0.5385990000000  0.5059370000000  0.4309620000000 1.0
C      1  0.4528970000000  0.4322080000000  0.4504580000000 1.0
C      1  0.5049210000000  0.4940660000000  0.4854200000000 1.0
C      1  0.4145930000000  0.5177940000000  0.5166950000000 1.0
C      1  0.4997180000000  0.5851240000000  0.5331960000000 1.0
C      1  0.5185210000000  0.5495120000000  0.4314290000000 1.0
C      1  0.5588100000000  0.4601470000000  0.4340060000000 1.0
C      1  0.4705000000000  0.4443780000000  0.4307970000000 1.0
C      1  0.5375120000000  0.4211530000000  0.4599880000000 1.0
C      1  0.4117280000000  0.5049180000000  0.4903980000000 1.0
C      1  0.4769110000000  0.4975220000000  0.5582440000000 1.0
C      1  0.5485580000000  0.5695590000000  0.4675980000000 1.0
C      1  0.4805640000000  0.5110230000000  0.5274500000000 1.0
C      1  0.4736640000000  0.5512990000000  0.5670910000000 1.0
C      1  0.5464930000000  0.4797530000000  0.4885710000000 1.0
C      1  0.5465680000000  0.4407310000000  0.5260390000000 1.0
C      1  0.5406590000000  0.5230800000000  0.5778700000000 1.0
C      1  0.5293870000000  0.4887960000000  0.5410370000000 1.0
C      1  0.4995240000000  0.4243970000000  0.5523100000000 1.0
C      1  0.4982470000000  0.4433210000000  0.4342510000000 1.0
C      1  0.4912600000000  0.5409990000000  0.5016060000000 1.0
C      1  0.4334310000000  0.5551530000000  0.5441800000000 1.0
C      1  0.5675870000000  0.5389450000000  0.4461400000000 1.0
C      1  0.4581420000000  0.4686190000000  0.4221590000000 1.0
C      1  0.5714550000000  0.4466920000000  0.4814170000000 1.0
C      1  0.4290560000000  0.4991190000000  0.4415660000000 1.0
C      1  0.4367370000000  0.5118540000000  0.5620440000000 1.0
C      1  0.5827750000000  0.4792730000000  0.5361680000000 1.0
C      1  0.5336080000000  0.5284640000000  0.4790160000000 1.0
C      1  0.4667400000000  0.5263820000000  0.5057620000000 1.0
C      1  0.4438730000000  0.5856910000000  0.5136110000000 1.0
C      1  0.4074310000000  0.4766170000000  0.4913750000000 1.0
C      1  0.4873830000000  0.5104380000000  0.4672240000000 1.0
C      1  0.4347630000000  0.5421700000000  0.4575390000000 1.0
C      1  0.4897890000000  0.4883070000000  0.5110190000000 1.0
C      1  0.5552670000000  0.4688760000000  0.5364450000000 1.0
C      1  0.5101620000000  0.4113010000000  0.4968930000000 1.0
C      1  0.5482150000000  0.5205220000000  0.4534180000000 1.0
C      1  0.4552200000000  0.4676000000000  0.5854510000000 1.0
C      1  0.4145930000000  0.4607290000000  0.5144670000000 1.0
C      1  0.5552290000000  0.4448130000000  0.5534820000000 1.0
C      1  0.5453150000000  0.5564040000000  0.4426770000000 1.0
C      1  0.5787140000000  0.5361200000000  0.4940400000000 1.0
C      1  0.5532830000000  0.5517870000000  0.4917720000000 1.0
C      1  0.4251300000000  0.4386300000000  0.4991090000000 1.0
C      1  0.4768610000000  0.5748670000000  0.5492130000000 1.0
C      1  0.4613840000000  0.5840640000000  0.4719560000000 1.0
C      1  0.4990050000000  0.4265070000000  0.5206260000000 1.0
C      1  0.4374230000000  0.5656810000000  0.4731540000000 1.0
C      1  0.4295450000000  0.4488730000000  0.4521720000000 1.0
C      1  0.4313740000000  0.5135640000000  0.4685990000000 1.0
C      1  0.5392160000000  0.5596960000000  0.5567590000000 1.0
C      1  0.4958170000000  0.5372990000000  0.5785810000000 1.0
C      1  0.4932040000000  0.4145130000000  0.4738900000000 1.0
C      1  0.4653450000000  0.4777370000000  0.4976530000000 1.0
C      1  0.4200470000000  0.5460960000000  0.5201340000000 1.0
C      1  0.4748900000000  0.4513440000000  0.5717340000000 1.0
C      1  0.4496270000000  0.4255060000000  0.5013160000000 1.0
C      1  0.4685870000000  0.4954280000000  0.4194980000000 1.0
C      1  0.4463480000000  0.5130090000000  0.4238540000000 1.0
C      1  0.4246290000000  0.5012020000000  0.5383360000000 1.0
C      1  0.4940290000000  0.5661010000000  0.4367970000000 1.0
C      1  0.5878220000000  0.4914550000000  0.5116910000000 1.0
C      1  0.5282900000000  0.5757880000000  0.5348170000000 1.0
C      1  0.4809010000000  0.4705390000000  0.5483510000000 1.0
C      1  0.5227870000000  0.5461060000000  0.5771350000000 1.0
C      1  0.5048720000000  0.5274220000000  0.5247190000000 1.0
C      1  0.4974850000000  0.5089420000000  0.5747780000000 1.0
C      1  0.5320200000000  0.5041460000000  0.4946680000000 1.0
C      1  0.4330340000000  0.4712910000000  0.4354740000000 1.0
C      1  0.4712170000000  0.5550100000000  0.4267860000000 1.0
C      1  0.5093790000000  0.4713470000000  0.4402110000000 1.0
C      1  0.5060980000000  0.4722030000000  0.5309090000000 1.0
C      1  0.4663720000000  0.4333470000000  0.5242320000000 1.0
C      1  0.4314000000000  0.4732970000000  0.5328850000000 1.0
C      1  0.5238780000000  0.4972770000000  0.5713630000000 1.0
C      1  0.4276950000000  0.5663020000000  0.5002170000000 1.0
C      1  0.5911130000000  0.4853520000000  0.4405200000000 1.0
C      1  0.5029950000000  0.5336250000000  0.4768730000000 1.0
C      1  0.5800030000000  0.5235060000000  0.5457600000000 1.0
C      1  0.5039950000000  0.4681700000000  0.4717660000000 1.0
C      1  0.4666890000000  0.4276370000000  0.4761890000000 1.0
C      1  0.4914900000000  0.5956780000000  0.5070710000000 1.0
C      1  0.4491670000000  0.5404240000000  0.4324960000000 1.0
C      1  0.5839680000000  0.4969980000000  0.5585890000000 1.0
C      1  0.5840340000000  0.4686570000000  0.4221580000000 1.0
C      1  0.5376890000000  0.4141350000000  0.4881580000000 1.0
C      1  0.5826440000000  0.5250990000000  0.4678270000000 1.0
C      1  0.5094400000000  0.4229250000000  0.4515450000000 1.0
C      1  0.4937620000000  0.5002150000000  0.4357120000000 1.0
C      1  0.5592390000000  0.5374640000000  0.5596520000000 1.0
C      1  0.4520550000000  0.4923960000000  0.5755910000000 1.0
END
