TITL C-23830-9533-8 0.0728198890568215 125000 -486.623740024405 0 0 70 (C1) n - 1
REM
REM in /rds/project/t2_vol4/rds-t2-cs072/BORA/CARBON/from-Arr/AIRSS/Generating-Clusters/GAP-ML-2020/Only-C1/SD-CG/HFTN-CG
REM
REM
REM
REM
REM
REM ./C.cell (11c1c37f851c82e70ff6c80c92926a4b)
REM AIRSS Version 0.9.1 bugfix July 2018 build 013d7b7c2542+ Fri, 06 Jul 2018 19:26:36 +0100
REM compiler GCC version 9.3.0
REM options -cpp -mtune=generic -march=x86-64 -g -O0
REM seed 2037926387 -1527550481 2121213994 212024685 239905657 -1836687961 1337634581 384564382 1079438493 821444182 -1935790383 1949825063 -2078781723 -2142085903 1401595770 -1101655449 1828055517 401363108 723316810 62037087 1801410082 2067929820 -1696910802 958209227 449357934 1102407306 1734233601 446598274 656040288 -214068744 1744872497 512932448 -86563100
REM
CELL 1.54180   50.00000   50.00000   50.00000   90.00000   90.00000   90.00000
LATT -1
SFAC C  
C      1  0.5023470000000  0.5172870000000  0.5222990000000 1.0
C      1  0.5015180000000  0.5711690000000  0.4698120000000 1.0
C      1  0.4772860000000  0.4825270000000  0.4291710000000 1.0
C      1  0.5423240000000  0.5699830000000  0.4904210000000 1.0
C      1  0.4791380000000  0.5188180000000  0.5660380000000 1.0
C      1  0.5481590000000  0.5016880000000  0.4643960000000 1.0
C      1  0.5585450000000  0.5296820000000  0.4731430000000 1.0
C      1  0.5373810000000  0.5091830000000  0.5603580000000 1.0
C      1  0.5152790000000  0.5131550000000  0.4266650000000 1.0
C      1  0.4935670000000  0.4904760000000  0.5270730000000 1.0
C      1  0.4788480000000  0.5197610000000  0.5074320000000 1.0
C      1  0.5565400000000  0.5113400000000  0.5166000000000 1.0
C      1  0.5234360000000  0.5114620000000  0.4799340000000 1.0
C      1  0.5271370000000  0.5368100000000  0.5556210000000 1.0
C      1  0.5335550000000  0.4947540000000  0.4383070000000 1.0
C      1  0.4768800000000  0.5640160000000  0.5211420000000 1.0
C      1  0.5243660000000  0.4675230000000  0.4399810000000 1.0
C      1  0.5431140000000  0.4539610000000  0.5469910000000 1.0
C      1  0.4597250000000  0.5374250000000  0.5239700000000 1.0
C      1  0.4297170000000  0.5056440000000  0.4804400000000 1.0
C      1  0.5575760000000  0.4986310000000  0.5416540000000 1.0
C      1  0.5441440000000  0.4377300000000  0.5040280000000 1.0
C      1  0.5037130000000  0.4230630000000  0.4846990000000 1.0
C      1  0.4553140000000  0.5223630000000  0.5498660000000 1.0
C      1  0.5454230000000  0.5544780000000  0.4661340000000 1.0
C      1  0.4766890000000  0.4686400000000  0.5637700000000 1.0
C      1  0.5298530000000  0.4329500000000  0.4798490000000 1.0
C      1  0.4620490000000  0.5691290000000  0.4967320000000 1.0
C      1  0.5587840000000  0.4623350000000  0.5036780000000 1.0
C      1  0.4769690000000  0.4479270000000  0.4501510000000 1.0
C      1  0.5203240000000  0.5588350000000  0.4513750000000 1.0
C      1  0.5083420000000  0.5405520000000  0.4341580000000 1.0
C      1  0.4794570000000  0.5331400000000  0.4353900000000 1.0
C      1  0.4402400000000  0.4674140000000  0.5231530000000 1.0
C      1  0.5377230000000  0.4549270000000  0.4621280000000 1.0
C      1  0.4793700000000  0.4305540000000  0.4707000000000 1.0
C      1  0.5273360000000  0.5073580000000  0.5076750000000 1.0
C      1  0.4752560000000  0.5089100000000  0.4807580000000 1.0
C      1  0.5541380000000  0.4739880000000  0.4767680000000 1.0
C      1  0.5515000000000  0.5567030000000  0.5134550000000 1.0
C      1  0.4137450000000  0.5021140000000  0.5024180000000 1.0
C      1  0.4865130000000  0.5074620000000  0.4233500000000 1.0
C      1  0.4659910000000  0.5358580000000  0.4619080000000 1.0
C      1  0.5058360000000  0.5686720000000  0.5201870000000 1.0
C      1  0.5297820000000  0.5563470000000  0.5335950000000 1.0
C      1  0.4748780000000  0.5627340000000  0.4724850000000 1.0
C      1  0.4980600000000  0.4499160000000  0.5572040000000 1.0
C      1  0.5325300000000  0.4339070000000  0.5294800000000 1.0
C      1  0.5151220000000  0.5771830000000  0.4944190000000 1.0
C      1  0.4995460000000  0.4962560000000  0.4728440000000 1.0
C      1  0.4236320000000  0.4914040000000  0.5245280000000 1.0
C      1  0.5587840000000  0.4716680000000  0.5322110000000 1.0
C      1  0.4660170000000  0.4375300000000  0.4955990000000 1.0
C      1  0.4997640000000  0.5335430000000  0.5552710000000 1.0
C      1  0.4897990000000  0.4262220000000  0.5102760000000 1.0
C      1  0.4392820000000  0.5327790000000  0.4768670000000 1.0
C      1  0.4432450000000  0.5481450000000  0.5007620000000 1.0
C      1  0.5645890000000  0.5332600000000  0.5019880000000 1.0
C      1  0.4502900000000  0.4611950000000  0.4972220000000 1.0
C      1  0.4971210000000  0.4614410000000  0.4337490000000 1.0
C      1  0.5010250000000  0.4722960000000  0.4878410000000 1.0
C      1  0.4392620000000  0.4992930000000  0.5487230000000 1.0
C      1  0.5227540000000  0.4624540000000  0.5644940000000 1.0
C      1  0.5041390000000  0.4317660000000  0.5343350000000 1.0
C      1  0.5187240000000  0.4900640000000  0.5711930000000 1.0
C      1  0.4518500000000  0.4731610000000  0.5499390000000 1.0
C      1  0.4595680000000  0.4713560000000  0.4502840000000 1.0
C      1  0.4515730000000  0.4841240000000  0.4761130000000 1.0
C      1  0.4895610000000  0.4933510000000  0.5730890000000 1.0
C      1  0.5139560000000  0.4782060000000  0.5117100000000 1.0
END
