TITL C-23825-9551-8 0.194696273860248 125000 -422.220199573618 0 0 63 (C1) n - 1
REM
REM in /rds/project/t2_vol4/rds-t2-cs072/BORA/CARBON/from-Arr/AIRSS/Generating-Clusters/GAP-ML-2020/Only-C1/SD-CG/HFTN-CG
REM
REM
REM
REM
REM
REM ./C.cell (11c1c37f851c82e70ff6c80c92926a4b)
REM AIRSS Version 0.9.1 bugfix July 2018 build 013d7b7c2542+ Fri, 06 Jul 2018 19:26:36 +0100
REM compiler GCC version 9.3.0
REM options -cpp -mtune=generic -march=x86-64 -g -O0
REM seed 942725897 -2147240042 1473205595 -90837733 375807731 -957915248 -1728948199 -145840985 -1018556095 543899415 -2026272863 -1891379254 1484124879 -727622268 -744792860 -1698064509 1001391272 -1925375932 -1353949382 341420487 2065456747 -469433620 1040576688 -2046170171 1860929576 -1778671134 -949054855 -558789735 -964790698 -1019673697 -2004499279 1726067321 155218057
REM
CELL 1.54180   50.00000   50.00000   50.00000   90.00000   90.00000   90.00000
LATT -1
SFAC C  
C      1  0.5210030000000  0.5196630000000  0.5175550000000 1.0
C      1  0.5019450000000  0.4787390000000  0.5739440000000 1.0
C      1  0.4810000000000  0.5141760000000  0.5750170000000 1.0
C      1  0.5343550000000  0.5415620000000  0.4650740000000 1.0
C      1  0.5709870000000  0.5021730000000  0.4657620000000 1.0
C      1  0.4615900000000  0.4722490000000  0.5666520000000 1.0
C      1  0.4645390000000  0.4736210000000  0.5051720000000 1.0
C      1  0.5084210000000  0.5071860000000  0.5655790000000 1.0
C      1  0.4743170000000  0.4500550000000  0.4693100000000 1.0
C      1  0.4273210000000  0.4910700000000  0.4814120000000 1.0
C      1  0.4374510000000  0.5215180000000  0.5165220000000 1.0
C      1  0.5485700000000  0.5697830000000  0.5300370000000 1.0
C      1  0.4364480000000  0.4787740000000  0.4569540000000 1.0
C      1  0.4867640000000  0.4570460000000  0.5585880000000 1.0
C      1  0.4627940000000  0.5490410000000  0.4502180000000 1.0
C      1  0.5862800000000  0.4818280000000  0.4692120000000 1.0
C      1  0.5643810000000  0.5050670000000  0.5223050000000 1.0
C      1  0.4893000000000  0.5784930000000  0.4833570000000 1.0
C      1  0.5379500000000  0.4675750000000  0.4829200000000 1.0
C      1  0.4351870000000  0.4783620000000  0.5059080000000 1.0
C      1  0.4761820000000  0.4810550000000  0.4776060000000 1.0
C      1  0.5467480000000  0.5170850000000  0.5033850000000 1.0
C      1  0.5561320000000  0.5476900000000  0.5396220000000 1.0
C      1  0.5397580000000  0.5629740000000  0.4806830000000 1.0
C      1  0.5005250000000  0.4961030000000  0.4829750000000 1.0
C      1  0.4769100000000  0.5244320000000  0.5226770000000 1.0
C      1  0.4718470000000  0.4453980000000  0.4985560000000 1.0
C      1  0.4325410000000  0.4953880000000  0.5280590000000 1.0
C      1  0.5291840000000  0.4713980000000  0.5111120000000 1.0
C      1  0.5223820000000  0.4424830000000  0.4779620000000 1.0
C      1  0.4544960000000  0.5342340000000  0.5358720000000 1.0
C      1  0.5679520000000  0.4721040000000  0.4880210000000 1.0
C      1  0.4569070000000  0.5185410000000  0.5597390000000 1.0
C      1  0.5021300000000  0.4437040000000  0.4580220000000 1.0
C      1  0.4706590000000  0.5420760000000  0.4249980000000 1.0
C      1  0.4906060000000  0.5244620000000  0.4782950000000 1.0
C      1  0.5270190000000  0.5172870000000  0.5472870000000 1.0
C      1  0.5509780000000  0.4582310000000  0.5290290000000 1.0
C      1  0.4604760000000  0.5248170000000  0.4686090000000 1.0
C      1  0.5325660000000  0.5701340000000  0.5062700000000 1.0
C      1  0.4956860000000  0.5299970000000  0.4298330000000 1.0
C      1  0.5160560000000  0.4846410000000  0.4381880000000 1.0
C      1  0.5449730000000  0.5143110000000  0.4727840000000 1.0
C      1  0.4491850000000  0.4544500000000  0.4552010000000 1.0
C      1  0.5080430000000  0.4931790000000  0.5122050000000 1.0
C      1  0.5257650000000  0.4910230000000  0.4673700000000 1.0
C      1  0.4860140000000  0.5640420000000  0.4613980000000 1.0
C      1  0.4894430000000  0.4301060000000  0.5132770000000 1.0
C      1  0.4452400000000  0.4923750000000  0.5531780000000 1.0
C      1  0.5557160000000  0.5207140000000  0.5462280000000 1.0
C      1  0.5050170000000  0.5053210000000  0.4243450000000 1.0
C      1  0.5686370000000  0.4772610000000  0.5173080000000 1.0
C      1  0.4770780000000  0.4874620000000  0.5859010000000 1.0
C      1  0.4972680000000  0.5373210000000  0.5057670000000 1.0
C      1  0.5033780000000  0.5663420000000  0.5040750000000 1.0
C      1  0.4986490000000  0.4417500000000  0.5393590000000 1.0
C      1  0.5159090000000  0.4295230000000  0.5021560000000 1.0
C      1  0.5105140000000  0.4580120000000  0.4361630000000 1.0
C      1  0.5258750000000  0.4445250000000  0.5267840000000 1.0
C      1  0.4595010000000  0.4965480000000  0.4595750000000 1.0
C      1  0.4375570000000  0.5186070000000  0.4871680000000 1.0
C      1  0.4818610000000  0.4939500000000  0.5252920000000 1.0
C      1  0.5060360000000  0.5409660000000  0.4561610000000 1.0
END
