TITL C-23818-632-3 -319.784973637033 125000 -292.05809794254 0 0 44 (C1) n - 1
REM
REM in /rds/project/t2_vol4/rds-t2-cs072/BORA/CARBON/from-Arr/AIRSS/Generating-Clusters/GAP-ML-2020/Only-C1/SD-CG/HFTN-CG
REM
REM
REM
REM
REM
REM ./C.cell (11c1c37f851c82e70ff6c80c92926a4b)
REM AIRSS Version 0.9.1 bugfix July 2018 build 013d7b7c2542+ Fri, 06 Jul 2018 19:26:36 +0100
REM compiler GCC version 9.3.0
REM options -cpp -mtune=generic -march=x86-64 -g -O0
REM seed -1971623498 -1910520649 1540650326 151391052 1545093459 -1808342462 -1335514948 -831051265 -1718475601 1249796782 513732576 -1726250947 -2025444004 -367380050 -519379337 1728563826 -161039266 -2095384749 -808621119 398981627 -869492427 -1124620324 1991050996 -1656817881 -2129827648 -1617996909 1723417204 -1275751069 -1613599073 1217143008 -364491759 -451275891 -1439588409
REM
CELL 1.54180   50.00000   50.00000   50.00000   90.00000   90.00000   90.00000
LATT -1
SFAC C  
C      1  0.4589200000000  0.4755380000000  0.5172740000000 1.0
C      1  0.5240520000000  0.4614170000000  0.4856840000000 1.0
C      1  0.5253140000000  0.4905890000000  0.4912150000000 1.0
C      1  0.5701340000000  0.5067170000000  0.4752120000000 1.0
C      1  0.4691260000000  0.5254050000000  0.4876740000000 1.0
C      1  0.5673880000000  0.4774790000000  0.4706800000000 1.0
C      1  0.4954160000000  0.4999880000000  0.4485860000000 1.0
C      1  0.5521680000000  0.5278140000000  0.4785240000000 1.0
C      1  0.5473860000000  0.4931180000000  0.5113190000000 1.0
C      1  0.5135110000000  0.5214210000000  0.4510520000000 1.0
C      1  0.4686740000000  0.4480270000000  0.4795730000000 1.0
C      1  0.4391290000000  0.5210500000000  0.4907850000000 1.0
C      1  0.5109040000000  0.5019870000000  0.5607250000000 1.0
C      1  0.4825490000000  0.5356120000000  0.5760750000000 1.0
C      1  0.4672240000000  0.4501410000000  0.5067860000000 1.0
C      1  0.5224020000000  0.5213200000000  0.5418150000000 1.0
C      1  0.4793690000000  0.5007440000000  0.4733200000000 1.0
C      1  0.5086880000000  0.4562940000000  0.5350350000000 1.0
C      1  0.4975140000000  0.4718230000000  0.4466630000000 1.0
C      1  0.5037000000000  0.5471260000000  0.4580820000000 1.0
C      1  0.4917840000000  0.4421320000000  0.5184610000000 1.0
C      1  0.4960480000000  0.4867950000000  0.4940800000000 1.0
C      1  0.5208540000000  0.4581840000000  0.4554550000000 1.0
C      1  0.4349390000000  0.5178120000000  0.5196520000000 1.0
C      1  0.4564010000000  0.4836350000000  0.4674430000000 1.0
C      1  0.4346450000000  0.4883160000000  0.5129240000000 1.0
C      1  0.4712860000000  0.4611680000000  0.4568550000000 1.0
C      1  0.4980130000000  0.5146280000000  0.5818930000000 1.0
C      1  0.4341230000000  0.4923340000000  0.4825330000000 1.0
C      1  0.4838400000000  0.4915090000000  0.5201150000000 1.0
C      1  0.5316450000000  0.5103930000000  0.4696870000000 1.0
C      1  0.4801920000000  0.5202220000000  0.5159410000000 1.0
C      1  0.5016280000000  0.5378040000000  0.5290490000000 1.0
C      1  0.5715110000000  0.4888550000000  0.4964850000000 1.0
C      1  0.5005070000000  0.4822520000000  0.5429690000000 1.0
C      1  0.5180980000000  0.5514630000000  0.5067730000000 1.0
C      1  0.5173040000000  0.4452860000000  0.5095980000000 1.0
C      1  0.4808840000000  0.5500430000000  0.4748390000000 1.0
C      1  0.5443720000000  0.5181000000000  0.5246640000000 1.0
C      1  0.4575820000000  0.5279660000000  0.5337750000000 1.0
C      1  0.5417860000000  0.5368590000000  0.5034840000000 1.0
C      1  0.5470500000000  0.4593210000000  0.4643640000000 1.0
C      1  0.5055460000000  0.5599940000000  0.4830480000000 1.0
C      1  0.4763930000000  0.5413200000000  0.5498330000000 1.0
END
