TITL C-231489-4450-9 -271.323532816742 125000 -840.108789101449 0 0 120 (C1) n - 1
REM
REM in /rds/project/t2_vol4/rds-t2-cs072/BORA/CARBON/from-Arr/AIRSS/Generating-Clusters/GAP-ML-2020/Only-C1/SD-CG/HFTN-CG
REM
REM
REM
REM
REM
REM ./C.cell (11c1c37f851c82e70ff6c80c92926a4b)
REM AIRSS Version 0.9.1 bugfix July 2018 build 013d7b7c2542+ Fri, 06 Jul 2018 19:26:36 +0100
REM compiler GCC version 9.3.0
REM options -cpp -mtune=generic -march=x86-64 -g -O0
REM seed -242493901 -1630928148 256032528 -972382637 -27656268 -1996365185 539178526 1742165763 -2053892123 1679830172 -54205928 584123212 753580258 -1054700629 -1372353999 -1725288076 -1880742405 350778279 -177336703 715585764 1474554361 -1019079288 -1525514756 -183742611 -1183762536 -594155599 80740035 192801946 -299793703 -493567743 883420693 -1287283138 -296057676
REM
CELL 1.54180   50.00000   50.00000   50.00000   90.00000   90.00000   90.00000
LATT -1
SFAC C  
C      1  0.4972370000000  0.4680570000000  0.5797610000000 1.0
C      1  0.4166830000000  0.4961730000000  0.5687150000000 1.0
C      1  0.4910140000000  0.5694940000000  0.4420410000000 1.0
C      1  0.4129000000000  0.4952810000000  0.4932620000000 1.0
C      1  0.5631450000000  0.5372290000000  0.5506930000000 1.0
C      1  0.5455270000000  0.4671760000000  0.5543840000000 1.0
C      1  0.5355200000000  0.4813600000000  0.4796910000000 1.0
C      1  0.4811950000000  0.5049850000000  0.4427440000000 1.0
C      1  0.5282420000000  0.5122280000000  0.5117130000000 1.0
C      1  0.5206270000000  0.4809730000000  0.5644210000000 1.0
C      1  0.4903120000000  0.4397960000000  0.5750810000000 1.0
C      1  0.4906230000000  0.4568900000000  0.5316220000000 1.0
C      1  0.4610860000000  0.5777070000000  0.5092910000000 1.0
C      1  0.4983760000000  0.4582720000000  0.4238830000000 1.0
C      1  0.5903500000000  0.5218310000000  0.4701320000000 1.0
C      1  0.5092420000000  0.4719650000000  0.4898870000000 1.0
C      1  0.5967500000000  0.5109870000000  0.5242840000000 1.0
C      1  0.4586830000000  0.5026500000000  0.4858540000000 1.0
C      1  0.5875590000000  0.4878110000000  0.5377720000000 1.0
C      1  0.4717960000000  0.4896660000000  0.4654740000000 1.0
C      1  0.5596960000000  0.5646780000000  0.4550720000000 1.0
C      1  0.5962490000000  0.5565760000000  0.5181980000000 1.0
C      1  0.5061570000000  0.5339740000000  0.4750280000000 1.0
C      1  0.6014650000000  0.5103910000000  0.4954930000000 1.0
C      1  0.5276860000000  0.4617640000000  0.4235300000000 1.0
C      1  0.5424380000000  0.5533940000000  0.5400660000000 1.0
C      1  0.5202630000000  0.4138980000000  0.4652640000000 1.0
C      1  0.5879330000000  0.4928160000000  0.4594490000000 1.0
C      1  0.5318870000000  0.4881900000000  0.4145200000000 1.0
C      1  0.5009330000000  0.5570840000000  0.5171200000000 1.0
C      1  0.4604680000000  0.5044270000000  0.5936090000000 1.0
C      1  0.5335940000000  0.5041000000000  0.4610930000000 1.0
C      1  0.4200320000000  0.4709410000000  0.4783250000000 1.0
C      1  0.4628240000000  0.5290760000000  0.4323810000000 1.0
C      1  0.4692040000000  0.5801080000000  0.4819290000000 1.0
C      1  0.4303300000000  0.5172640000000  0.4787860000000 1.0
C      1  0.5831600000000  0.4642180000000  0.5219180000000 1.0
C      1  0.5185780000000  0.5782120000000  0.5076850000000 1.0
C      1  0.4058740000000  0.4911370000000  0.5207050000000 1.0
C      1  0.5536260000000  0.4633940000000  0.5228800000000 1.0
C      1  0.4374770000000  0.4533510000000  0.5178370000000 1.0
C      1  0.4805930000000  0.5012820000000  0.5510040000000 1.0
C      1  0.5310060000000  0.5252810000000  0.4849560000000 1.0
C      1  0.5042580000000  0.5245210000000  0.5807550000000 1.0
C      1  0.4331680000000  0.5116780000000  0.5873000000000 1.0
C      1  0.4522960000000  0.4341210000000  0.4728460000000 1.0
C      1  0.5270570000000  0.5080050000000  0.5749170000000 1.0
C      1  0.4872380000000  0.5369950000000  0.4957610000000 1.0
C      1  0.4401120000000  0.5584070000000  0.5105930000000 1.0
C      1  0.5034860000000  0.4954980000000  0.5123140000000 1.0
C      1  0.4755950000000  0.4178080000000  0.4796110000000 1.0
C      1  0.4787590000000  0.5702240000000  0.5310730000000 1.0
C      1  0.4336230000000  0.5398170000000  0.5822260000000 1.0
C      1  0.5081040000000  0.5017450000000  0.4074390000000 1.0
C      1  0.3965800000000  0.5359320000000  0.5509530000000 1.0
C      1  0.5805520000000  0.4486980000000  0.4749720000000 1.0
C      1  0.5628270000000  0.4285960000000  0.4778340000000 1.0
C      1  0.5817300000000  0.5495750000000  0.4686980000000 1.0
C      1  0.5537370000000  0.5136410000000  0.5652180000000 1.0
C      1  0.4835370000000  0.4372970000000  0.4367530000000 1.0
C      1  0.4420910000000  0.5446130000000  0.5378170000000 1.0
C      1  0.5080860000000  0.4502990000000  0.5083290000000 1.0
C      1  0.4380460000000  0.5159720000000  0.4258830000000 1.0
C      1  0.5728410000000  0.4662420000000  0.4525020000000 1.0
C      1  0.4527810000000  0.4628940000000  0.5630170000000 1.0
C      1  0.4943290000000  0.5296780000000  0.5535000000000 1.0
C      1  0.4901330000000  0.4064550000000  0.5026100000000 1.0
C      1  0.4548580000000  0.4812700000000  0.4135800000000 1.0
C      1  0.4694070000000  0.5515870000000  0.5516800000000 1.0
C      1  0.4072180000000  0.5102630000000  0.5436720000000 1.0
C      1  0.6024460000000  0.4846960000000  0.4834060000000 1.0
C      1  0.4601960000000  0.4991720000000  0.5306200000000 1.0
C      1  0.4343630000000  0.5472170000000  0.4843120000000 1.0
C      1  0.5849260000000  0.5633330000000  0.4946010000000 1.0
C      1  0.5357010000000  0.4391120000000  0.5198600000000 1.0
C      1  0.5868360000000  0.5359100000000  0.5340860000000 1.0
C      1  0.4183040000000  0.5495090000000  0.5597890000000 1.0
C      1  0.5135730000000  0.5591640000000  0.4279100000000 1.0
C      1  0.5013780000000  0.4833960000000  0.5392480000000 1.0
C      1  0.4375550000000  0.5158470000000  0.5373220000000 1.0
C      1  0.5175690000000  0.5377700000000  0.5331800000000 1.0
C      1  0.5021590000000  0.4106840000000  0.5288650000000 1.0
C      1  0.4518290000000  0.5625190000000  0.4669370000000 1.0
C      1  0.5439910000000  0.4286970000000  0.4579840000000 1.0
C      1  0.5438360000000  0.5741320000000  0.5200310000000 1.0
C      1  0.4423570000000  0.4635680000000  0.4335680000000 1.0
C      1  0.5430210000000  0.5307340000000  0.4215430000000 1.0
C      1  0.4630180000000  0.4389770000000  0.5757850000000 1.0
C      1  0.4562030000000  0.4422600000000  0.4448040000000 1.0
C      1  0.5327070000000  0.4405450000000  0.5491820000000 1.0
C      1  0.4765050000000  0.5105580000000  0.5069930000000 1.0
C      1  0.4938600000000  0.5839640000000  0.4671890000000 1.0
C      1  0.5134120000000  0.5295430000000  0.4194800000000 1.0
C      1  0.5474800000000  0.5827170000000  0.4743010000000 1.0
C      1  0.4937980000000  0.4202280000000  0.4572810000000 1.0
C      1  0.4242340000000  0.4782060000000  0.4515350000000 1.0
C      1  0.5620810000000  0.5800830000000  0.4989790000000 1.0
C      1  0.5489020000000  0.5045230000000  0.4311190000000 1.0
C      1  0.5067230000000  0.5171250000000  0.4502820000000 1.0
C      1  0.4168070000000  0.4676210000000  0.5320840000000 1.0
C      1  0.5175910000000  0.4030010000000  0.4910490000000 1.0
C      1  0.4257600000000  0.5066390000000  0.4503160000000 1.0
C      1  0.4615900000000  0.5473740000000  0.5804710000000 1.0
C      1  0.5036570000000  0.4327590000000  0.5500520000000 1.0
C      1  0.4781390000000  0.5273550000000  0.5931770000000 1.0
C      1  0.5288650000000  0.4102820000000  0.5160390000000 1.0
C      1  0.4880150000000  0.4690590000000  0.4720250000000 1.0
C      1  0.4249430000000  0.4713360000000  0.5592270000000 1.0
C      1  0.5429190000000  0.5566390000000  0.4334930000000 1.0
C      1  0.4853890000000  0.4847880000000  0.4179700000000 1.0
C      1  0.4606220000000  0.4646890000000  0.5321420000000 1.0
C      1  0.4725220000000  0.4842600000000  0.5756400000000 1.0
C      1  0.4661570000000  0.5547070000000  0.4429920000000 1.0
C      1  0.4380490000000  0.4999870000000  0.4032880000000 1.0
C      1  0.5192600000000  0.5869930000000  0.4806330000000 1.0
C      1  0.5483090000000  0.4520940000000  0.4408820000000 1.0
C      1  0.5466640000000  0.4891630000000  0.5054090000000 1.0
C      1  0.5662010000000  0.4889940000000  0.5576180000000 1.0
C      1  0.4342470000000  0.4487250000000  0.4898240000000 1.0
C      1  0.5945370000000  0.4614240000000  0.4960750000000 1.0
END
