TITL C-231499-4173-2 -0.0329962847712088 125000 -710.523254600804 0 0 100 (C1) n - 1
REM
REM in /rds/project/t2_vol4/rds-t2-cs072/BORA/CARBON/from-Arr/AIRSS/Generating-Clusters/GAP-ML-2020/Only-C1/SD-CG/HFTN-CG
REM
REM
REM
REM
REM
REM ./C.cell (11c1c37f851c82e70ff6c80c92926a4b)
REM AIRSS Version 0.9.1 bugfix July 2018 build 013d7b7c2542+ Fri, 06 Jul 2018 19:26:36 +0100
REM compiler GCC version 9.3.0
REM options -cpp -mtune=generic -march=x86-64 -g -O0
REM seed -2010339083 -1589324994 -1193601942 318211938 157018817 -251271361 1516441202 1866570381 -599919352 -2107625899 -1721750230 -1537664810 -17498146 -1938869776 1367914810 1661024640 -1535878815 366068641 969107591 997303170 1860839436 -614011100 -645900654 -1194390027 -933356998 875430577 524921126 1503565650 -110708056 1773339077 -258944833 1796015567 -1660477161
REM
CELL 1.54180   50.00000   50.00000   50.00000   90.00000   90.00000   90.00000
LATT -1
SFAC C  
C      1  0.4485080000000  0.4342320000000  0.5307020000000 1.0
C      1  0.4629730000000  0.4512460000000  0.5721860000000 1.0
C      1  0.5740310000000  0.4854830000000  0.5009760000000 1.0
C      1  0.4955610000000  0.4348600000000  0.5380850000000 1.0
C      1  0.4813710000000  0.4980650000000  0.5388160000000 1.0
C      1  0.4642500000000  0.5146810000000  0.4147610000000 1.0
C      1  0.4217300000000  0.4998210000000  0.5421730000000 1.0
C      1  0.5049930000000  0.5791900000000  0.4706120000000 1.0
C      1  0.4427490000000  0.4548040000000  0.4853530000000 1.0
C      1  0.5718440000000  0.4792420000000  0.4723890000000 1.0
C      1  0.4806370000000  0.4700220000000  0.5830540000000 1.0
C      1  0.5103640000000  0.4998800000000  0.5862690000000 1.0
C      1  0.5043770000000  0.5304640000000  0.4919470000000 1.0
C      1  0.4478140000000  0.5356760000000  0.5603640000000 1.0
C      1  0.4454610000000  0.5640500000000  0.5114520000000 1.0
C      1  0.4289240000000  0.5282570000000  0.5394680000000 1.0
C      1  0.4782630000000  0.4904610000000  0.4911960000000 1.0
C      1  0.4638530000000  0.5721390000000  0.5313590000000 1.0
C      1  0.4548170000000  0.5674750000000  0.4381280000000 1.0
C      1  0.4866220000000  0.5835730000000  0.5177760000000 1.0
C      1  0.4760200000000  0.4308080000000  0.4604550000000 1.0
C      1  0.5618470000000  0.4526440000000  0.4673830000000 1.0
C      1  0.4603860000000  0.4368050000000  0.5029960000000 1.0
C      1  0.4803670000000  0.4991950000000  0.5732330000000 1.0
C      1  0.5223040000000  0.5027410000000  0.4722740000000 1.0
C      1  0.5506410000000  0.5565500000000  0.5233530000000 1.0
C      1  0.4343520000000  0.4918360000000  0.5664330000000 1.0
C      1  0.5692160000000  0.4655430000000  0.5215210000000 1.0
C      1  0.5118670000000  0.5290720000000  0.4118580000000 1.0
C      1  0.4567270000000  0.4520910000000  0.4569110000000 1.0
C      1  0.5498400000000  0.4788260000000  0.5697330000000 1.0
C      1  0.4577750000000  0.4788600000000  0.4732950000000 1.0
C      1  0.5686580000000  0.5083010000000  0.5424370000000 1.0
C      1  0.5076060000000  0.5236820000000  0.5193740000000 1.0
C      1  0.5516340000000  0.5249800000000  0.5598120000000 1.0
C      1  0.5222300000000  0.5430510000000  0.4380880000000 1.0
C      1  0.5034230000000  0.5646640000000  0.4454770000000 1.0
C      1  0.5219700000000  0.4486320000000  0.5473280000000 1.0
C      1  0.5240690000000  0.4290750000000  0.4516610000000 1.0
C      1  0.4835530000000  0.5341600000000  0.4141590000000 1.0
C      1  0.5382050000000  0.5048840000000  0.5766550000000 1.0
C      1  0.4221360000000  0.4732100000000  0.4959790000000 1.0
C      1  0.4567650000000  0.5717720000000  0.4865790000000 1.0
C      1  0.4916710000000  0.4575850000000  0.4261400000000 1.0
C      1  0.5371000000000  0.4292070000000  0.5310000000000 1.0
C      1  0.5096740000000  0.4973100000000  0.5306500000000 1.0
C      1  0.5454750000000  0.4465310000000  0.4448600000000 1.0
C      1  0.4689100000000  0.4324420000000  0.5511980000000 1.0
C      1  0.4829990000000  0.5828270000000  0.4893860000000 1.0
C      1  0.5069970000000  0.4135810000000  0.4945790000000 1.0
C      1  0.5726180000000  0.5508860000000  0.4823210000000 1.0
C      1  0.4274020000000  0.5247830000000  0.4911580000000 1.0
C      1  0.5159000000000  0.5658690000000  0.5536040000000 1.0
C      1  0.5086540000000  0.4708370000000  0.5888270000000 1.0
C      1  0.5721550000000  0.5272060000000  0.4498160000000 1.0
C      1  0.4548450000000  0.4947930000000  0.4310650000000 1.0
C      1  0.5496230000000  0.5478410000000  0.4452610000000 1.0
C      1  0.4501500000000  0.5568390000000  0.4633430000000 1.0
C      1  0.5341350000000  0.5764900000000  0.5110870000000 1.0
C      1  0.5406640000000  0.4654400000000  0.4254390000000 1.0
C      1  0.4513460000000  0.5278740000000  0.4732310000000 1.0
C      1  0.5682100000000  0.4985270000000  0.4491800000000 1.0
C      1  0.5232760000000  0.4743270000000  0.5249070000000 1.0
C      1  0.4441090000000  0.5008930000000  0.4592930000000 1.0
C      1  0.4280450000000  0.5416200000000  0.5143970000000 1.0
C      1  0.5306480000000  0.5221250000000  0.4910420000000 1.0
C      1  0.4793910000000  0.4207910000000  0.4862830000000 1.0
C      1  0.4741880000000  0.4796990000000  0.5189800000000 1.0
C      1  0.4222370000000  0.4983850000000  0.4815170000000 1.0
C      1  0.5520880000000  0.5658100000000  0.4679090000000 1.0
C      1  0.5918490000000  0.5402310000000  0.4655010000000 1.0
C      1  0.5056890000000  0.4816040000000  0.4816640000000 1.0
C      1  0.5124430000000  0.5810130000000  0.5288270000000 1.0
C      1  0.5723360000000  0.5114510000000  0.5145100000000 1.0
C      1  0.5533680000000  0.4341140000000  0.4874280000000 1.0
C      1  0.5131920000000  0.4169990000000  0.5217630000000 1.0
C      1  0.4655600000000  0.4673400000000  0.4334850000000 1.0
C      1  0.4187420000000  0.4755430000000  0.5246140000000 1.0
C      1  0.4293800000000  0.4533180000000  0.5395310000000 1.0
C      1  0.4534430000000  0.5118220000000  0.5755840000000 1.0
C      1  0.4848210000000  0.4524940000000  0.5150800000000 1.0
C      1  0.5137760000000  0.5143700000000  0.4479630000000 1.0
C      1  0.4385510000000  0.4639800000000  0.5649540000000 1.0
C      1  0.5504080000000  0.4918410000000  0.4282220000000 1.0
C      1  0.4977630000000  0.4346680000000  0.4426280000000 1.0
C      1  0.4661220000000  0.5582840000000  0.5567670000000 1.0
C      1  0.4918210000000  0.5623990000000  0.5662930000000 1.0
C      1  0.5139430000000  0.4728790000000  0.4173370000000 1.0
C      1  0.5290650000000  0.4200770000000  0.4778590000000 1.0
C      1  0.5580840000000  0.4392750000000  0.5147520000000 1.0
C      1  0.5299350000000  0.4587890000000  0.5737280000000 1.0
C      1  0.5314450000000  0.5781560000000  0.4825350000000 1.0
C      1  0.5421330000000  0.5507000000000  0.5502490000000 1.0
C      1  0.4797570000000  0.5593670000000  0.4296930000000 1.0
C      1  0.5587650000000  0.5353810000000  0.5037600000000 1.0
C      1  0.4778470000000  0.5241970000000  0.5227100000000 1.0
C      1  0.5213150000000  0.5018540000000  0.4214210000000 1.0
C      1  0.5671800000000  0.4800130000000  0.5471210000000 1.0
C      1  0.5117640000000  0.4625030000000  0.5012590000000 1.0
C      1  0.4762600000000  0.5198160000000  0.4922260000000 1.0
END
