TITL C-23816-9593-5 27.2187376048541 125000 -198.071462106021 0 0 31 (C1) n - 1
REM
REM in /rds/project/t2_vol4/rds-t2-cs072/BORA/CARBON/from-Arr/AIRSS/Generating-Clusters/GAP-ML-2020/Only-C1/SD-CG/HFTN-CG
REM
REM
REM
REM
REM
REM ./C.cell (11c1c37f851c82e70ff6c80c92926a4b)
REM AIRSS Version 0.9.1 bugfix July 2018 build 013d7b7c2542+ Fri, 06 Jul 2018 19:26:36 +0100
REM compiler GCC version 9.3.0
REM options -cpp -mtune=generic -march=x86-64 -g -O0
REM seed -2070125466 492609178 263978616 1409993033 -1373529679 -1319179746 -1766341348 904257752 1627183791 1741191258 -1815849356 728095948 1098890678 -1606554864 -1141758072 -1975056894 -1495545451 -1385729720 1997677153 1629855225 2129206223 -1214124217 -2135622154 -1007908678 167902502 1786330627 -1256311575 -1146499821 1981108243 1329059126 -628206694 -1284087693 -552824387
REM
CELL 1.54180   50.00000   50.00000   50.00000   90.00000   90.00000   90.00000
LATT -1
SFAC C  
C      1  0.4614810000000  0.5170190000000  0.4741210000000 1.0
C      1  0.5073370000000  0.5107840000000  0.4772330000000 1.0
C      1  0.4825540000000  0.5590390000000  0.4929430000000 1.0
C      1  0.4619640000000  0.4618010000000  0.4901410000000 1.0
C      1  0.5287630000000  0.4695600000000  0.5012870000000 1.0
C      1  0.4923400000000  0.4511000000000  0.5223350000000 1.0
C      1  0.5273790000000  0.5200120000000  0.5389960000000 1.0
C      1  0.5276190000000  0.5094480000000  0.5641410000000 1.0
C      1  0.4469290000000  0.4904070000000  0.5159760000000 1.0
C      1  0.5497130000000  0.4874590000000  0.4999270000000 1.0
C      1  0.5227770000000  0.5354080000000  0.4833540000000 1.0
C      1  0.5208280000000  0.4994900000000  0.4507190000000 1.0
C      1  0.4689220000000  0.5366090000000  0.4943940000000 1.0
C      1  0.4828360000000  0.4836290000000  0.5426740000000 1.0
C      1  0.5487880000000  0.5271160000000  0.4912300000000 1.0
C      1  0.4834760000000  0.5170590000000  0.4575570000000 1.0
C      1  0.5564610000000  0.5024860000000  0.4757430000000 1.0
C      1  0.4816690000000  0.5206190000000  0.5177820000000 1.0
C      1  0.4908520000000  0.4977000000000  0.4999350000000 1.0
C      1  0.5485700000000  0.4996980000000  0.4501360000000 1.0
C      1  0.5081250000000  0.5510260000000  0.5017550000000 1.0
C      1  0.4979340000000  0.5083410000000  0.4365270000000 1.0
C      1  0.4874610000000  0.4484210000000  0.4946850000000 1.0
C      1  0.5120600000000  0.4553810000000  0.4847210000000 1.0
C      1  0.5048940000000  0.5352490000000  0.5260350000000 1.0
C      1  0.5459090000000  0.5121380000000  0.5160760000000 1.0
C      1  0.4637900000000  0.4910870000000  0.4902780000000 1.0
C      1  0.4492680000000  0.4623120000000  0.5175050000000 1.0
C      1  0.4649870000000  0.5036850000000  0.5337100000000 1.0
C      1  0.5036040000000  0.4783000000000  0.5193320000000 1.0
C      1  0.4707070000000  0.4576160000000  0.5387540000000 1.0
END
