TITL C-231494-4225-1 0.0920645748660335 125000 -879.88030092847 0 0 126 (C1) n - 1
REM
REM in /rds/project/t2_vol4/rds-t2-cs072/BORA/CARBON/from-Arr/AIRSS/Generating-Clusters/GAP-ML-2020/Only-C1/SD-CG/HFTN-CG
REM
REM
REM
REM
REM
REM ./C.cell (11c1c37f851c82e70ff6c80c92926a4b)
REM AIRSS Version 0.9.1 bugfix July 2018 build 013d7b7c2542+ Fri, 06 Jul 2018 19:26:36 +0100
REM compiler GCC version 9.3.0
REM options -cpp -mtune=generic -march=x86-64 -g -O0
REM seed 604853996 -708459469 1148819870 602870649 -925443188 784819673 2078827713 -432830155 787834930 -1541146357 -77370082 431166541 1694499202 685583814 1117956801 -1532300553 469864637 1464779111 -1081693318 2023721831 1526837098 -1078620638 -69710591 -944673132 -1224494865 -1679755186 -2004940127 -1860625654 767352180 1240069877 -2114535100 -56707390 -294771384
REM
CELL 1.54180   50.00000   50.00000   50.00000   90.00000   90.00000   90.00000
LATT -1
SFAC C  
C      1  0.5433670000000  0.5168930000000  0.4550720000000 1.0
C      1  0.5782570000000  0.5194010000000  0.5330570000000 1.0
C      1  0.5473580000000  0.4478370000000  0.4296390000000 1.0
C      1  0.4594720000000  0.4561600000000  0.5814610000000 1.0
C      1  0.4487660000000  0.4721540000000  0.5104080000000 1.0
C      1  0.4890330000000  0.5184130000000  0.5984170000000 1.0
C      1  0.4723440000000  0.5505730000000  0.4335550000000 1.0
C      1  0.5154920000000  0.5716800000000  0.4807260000000 1.0
C      1  0.5294570000000  0.5408060000000  0.5828600000000 1.0
C      1  0.4552840000000  0.4619050000000  0.4574190000000 1.0
C      1  0.5871610000000  0.5191990000000  0.4469700000000 1.0
C      1  0.5148650000000  0.5139660000000  0.4480900000000 1.0
C      1  0.5936370000000  0.4865490000000  0.4905140000000 1.0
C      1  0.4554130000000  0.5356610000000  0.5444790000000 1.0
C      1  0.5142150000000  0.5627200000000  0.5709620000000 1.0
C      1  0.4802790000000  0.5117300000000  0.5359070000000 1.0
C      1  0.3961540000000  0.5111630000000  0.4698390000000 1.0
C      1  0.4994570000000  0.5250010000000  0.4712310000000 1.0
C      1  0.5193900000000  0.4420220000000  0.4257340000000 1.0
C      1  0.4992690000000  0.4633270000000  0.4256410000000 1.0
C      1  0.4609840000000  0.5239340000000  0.4053280000000 1.0
C      1  0.4748920000000  0.5396240000000  0.5850650000000 1.0
C      1  0.5013360000000  0.4440800000000  0.5681620000000 1.0
C      1  0.5513580000000  0.5581620000000  0.5451540000000 1.0
C      1  0.4893160000000  0.5019190000000  0.4863100000000 1.0
C      1  0.5070290000000  0.4739210000000  0.5616750000000 1.0
C      1  0.4796800000000  0.4838850000000  0.5471050000000 1.0
C      1  0.4738500000000  0.4362440000000  0.5669520000000 1.0
C      1  0.5659660000000  0.5149590000000  0.5608340000000 1.0
C      1  0.4705630000000  0.4961540000000  0.5989300000000 1.0
C      1  0.5274640000000  0.5741770000000  0.5478370000000 1.0
C      1  0.4838000000000  0.4073880000000  0.4971050000000 1.0
C      1  0.4704990000000  0.4689260000000  0.6031280000000 1.0
C      1  0.4451190000000  0.5198380000000  0.4978710000000 1.0
C      1  0.4518080000000  0.5290470000000  0.5727310000000 1.0
C      1  0.4815900000000  0.4256350000000  0.4490810000000 1.0
C      1  0.4806960000000  0.4842050000000  0.4628890000000 1.0
C      1  0.5076000000000  0.4826460000000  0.4501680000000 1.0
C      1  0.5372330000000  0.4414580000000  0.4756200000000 1.0
C      1  0.4334550000000  0.5307450000000  0.5246450000000 1.0
C      1  0.5335970000000  0.5639190000000  0.4584170000000 1.0
C      1  0.4498660000000  0.5016520000000  0.5799590000000 1.0
C      1  0.6075160000000  0.5152090000000  0.5263410000000 1.0
C      1  0.5926410000000  0.4942920000000  0.4600400000000 1.0
C      1  0.4114340000000  0.5524470000000  0.5183640000000 1.0
C      1  0.4463880000000  0.5825730000000  0.5006630000000 1.0
C      1  0.5618660000000  0.5165790000000  0.4320910000000 1.0
C      1  0.4906840000000  0.5710310000000  0.4416390000000 1.0
C      1  0.5172230000000  0.5596480000000  0.4354650000000 1.0
C      1  0.5280360000000  0.4107570000000  0.5124990000000 1.0
C      1  0.5256310000000  0.4924410000000  0.5795470000000 1.0
C      1  0.4492050000000  0.4399910000000  0.4769120000000 1.0
C      1  0.4763490000000  0.4691530000000  0.5220900000000 1.0
C      1  0.4170440000000  0.5100790000000  0.4528730000000 1.0
C      1  0.3935240000000  0.5296830000000  0.5183810000000 1.0
C      1  0.4639540000000  0.5622450000000  0.4855580000000 1.0
C      1  0.4737040000000  0.5011930000000  0.4168010000000 1.0
C      1  0.5816460000000  0.4501840000000  0.4622980000000 1.0
C      1  0.5092620000000  0.4833750000000  0.4964600000000 1.0
C      1  0.4857060000000  0.5362430000000  0.4116070000000 1.0
C      1  0.4391380000000  0.4448090000000  0.5023960000000 1.0
C      1  0.5527630000000  0.5393430000000  0.5674070000000 1.0
C      1  0.4509710000000  0.4776620000000  0.5616120000000 1.0
C      1  0.4392820000000  0.4380190000000  0.5303740000000 1.0
C      1  0.5262670000000  0.4743390000000  0.4726770000000 1.0
C      1  0.5268660000000  0.4725190000000  0.5385790000000 1.0
C      1  0.5212950000000  0.4513810000000  0.5197300000000 1.0
C      1  0.4755640000000  0.5584490000000  0.5397560000000 1.0
C      1  0.4732790000000  0.5172200000000  0.5066630000000 1.0
C      1  0.5541520000000  0.4669600000000  0.5519720000000 1.0
C      1  0.5618530000000  0.4724850000000  0.4246990000000 1.0
C      1  0.4817610000000  0.5863460000000  0.5322310000000 1.0
C      1  0.4454110000000  0.5406280000000  0.4245810000000 1.0
C      1  0.4838330000000  0.5465330000000  0.5073660000000 1.0
C      1  0.5869370000000  0.4575340000000  0.4888810000000 1.0
C      1  0.5212880000000  0.4267490000000  0.5582720000000 1.0
C      1  0.5125740000000  0.5313270000000  0.4211500000000 1.0
C      1  0.4690160000000  0.4198580000000  0.4743730000000 1.0
C      1  0.5110790000000  0.4098410000000  0.5359730000000 1.0
C      1  0.4333560000000  0.4683710000000  0.5382750000000 1.0
C      1  0.5235990000000  0.4972340000000  0.5198210000000 1.0
C      1  0.5524060000000  0.4913780000000  0.5690590000000 1.0
C      1  0.5703130000000  0.4487220000000  0.5103080000000 1.0
C      1  0.5718870000000  0.4954090000000  0.5142100000000 1.0
C      1  0.4221890000000  0.5754040000000  0.5104940000000 1.0
C      1  0.5088480000000  0.4213090000000  0.4424720000000 1.0
C      1  0.4984140000000  0.4877610000000  0.4095540000000 1.0
C      1  0.5435630000000  0.5372180000000  0.4989040000000 1.0
C      1  0.4728860000000  0.5300540000000  0.4572240000000 1.0
C      1  0.5117680000000  0.5443240000000  0.4932310000000 1.0
C      1  0.4976040000000  0.4600640000000  0.5070520000000 1.0
C      1  0.5525300000000  0.5435790000000  0.4688540000000 1.0
C      1  0.5579060000000  0.4377130000000  0.4545970000000 1.0
C      1  0.5608990000000  0.5441960000000  0.5227860000000 1.0
C      1  0.4659210000000  0.5027180000000  0.4462710000000 1.0
C      1  0.5714260000000  0.4693310000000  0.5288870000000 1.0
C      1  0.5229270000000  0.5049090000000  0.4084790000000 1.0
C      1  0.4739850000000  0.4500650000000  0.4378970000000 1.0
C      1  0.4399860000000  0.4894300000000  0.4596480000000 1.0
C      1  0.4866030000000  0.5788440000000  0.4697340000000 1.0
C      1  0.4880950000000  0.6017650000000  0.4892270000000 1.0
C      1  0.4105620000000  0.4846400000000  0.5296510000000 1.0
C      1  0.5836790000000  0.4726040000000  0.4446720000000 1.0
C      1  0.5800330000000  0.5423490000000  0.4590860000000 1.0
C      1  0.5457050000000  0.4398750000000  0.5583350000000 1.0
C      1  0.5135280000000  0.5936570000000  0.5005920000000 1.0
C      1  0.5108720000000  0.5881580000000  0.5291520000000 1.0
C      1  0.5079300000000  0.5173570000000  0.5336980000000 1.0
C      1  0.4624940000000  0.4245990000000  0.5425460000000 1.0
C      1  0.4872170000000  0.5580590000000  0.5678860000000 1.0
C      1  0.4076570000000  0.4882210000000  0.5011860000000 1.0
C      1  0.5468210000000  0.5064790000000  0.5018290000000 1.0
C      1  0.4358340000000  0.4920670000000  0.4905330000000 1.0
C      1  0.5430710000000  0.4365700000000  0.5053330000000 1.0
C      1  0.4305020000000  0.5345580000000  0.4467630000000 1.0
C      1  0.5500940000000  0.4970880000000  0.4146780000000 1.0
C      1  0.4829890000000  0.4102790000000  0.5266440000000 1.0
C      1  0.5166850000000  0.5165560000000  0.5918430000000 1.0
C      1  0.4108530000000  0.5125860000000  0.5345140000000 1.0
C      1  0.5114300000000  0.4054090000000  0.4902950000000 1.0
C      1  0.4684760000000  0.5988100000000  0.5096910000000 1.0
C      1  0.4497710000000  0.5383450000000  0.4733180000000 1.0
C      1  0.6156430000000  0.4991830000000  0.5078320000000 1.0
C      1  0.5214010000000  0.4183880000000  0.4671700000000 1.0
C      1  0.3910800000000  0.5110200000000  0.4961680000000 1.0
C      1  0.5470470000000  0.4945430000000  0.4743260000000 1.0
END
