TITL C-231498-4238-10 -0.26747067299714 125000 -755.156597367128 0 0 110 (C1) n - 1
REM
REM in /rds/project/t2_vol4/rds-t2-cs072/BORA/CARBON/from-Arr/AIRSS/Generating-Clusters/GAP-ML-2020/Only-C1/SD-CG/HFTN-CG
REM
REM
REM
REM
REM
REM ./C.cell (11c1c37f851c82e70ff6c80c92926a4b)
REM AIRSS Version 0.9.1 bugfix July 2018 build 013d7b7c2542+ Fri, 06 Jul 2018 19:26:36 +0100
REM compiler GCC version 9.3.0
REM options -cpp -mtune=generic -march=x86-64 -g -O0
REM seed -436320695 2092813125 -2104872266 -1496897208 -1132906938 -2089711220 -293334993 -1148675145 505528077 1583601203 -711477958 1562514110 -1156429800 -506316544 1926978496 -525390198 344583662 -1305413687 686690492 -811170594 -1281307011 -1716047595 1388184549 1408902149 1613769339 -377516340 -724024179 1789884022 1200122655 1043852066 109019096 1174613016 1623204587
REM
CELL 1.54180   50.00000   50.00000   50.00000   90.00000   90.00000   90.00000
LATT -1
SFAC C  
C      1  0.4930070000000  0.4404240000000  0.5657900000000 1.0
C      1  0.5158810000000  0.4352970000000  0.5449150000000 1.0
C      1  0.4777480000000  0.4194870000000  0.4669290000000 1.0
C      1  0.4550960000000  0.4756910000000  0.5254880000000 1.0
C      1  0.4186900000000  0.5210950000000  0.5534730000000 1.0
C      1  0.4919570000000  0.4704400000000  0.4805430000000 1.0
C      1  0.4688760000000  0.4500950000000  0.4281290000000 1.0
C      1  0.4801100000000  0.4924150000000  0.5539360000000 1.0
C      1  0.5031620000000  0.4538770000000  0.5244450000000 1.0
C      1  0.5930820000000  0.5133980000000  0.5207540000000 1.0
C      1  0.4669620000000  0.4378640000000  0.5531180000000 1.0
C      1  0.5703370000000  0.5658860000000  0.4532700000000 1.0
C      1  0.4861360000000  0.4964910000000  0.4967740000000 1.0
C      1  0.5110850000000  0.4453280000000  0.4419660000000 1.0
C      1  0.4201260000000  0.5164230000000  0.4799360000000 1.0
C      1  0.5088760000000  0.4735280000000  0.4557330000000 1.0
C      1  0.4880010000000  0.4676350000000  0.4154800000000 1.0
C      1  0.5673320000000  0.5814410000000  0.4968610000000 1.0
C      1  0.4850320000000  0.5677570000000  0.5332890000000 1.0
C      1  0.5183280000000  0.5100230000000  0.4262160000000 1.0
C      1  0.4388620000000  0.5059430000000  0.5677090000000 1.0
C      1  0.5263340000000  0.4135070000000  0.5272430000000 1.0
C      1  0.4528210000000  0.4212740000000  0.5319020000000 1.0
C      1  0.4262760000000  0.4392220000000  0.4800030000000 1.0
C      1  0.5823060000000  0.5573420000000  0.4983880000000 1.0
C      1  0.4919300000000  0.4903420000000  0.5815470000000 1.0
C      1  0.4513470000000  0.4820990000000  0.5539860000000 1.0
C      1  0.5639640000000  0.4874890000000  0.5542860000000 1.0
C      1  0.4184630000000  0.4850640000000  0.4762360000000 1.0
C      1  0.4882520000000  0.5204980000000  0.5386250000000 1.0
C      1  0.4761220000000  0.5411440000000  0.5211990000000 1.0
C      1  0.5409590000000  0.4185920000000  0.5035780000000 1.0
C      1  0.5633130000000  0.5239750000000  0.4392000000000 1.0
C      1  0.4366310000000  0.5289270000000  0.4610750000000 1.0
C      1  0.4827560000000  0.5358240000000  0.5790100000000 1.0
C      1  0.4823910000000  0.5195010000000  0.4798330000000 1.0
C      1  0.5678990000000  0.5358310000000  0.5462680000000 1.0
C      1  0.4922850000000  0.5744060000000  0.4887460000000 1.0
C      1  0.4639510000000  0.4617090000000  0.4718940000000 1.0
C      1  0.4063610000000  0.4726720000000  0.5015350000000 1.0
C      1  0.4561710000000  0.4957440000000  0.5057320000000 1.0
C      1  0.5170900000000  0.5838890000000  0.5033280000000 1.0
C      1  0.5791050000000  0.5086010000000  0.5457300000000 1.0
C      1  0.4163240000000  0.4454800000000  0.5063560000000 1.0
C      1  0.5299030000000  0.4674050000000  0.5768360000000 1.0
C      1  0.4456240000000  0.5443380000000  0.5209050000000 1.0
C      1  0.4924500000000  0.5711020000000  0.4590060000000 1.0
C      1  0.5973690000000  0.4953310000000  0.5000430000000 1.0
C      1  0.4912670000000  0.5423510000000  0.4949270000000 1.0
C      1  0.4815440000000  0.5376450000000  0.4278110000000 1.0
C      1  0.4717640000000  0.5815020000000  0.5094310000000 1.0
C      1  0.5296150000000  0.5565390000000  0.4260670000000 1.0
C      1  0.5566970000000  0.4644760000000  0.5393150000000 1.0
C      1  0.5381380000000  0.5101900000000  0.4478330000000 1.0
C      1  0.4420140000000  0.4529380000000  0.5561420000000 1.0
C      1  0.4677060000000  0.4278470000000  0.5074000000000 1.0
C      1  0.4547940000000  0.4332510000000  0.4809360000000 1.0
C      1  0.5595780000000  0.5868020000000  0.4694940000000 1.0
C      1  0.4557290000000  0.5298340000000  0.5717760000000 1.0
C      1  0.4736130000000  0.5113230000000  0.4353530000000 1.0
C      1  0.4010250000000  0.4874040000000  0.5229860000000 1.0
C      1  0.4485720000000  0.4861440000000  0.4787620000000 1.0
C      1  0.4457270000000  0.5713690000000  0.5053220000000 1.0
C      1  0.4866340000000  0.4308080000000  0.4431590000000 1.0
C      1  0.5852770000000  0.5481210000000  0.4704500000000 1.0
C      1  0.5803150000000  0.4707790000000  0.4709150000000 1.0
C      1  0.4950550000000  0.5470980000000  0.5560090000000 1.0
C      1  0.5562180000000  0.4671690000000  0.5096610000000 1.0
C      1  0.5025640000000  0.4632050000000  0.5818370000000 1.0
C      1  0.5097540000000  0.5371620000000  0.4208510000000 1.0
C      1  0.5434010000000  0.4917920000000  0.4947710000000 1.0
C      1  0.5052720000000  0.5026760000000  0.5202750000000 1.0
C      1  0.5418000000000  0.5912210000000  0.4925730000000 1.0
C      1  0.5220420000000  0.5581960000000  0.5518890000000 1.0
C      1  0.4592870000000  0.5107200000000  0.4610760000000 1.0
C      1  0.5415030000000  0.4468820000000  0.4918760000000 1.0
C      1  0.5297050000000  0.5123590000000  0.5081880000000 1.0
C      1  0.5178710000000  0.5588380000000  0.4516980000000 1.0
C      1  0.5382710000000  0.4506290000000  0.5557600000000 1.0
C      1  0.5362840000000  0.4843480000000  0.4643180000000 1.0
C      1  0.4322040000000  0.5196410000000  0.5080130000000 1.0
C      1  0.4230230000000  0.4602000000000  0.4587530000000 1.0
C      1  0.4380880000000  0.5714240000000  0.4795510000000 1.0
C      1  0.5042050000000  0.5155740000000  0.5859270000000 1.0
C      1  0.5131000000000  0.5753400000000  0.5303450000000 1.0
C      1  0.5283760000000  0.5354910000000  0.4666160000000 1.0
C      1  0.4385740000000  0.5421320000000  0.5509570000000 1.0
C      1  0.5854200000000  0.5217380000000  0.4579150000000 1.0
C      1  0.5144360000000  0.4535740000000  0.4140800000000 1.0
C      1  0.5384590000000  0.4619480000000  0.4100740000000 1.0
C      1  0.5433020000000  0.5408990000000  0.5598160000000 1.0
C      1  0.5093710000000  0.4497120000000  0.4954430000000 1.0
C      1  0.5316590000000  0.5180360000000  0.5758780000000 1.0
C      1  0.5542580000000  0.4602240000000  0.4656490000000 1.0
C      1  0.5211920000000  0.5344460000000  0.4925780000000 1.0
C      1  0.4957060000000  0.4917210000000  0.4311830000000 1.0
C      1  0.5922720000000  0.4974360000000  0.4708670000000 1.0
C      1  0.5032980000000  0.4798850000000  0.5371560000000 1.0
C      1  0.5436920000000  0.4924730000000  0.5737980000000 1.0
C      1  0.4451990000000  0.5557800000000  0.4581040000000 1.0
C      1  0.5159850000000  0.4057700000000  0.5024160000000 1.0
C      1  0.4103570000000  0.5119510000000  0.5280340000000 1.0
C      1  0.4712550000000  0.5586520000000  0.4449700000000 1.0
C      1  0.4485770000000  0.4591130000000  0.4445510000000 1.0
C      1  0.5830730000000  0.5410770000000  0.5212080000000 1.0
C      1  0.4741310000000  0.4520850000000  0.5239210000000 1.0
C      1  0.5841610000000  0.4695980000000  0.4995640000000 1.0
C      1  0.4295810000000  0.4380480000000  0.5320250000000 1.0
C      1  0.5569070000000  0.5509080000000  0.4326080000000 1.0
C      1  0.4940220000000  0.4216610000000  0.4918930000000 1.0
END
