TITL C-23829-9558-5 105.640697684371 125000 -1085.89462854731 0 0 156 (C1) n - 1
REM
REM in /rds/project/t2_vol4/rds-t2-cs072/BORA/CARBON/from-Arr/AIRSS/Generating-Clusters/GAP-ML-2020/Only-C1/SD-CG/HFTN-CG
REM
REM
REM
REM
REM
REM ./C.cell (11c1c37f851c82e70ff6c80c92926a4b)
REM AIRSS Version 0.9.1 bugfix July 2018 build 013d7b7c2542+ Fri, 06 Jul 2018 19:26:36 +0100
REM compiler GCC version 9.3.0
REM options -cpp -mtune=generic -march=x86-64 -g -O0
REM seed -740787941 165320968 2071757990 -283637307 -1843580580 433577182 -134674620 1872788778 -555466724 -314906996 1663590260 -1365140598 -1246058396 893345400 925333231 -130562970 -1699502782 -1477553234 -1127007961 -489859959 -576785831 -1125895340 796683650 1535042742 -2077795770 526419635 1677446668 -1895324581 -1857452943 -1548071010 -361223276 -1715128790 432627497
REM
CELL 1.54180   50.00000   50.00000   50.00000   90.00000   90.00000   90.00000
LATT -1
SFAC C  
C      1  0.4950160000000  0.4298140000000  0.4157700000000 1.0
C      1  0.4512130000000  0.4842220000000  0.4188010000000 1.0
C      1  0.5042620000000  0.4911190000000  0.4486890000000 1.0
C      1  0.5429350000000  0.5507890000000  0.5423030000000 1.0
C      1  0.5535600000000  0.4444070000000  0.4451070000000 1.0
C      1  0.4807430000000  0.5551710000000  0.4999500000000 1.0
C      1  0.4806690000000  0.4478950000000  0.5536500000000 1.0
C      1  0.4646980000000  0.5309280000000  0.4619360000000 1.0
C      1  0.4823600000000  0.4009130000000  0.4554920000000 1.0
C      1  0.4035760000000  0.5235160000000  0.5166150000000 1.0
C      1  0.5202650000000  0.4045220000000  0.5402450000000 1.0
C      1  0.5587550000000  0.5921160000000  0.5211980000000 1.0
C      1  0.4156680000000  0.4583630000000  0.4807020000000 1.0
C      1  0.5291020000000  0.5316520000000  0.4870330000000 1.0
C      1  0.5633480000000  0.4863220000000  0.4231990000000 1.0
C      1  0.4330310000000  0.4254740000000  0.4540290000000 1.0
C      1  0.4626220000000  0.5728270000000  0.5426500000000 1.0
C      1  0.4797430000000  0.5855310000000  0.5029010000000 1.0
C      1  0.5385200000000  0.5574510000000  0.4928020000000 1.0
C      1  0.5473560000000  0.4428510000000  0.5651040000000 1.0
C      1  0.5130560000000  0.5158730000000  0.4416040000000 1.0
C      1  0.5383600000000  0.4890600000000  0.4097620000000 1.0
C      1  0.5706980000000  0.5368960000000  0.5364210000000 1.0
C      1  0.5963490000000  0.5285220000000  0.4972340000000 1.0
C      1  0.4548920000000  0.4731680000000  0.5264830000000 1.0
C      1  0.4468510000000  0.4646330000000  0.4411010000000 1.0
C      1  0.4415320000000  0.4170930000000  0.4801930000000 1.0
C      1  0.5380950000000  0.4869650000000  0.4868930000000 1.0
C      1  0.4910430000000  0.5016710000000  0.4948670000000 1.0
C      1  0.4165720000000  0.5432120000000  0.5681580000000 1.0
C      1  0.5286920000000  0.5175750000000  0.4152310000000 1.0
C      1  0.5105490000000  0.4007880000000  0.4605250000000 1.0
C      1  0.4709500000000  0.5775740000000  0.4363560000000 1.0
C      1  0.5062130000000  0.4645990000000  0.4616820000000 1.0
C      1  0.5386360000000  0.4432370000000  0.4188240000000 1.0
C      1  0.5083860000000  0.5254470000000  0.5097820000000 1.0
C      1  0.3996530000000  0.4746250000000  0.5362580000000 1.0
C      1  0.4124110000000  0.4747040000000  0.5611170000000 1.0
C      1  0.4220580000000  0.4519440000000  0.4539850000000 1.0
C      1  0.4041940000000  0.5316030000000  0.4895600000000 1.0
C      1  0.5862990000000  0.5177890000000  0.5523810000000 1.0
C      1  0.4248710000000  0.5186370000000  0.4476080000000 1.0
C      1  0.5241550000000  0.5224370000000  0.5364600000000 1.0
C      1  0.5551770000000  0.5323240000000  0.4219900000000 1.0
C      1  0.4234080000000  0.5691890000000  0.5031240000000 1.0
C      1  0.4910910000000  0.4985400000000  0.3913220000000 1.0
C      1  0.4775430000000  0.4194440000000  0.5149730000000 1.0
C      1  0.4362590000000  0.5453180000000  0.4574270000000 1.0
C      1  0.4837170000000  0.3943890000000  0.5044540000000 1.0
C      1  0.5254120000000  0.4787840000000  0.5559760000000 1.0
C      1  0.5305570000000  0.4042730000000  0.4408170000000 1.0
C      1  0.4846720000000  0.4984320000000  0.5425820000000 1.0
C      1  0.5724250000000  0.4674560000000  0.4426140000000 1.0
C      1  0.5898230000000  0.4828300000000  0.4606800000000 1.0
C      1  0.4935580000000  0.4385780000000  0.4967310000000 1.0
C      1  0.4672450000000  0.4005750000000  0.4801230000000 1.0
C      1  0.5394560000000  0.4690930000000  0.5822020000000 1.0
C      1  0.4956520000000  0.4499510000000  0.5965420000000 1.0
C      1  0.4907650000000  0.5623200000000  0.5743300000000 1.0
C      1  0.5927680000000  0.5329040000000  0.4688210000000 1.0
C      1  0.5545700000000  0.4143390000000  0.4527220000000 1.0
C      1  0.4773800000000  0.4723490000000  0.6004100000000 1.0
C      1  0.4522670000000  0.4333470000000  0.4352170000000 1.0
C      1  0.5078360000000  0.5953010000000  0.5401710000000 1.0
C      1  0.4811370000000  0.5923880000000  0.5301190000000 1.0
C      1  0.4181910000000  0.5548960000000  0.4809580000000 1.0
C      1  0.5298060000000  0.4477200000000  0.4699890000000 1.0
C      1  0.5185980000000  0.4674740000000  0.6021470000000 1.0
C      1  0.5608950000000  0.4460540000000  0.5138730000000 1.0
C      1  0.4963520000000  0.4572990000000  0.4056010000000 1.0
C      1  0.5777090000000  0.5559370000000  0.4600310000000 1.0
C      1  0.5495190000000  0.4870800000000  0.5411510000000 1.0
C      1  0.5305860000000  0.4019360000000  0.4914960000000 1.0
C      1  0.4088780000000  0.5090100000000  0.4701320000000 1.0
C      1  0.5493050000000  0.5113950000000  0.5259490000000 1.0
C      1  0.4209360000000  0.5368970000000  0.5387780000000 1.0
C      1  0.4379430000000  0.4962200000000  0.5207020000000 1.0
C      1  0.4448890000000  0.5319500000000  0.5960990000000 1.0
C      1  0.4303330000000  0.4384460000000  0.4974450000000 1.0
C      1  0.5221840000000  0.5984090000000  0.4886450000000 1.0
C      1  0.5503510000000  0.5222210000000  0.5899090000000 1.0
C      1  0.5151870000000  0.4236460000000  0.4801330000000 1.0
C      1  0.4375530000000  0.5570930000000  0.4095330000000 1.0
C      1  0.4829220000000  0.5418900000000  0.4052060000000 1.0
C      1  0.5332530000000  0.5454570000000  0.5886540000000 1.0
C      1  0.4577720000000  0.4868560000000  0.5823980000000 1.0
C      1  0.5113560000000  0.4904440000000  0.4762650000000 1.0
C      1  0.5760420000000  0.5759900000000  0.5068570000000 1.0
C      1  0.5164150000000  0.5745900000000  0.4267040000000 1.0
C      1  0.5054720000000  0.5426660000000  0.5917130000000 1.0
C      1  0.5988990000000  0.5007440000000  0.5072430000000 1.0
C      1  0.4658790000000  0.5049920000000  0.4779910000000 1.0
C      1  0.5755260000000  0.4751960000000  0.5439730000000 1.0
C      1  0.4069540000000  0.4849430000000  0.4861290000000 1.0
C      1  0.4616540000000  0.4750160000000  0.4682450000000 1.0
C      1  0.4540750000000  0.5346100000000  0.4110000000000 1.0
C      1  0.5013360000000  0.5507160000000  0.5208810000000 1.0
C      1  0.5245690000000  0.4649600000000  0.4065090000000 1.0
C      1  0.5733510000000  0.5120940000000  0.4290800000000 1.0
C      1  0.4833340000000  0.5493480000000  0.5457640000000 1.0
C      1  0.5582290000000  0.4086520000000  0.4804410000000 1.0
C      1  0.5300180000000  0.5950330000000  0.5186880000000 1.0
C      1  0.4634450000000  0.4314190000000  0.5354280000000 1.0
C      1  0.5218120000000  0.4209910000000  0.4199770000000 1.0
C      1  0.4998890000000  0.4896910000000  0.6048450000000 1.0
C      1  0.5405650000000  0.5822220000000  0.4725580000000 1.0
C      1  0.4667130000000  0.5141540000000  0.5908960000000 1.0
C      1  0.4591500000000  0.5376320000000  0.5124650000000 1.0
C      1  0.4609460000000  0.5713400000000  0.5722250000000 1.0
C      1  0.4855360000000  0.4820940000000  0.5162650000000 1.0
C      1  0.5650160000000  0.4487770000000  0.5434600000000 1.0
C      1  0.5219550000000  0.4275760000000  0.5576930000000 1.0
C      1  0.4760940000000  0.4783000000000  0.4022250000000 1.0
C      1  0.4752950000000  0.4180260000000  0.4328440000000 1.0
C      1  0.5028350000000  0.5220700000000  0.3984410000000 1.0
C      1  0.4390960000000  0.5570360000000  0.5814820000000 1.0
C      1  0.4947050000000  0.5959190000000  0.4815190000000 1.0
C      1  0.5105140000000  0.4546720000000  0.5428410000000 1.0
C      1  0.5376380000000  0.5748050000000  0.4431690000000 1.0
C      1  0.4073560000000  0.4933610000000  0.5146000000000 1.0
C      1  0.4848810000000  0.5795790000000  0.4602520000000 1.0
C      1  0.4913280000000  0.5664570000000  0.4186000000000 1.0
C      1  0.4395620000000  0.4459140000000  0.5252630000000 1.0
C      1  0.5116380000000  0.5795230000000  0.5632800000000 1.0
C      1  0.5353880000000  0.5641270000000  0.5670640000000 1.0
C      1  0.5361440000000  0.4608520000000  0.4986400000000 1.0
C      1  0.5092020000000  0.5046290000000  0.5567860000000 1.0
C      1  0.4960260000000  0.4334980000000  0.5748600000000 1.0
C      1  0.4211060000000  0.5198770000000  0.5855650000000 1.0
C      1  0.4487780000000  0.5140480000000  0.4995570000000 1.0
C      1  0.4399460000000  0.5136920000000  0.5452100000000 1.0
C      1  0.4682430000000  0.5236910000000  0.5397460000000 1.0
C      1  0.5742690000000  0.4275010000000  0.4943120000000 1.0
C      1  0.5116320000000  0.5346260000000  0.4631290000000 1.0
C      1  0.4823610000000  0.4561440000000  0.4747300000000 1.0
C      1  0.4388940000000  0.5580820000000  0.5248480000000 1.0
C      1  0.5142920000000  0.3945750000000  0.5150280000000 1.0
C      1  0.5684300000000  0.5754440000000  0.4788840000000 1.0
C      1  0.5735760000000  0.5121830000000  0.5774910000000 1.0
C      1  0.5076570000000  0.4585660000000  0.5138590000000 1.0
C      1  0.5475720000000  0.5106680000000  0.4961810000000 1.0
C      1  0.4451970000000  0.5638830000000  0.4347210000000 1.0
C      1  0.4301810000000  0.4955120000000  0.5719050000000 1.0
C      1  0.5555830000000  0.4942880000000  0.5897000000000 1.0
C      1  0.5588590000000  0.5554530000000  0.4382810000000 1.0
C      1  0.4865220000000  0.5491650000000  0.4706150000000 1.0
C      1  0.5940760000000  0.4957360000000  0.5349700000000 1.0
C      1  0.4165730000000  0.4533020000000  0.5438080000000 1.0
C      1  0.5955040000000  0.4775610000000  0.4883260000000 1.0
C      1  0.5855470000000  0.5490610000000  0.5150830000000 1.0
C      1  0.4960940000000  0.5149630000000  0.5892540000000 1.0
C      1  0.5298470000000  0.5648650000000  0.5192090000000 1.0
C      1  0.5860880000000  0.4520470000000  0.4964240000000 1.0
C      1  0.4676990000000  0.4758320000000  0.5551560000000 1.0
C      1  0.5902090000000  0.5102650000000  0.4519070000000 1.0
C      1  0.4415880000000  0.5103700000000  0.4240940000000 1.0
END
