TITL C-23832-9602-7 0.14816783116779 125000 -779.909262443566 0 0 111 (C1) n - 1
REM
REM in /rds/project/t2_vol4/rds-t2-cs072/BORA/CARBON/from-Arr/AIRSS/Generating-Clusters/GAP-ML-2020/Only-C1/SD-CG/HFTN-CG
REM
REM
REM
REM
REM
REM ./C.cell (11c1c37f851c82e70ff6c80c92926a4b)
REM AIRSS Version 0.9.1 bugfix July 2018 build 013d7b7c2542+ Fri, 06 Jul 2018 19:26:36 +0100
REM compiler GCC version 9.3.0
REM options -cpp -mtune=generic -march=x86-64 -g -O0
REM seed 941926275 -2048748005 854966455 527746666 298062017 -1322220454 503219281 -1248597816 1752611354 279153428 -330491419 -519022859 772301092 596816429 1296434097 1364390957 365373543 -1866838110 -1991571107 390398763 356048109 -662674293 2022114953 307130476 -1268933851 985593412 -793209590 1913590683 971154790 1658027063 480390998 -105347428 -1761557011
REM
CELL 1.54180   50.00000   50.00000   50.00000   90.00000   90.00000   90.00000
LATT -1
SFAC C  
C      1  0.4816930000000  0.5918250000000  0.5371330000000 1.0
C      1  0.4491830000000  0.5102480000000  0.4326710000000 1.0
C      1  0.5082810000000  0.4122150000000  0.5108480000000 1.0
C      1  0.4814430000000  0.4605820000000  0.4685070000000 1.0
C      1  0.4420330000000  0.4840060000000  0.5684240000000 1.0
C      1  0.5777990000000  0.4880440000000  0.4591320000000 1.0
C      1  0.5045460000000  0.4228030000000  0.4434290000000 1.0
C      1  0.5073880000000  0.5553030000000  0.4817580000000 1.0
C      1  0.4786540000000  0.4729270000000  0.5848920000000 1.0
C      1  0.4669530000000  0.5095630000000  0.5266730000000 1.0
C      1  0.4499420000000  0.5642930000000  0.4556260000000 1.0
C      1  0.5545180000000  0.5770110000000  0.4735400000000 1.0
C      1  0.4410480000000  0.5544840000000  0.4812990000000 1.0
C      1  0.5852440000000  0.5127930000000  0.4716590000000 1.0
C      1  0.5231270000000  0.5902060000000  0.5116660000000 1.0
C      1  0.5241120000000  0.4540720000000  0.5697840000000 1.0
C      1  0.4169720000000  0.5138880000000  0.5061460000000 1.0
C      1  0.4102650000000  0.4861190000000  0.5042810000000 1.0
C      1  0.4870260000000  0.4098330000000  0.4629480000000 1.0
C      1  0.5457270000000  0.4970440000000  0.5009110000000 1.0
C      1  0.5810350000000  0.4683580000000  0.4812750000000 1.0
C      1  0.4770570000000  0.5895610000000  0.4856860000000 1.0
C      1  0.5043060000000  0.4768540000000  0.5057730000000 1.0
C      1  0.4688530000000  0.5278840000000  0.4222080000000 1.0
C      1  0.5500270000000  0.5339620000000  0.5733500000000 1.0
C      1  0.5124720000000  0.5538500000000  0.4517230000000 1.0
C      1  0.4299600000000  0.4790040000000  0.4607080000000 1.0
C      1  0.4473380000000  0.5299470000000  0.5409970000000 1.0
C      1  0.4888230000000  0.5032680000000  0.5436890000000 1.0
C      1  0.4582990000000  0.4830860000000  0.5186120000000 1.0
C      1  0.4431670000000  0.4650340000000  0.4392570000000 1.0
C      1  0.4597760000000  0.4340830000000  0.5583360000000 1.0
C      1  0.5070930000000  0.4736360000000  0.5840420000000 1.0
C      1  0.5420530000000  0.5630190000000  0.4512360000000 1.0
C      1  0.5269750000000  0.4277790000000  0.5264730000000 1.0
C      1  0.5091490000000  0.4672210000000  0.4248410000000 1.0
C      1  0.4614760000000  0.4208590000000  0.4620260000000 1.0
C      1  0.5902990000000  0.4819120000000  0.5055740000000 1.0
C      1  0.4655240000000  0.4466480000000  0.4451010000000 1.0
C      1  0.4288800000000  0.5277350000000  0.4833840000000 1.0
C      1  0.5815950000000  0.4793140000000  0.5324140000000 1.0
C      1  0.5587870000000  0.4888270000000  0.5711430000000 1.0
C      1  0.5499790000000  0.5179590000000  0.4296550000000 1.0
C      1  0.5338880000000  0.5560490000000  0.5766890000000 1.0
C      1  0.4422580000000  0.5068120000000  0.4627650000000 1.0
C      1  0.5498350000000  0.4634790000000  0.5624260000000 1.0
C      1  0.4782610000000  0.4651630000000  0.5133830000000 1.0
C      1  0.4228760000000  0.5171430000000  0.5354500000000 1.0
C      1  0.5325880000000  0.4686140000000  0.4981030000000 1.0
C      1  0.5778070000000  0.5058930000000  0.4983270000000 1.0
C      1  0.5053930000000  0.5858780000000  0.4900890000000 1.0
C      1  0.5605250000000  0.5470240000000  0.5297570000000 1.0
C      1  0.5164210000000  0.5003680000000  0.4614570000000 1.0
C      1  0.4422160000000  0.4282000000000  0.5358990000000 1.0
C      1  0.5411600000000  0.5080370000000  0.5825790000000 1.0
C      1  0.4834400000000  0.4099970000000  0.5255360000000 1.0
C      1  0.4214530000000  0.4911680000000  0.5493380000000 1.0
C      1  0.5329890000000  0.5085040000000  0.5255820000000 1.0
C      1  0.5130520000000  0.5240530000000  0.4416630000000 1.0
C      1  0.4612150000000  0.5687070000000  0.5014770000000 1.0
C      1  0.4902600000000  0.5163320000000  0.5701360000000 1.0
C      1  0.4883670000000  0.5454480000000  0.5596090000000 1.0
C      1  0.5136530000000  0.5014300000000  0.5841530000000 1.0
C      1  0.5242220000000  0.4272480000000  0.4636740000000 1.0
C      1  0.5113750000000  0.5654090000000  0.5659600000000 1.0
C      1  0.5600070000000  0.5418330000000  0.4431000000000 1.0
C      1  0.5030600000000  0.5504980000000  0.5285890000000 1.0
C      1  0.4887660000000  0.5695850000000  0.4414300000000 1.0
C      1  0.5329900000000  0.5136150000000  0.4812090000000 1.0
C      1  0.4497410000000  0.4848910000000  0.4198090000000 1.0
C      1  0.4710620000000  0.5062580000000  0.4782610000000 1.0
C      1  0.5804100000000  0.5391240000000  0.4633790000000 1.0
C      1  0.4660000000000  0.4986810000000  0.5796660000000 1.0
C      1  0.5569110000000  0.4906580000000  0.4398950000000 1.0
C      1  0.4610180000000  0.5527420000000  0.5495500000000 1.0
C      1  0.5103000000000  0.4934500000000  0.5287180000000 1.0
C      1  0.4218410000000  0.4450480000000  0.5236590000000 1.0
C      1  0.5291430000000  0.5389430000000  0.4921460000000 1.0
C      1  0.5693840000000  0.5299070000000  0.5514200000000 1.0
C      1  0.5487190000000  0.5846640000000  0.5015630000000 1.0
C      1  0.5627230000000  0.4583500000000  0.5372680000000 1.0
C      1  0.5756300000000  0.5010380000000  0.5513350000000 1.0
C      1  0.5084630000000  0.4108920000000  0.4827730000000 1.0
C      1  0.4167930000000  0.4680170000000  0.4830640000000 1.0
C      1  0.5767200000000  0.5601060000000  0.4824400000000 1.0
C      1  0.4676990000000  0.4805420000000  0.3997980000000 1.0
C      1  0.4497290000000  0.4273740000000  0.4891340000000 1.0
C      1  0.4665980000000  0.5528960000000  0.4335780000000 1.0
C      1  0.5317620000000  0.4750430000000  0.4457890000000 1.0
C      1  0.5700250000000  0.5655340000000  0.5104550000000 1.0
C      1  0.4711520000000  0.4495460000000  0.4914260000000 1.0
C      1  0.5140430000000  0.4333340000000  0.5522260000000 1.0
C      1  0.4606890000000  0.5753410000000  0.5312810000000 1.0
C      1  0.5306850000000  0.5378890000000  0.5220040000000 1.0
C      1  0.5476850000000  0.4466850000000  0.5150890000000 1.0
C      1  0.4128230000000  0.4721180000000  0.5296420000000 1.0
C      1  0.4244350000000  0.4425310000000  0.4953090000000 1.0
C      1  0.4926260000000  0.4872570000000  0.4754550000000 1.0
C      1  0.4861620000000  0.5474310000000  0.5023280000000 1.0
C      1  0.5622860000000  0.4483310000000  0.4845870000000 1.0
C      1  0.4957900000000  0.5150760000000  0.4160320000000 1.0
C      1  0.4766720000000  0.5209100000000  0.5015790000000 1.0
C      1  0.5256030000000  0.5214190000000  0.4162640000000 1.0
C      1  0.4929610000000  0.4866500000000  0.4113140000000 1.0
C      1  0.4716390000000  0.5839770000000  0.4592550000000 1.0
C      1  0.5375580000000  0.4529990000000  0.4678070000000 1.0
C      1  0.4562610000000  0.4584510000000  0.5732970000000 1.0
C      1  0.4924930000000  0.4442560000000  0.4306690000000 1.0
C      1  0.4566130000000  0.4141300000000  0.5155830000000 1.0
C      1  0.5077990000000  0.5808950000000  0.5373740000000 1.0
C      1  0.4864010000000  0.4230730000000  0.5505690000000 1.0
END
