TITL C-23825-9551-3 -369.565674923486 125000 -181.029262292224 0 0 27 (C1) n - 1
REM
REM in /rds/project/t2_vol4/rds-t2-cs072/BORA/CARBON/from-Arr/AIRSS/Generating-Clusters/GAP-ML-2020/Only-C1/SD-CG/HFTN-CG
REM
REM
REM
REM
REM
REM ./C.cell (11c1c37f851c82e70ff6c80c92926a4b)
REM AIRSS Version 0.9.1 bugfix July 2018 build 013d7b7c2542+ Fri, 06 Jul 2018 19:26:36 +0100
REM compiler GCC version 9.3.0
REM options -cpp -mtune=generic -march=x86-64 -g -O0
REM seed -1478328289 1840583575 280058136 -1552707969 -284733722 1132795639 1517905429 1943496111 1878587273 1468321475 1943288708 325651835 -744350977 -966011436 1824062457 -76673067 -562872914 -1613674947 122959828 2131684860 1253652393 2076146492 1112934089 575760614 -665407879 566122092 -1840256360 1483546138 1607909885 637324855 1198388973 -340976160 893386016
REM
CELL 1.54180   50.00000   50.00000   50.00000   90.00000   90.00000   90.00000
LATT -1
SFAC C  
C      1  0.4749590000000  0.4872580000000  0.4572050000000 1.0
C      1  0.4678060000000  0.5020760000000  0.5287550000000 1.0
C      1  0.5288370000000  0.4344880000000  0.5195720000000 1.0
C      1  0.5312030000000  0.5156540000000  0.5308030000000 1.0
C      1  0.4749620000000  0.5409740000000  0.5006350000000 1.0
C      1  0.5525730000000  0.4733220000000  0.5092720000000 1.0
C      1  0.4655610000000  0.4860500000000  0.5049610000000 1.0
C      1  0.4954890000000  0.4650650000000  0.5336670000000 1.0
C      1  0.5456980000000  0.4946980000000  0.5219770000000 1.0
C      1  0.4719530000000  0.5305280000000  0.5268320000000 1.0
C      1  0.5148500000000  0.4466280000000  0.5375300000000 1.0
C      1  0.5079840000000  0.5118660000000  0.5495360000000 1.0
C      1  0.5067670000000  0.5413310000000  0.4671870000000 1.0
C      1  0.4648200000000  0.5271940000000  0.4784110000000 1.0
C      1  0.4863080000000  0.4658240000000  0.5062750000000 1.0
C      1  0.5017580000000  0.4768810000000  0.4620400000000 1.0
C      1  0.4897000000000  0.4905590000000  0.5443820000000 1.0
C      1  0.5121270000000  0.5006370000000  0.4456800000000 1.0
C      1  0.5321830000000  0.4554970000000  0.5020250000000 1.0
C      1  0.4808980000000  0.5333130000000  0.4560080000000 1.0
C      1  0.5170760000000  0.5406800000000  0.5202640000000 1.0
C      1  0.5246330000000  0.5247670000000  0.4531880000000 1.0
C      1  0.5069100000000  0.4628620000000  0.4865700000000 1.0
C      1  0.4962540000000  0.5367620000000  0.5405670000000 1.0
C      1  0.5029470000000  0.5471930000000  0.4954660000000 1.0
C      1  0.4613290000000  0.4984860000000  0.4800000000000 1.0
C      1  0.4844150000000  0.5094060000000  0.4411910000000 1.0
END
