TITL C-23835-9671-6 3.15836528053416 125000 -705.526524721018 0 0 103 (C1) n - 1
REM
REM in /rds/project/t2_vol4/rds-t2-cs072/BORA/CARBON/from-Arr/AIRSS/Generating-Clusters/GAP-ML-2020/Only-C1/SD-CG/HFTN-CG
REM
REM
REM
REM
REM
REM ./C.cell (11c1c37f851c82e70ff6c80c92926a4b)
REM AIRSS Version 0.9.1 bugfix July 2018 build 013d7b7c2542+ Fri, 06 Jul 2018 19:26:36 +0100
REM compiler GCC version 9.3.0
REM options -cpp -mtune=generic -march=x86-64 -g -O0
REM seed -866457560 -749622064 1541363056 -1320024728 -278554360 196455054 -1323271011 1343662542 -1878964382 -796358100 -341073455 -2034047576 -1528262206 964837154 -1571058315 77835222 -239773389 -288431891 -1669325830 -3207716 -573719901 -914447651 1447354151 -1231435740 1062260868 873902995 1581054583 852612755 923211443 1043699592 515742592 -701893351 -1710194213
REM
CELL 1.54180   50.00000   50.00000   50.00000   90.00000   90.00000   90.00000
LATT -1
SFAC C  
C      1  0.4221420000000  0.5439710000000  0.5405970000000 1.0
C      1  0.5915540000000  0.4880750000000  0.4761360000000 1.0
C      1  0.5736050000000  0.4610330000000  0.5104230000000 1.0
C      1  0.4420220000000  0.5098940000000  0.5669030000000 1.0
C      1  0.5649370000000  0.5026620000000  0.4729800000000 1.0
C      1  0.4421080000000  0.5379570000000  0.5595880000000 1.0
C      1  0.5179490000000  0.4147190000000  0.4973260000000 1.0
C      1  0.6004570000000  0.5273920000000  0.4925630000000 1.0
C      1  0.5761880000000  0.4955360000000  0.5522190000000 1.0
C      1  0.5701810000000  0.5305160000000  0.4634660000000 1.0
C      1  0.5837310000000  0.4623850000000  0.4837170000000 1.0
C      1  0.4072820000000  0.5330760000000  0.5023410000000 1.0
C      1  0.4979200000000  0.5546580000000  0.5623860000000 1.0
C      1  0.4451090000000  0.5419980000000  0.4405300000000 1.0
C      1  0.5073900000000  0.4924560000000  0.4110500000000 1.0
C      1  0.5186620000000  0.5101650000000  0.5765730000000 1.0
C      1  0.5307410000000  0.5624260000000  0.4681290000000 1.0
C      1  0.4791900000000  0.5269560000000  0.4887310000000 1.0
C      1  0.5024410000000  0.4729180000000  0.5843400000000 1.0
C      1  0.5071760000000  0.5707170000000  0.4787480000000 1.0
C      1  0.4569300000000  0.4946300000000  0.4295770000000 1.0
C      1  0.5658700000000  0.4856940000000  0.5246980000000 1.0
C      1  0.5416080000000  0.4617920000000  0.4507930000000 1.0
C      1  0.4891420000000  0.4500810000000  0.4900980000000 1.0
C      1  0.4677910000000  0.4426800000000  0.4483860000000 1.0
C      1  0.4507220000000  0.5211530000000  0.4251380000000 1.0
C      1  0.5730420000000  0.4728580000000  0.5679140000000 1.0
C      1  0.5414930000000  0.4201090000000  0.5119800000000 1.0
C      1  0.4373190000000  0.4820050000000  0.4483210000000 1.0
C      1  0.5522110000000  0.5369180000000  0.5051830000000 1.0
C      1  0.5436170000000  0.4949630000000  0.4530510000000 1.0
C      1  0.4988470000000  0.4498980000000  0.5174150000000 1.0
C      1  0.5292950000000  0.4822450000000  0.5865800000000 1.0
C      1  0.5151000000000  0.4473360000000  0.4533020000000 1.0
C      1  0.4632080000000  0.5716590000000  0.5190980000000 1.0
C      1  0.4606520000000  0.4108780000000  0.5111540000000 1.0
C      1  0.5456370000000  0.5546310000000  0.5289440000000 1.0
C      1  0.5276230000000  0.4413080000000  0.5596860000000 1.0
C      1  0.4896440000000  0.4615950000000  0.4448170000000 1.0
C      1  0.4567220000000  0.5256860000000  0.5094700000000 1.0
C      1  0.5011660000000  0.5323180000000  0.5097710000000 1.0
C      1  0.5011170000000  0.4540520000000  0.5636500000000 1.0
C      1  0.4722810000000  0.5438910000000  0.5265570000000 1.0
C      1  0.5475670000000  0.5118720000000  0.4284460000000 1.0
C      1  0.4427100000000  0.4544800000000  0.4545320000000 1.0
C      1  0.6124810000000  0.5054100000000  0.4848950000000 1.0
C      1  0.4614390000000  0.5611540000000  0.4558100000000 1.0
C      1  0.4190100000000  0.5568590000000  0.5144390000000 1.0
C      1  0.5212150000000  0.5399630000000  0.5705160000000 1.0
C      1  0.5262550000000  0.5747910000000  0.5260390000000 1.0
C      1  0.5586900000000  0.4513770000000  0.4735760000000 1.0
C      1  0.4762320000000  0.4260440000000  0.4694580000000 1.0
C      1  0.5066000000000  0.4944650000000  0.4810730000000 1.0
C      1  0.4143000000000  0.5243490000000  0.4757190000000 1.0
C      1  0.5265250000000  0.4642140000000  0.5156330000000 1.0
C      1  0.5294820000000  0.5029880000000  0.5484360000000 1.0
C      1  0.5199960000000  0.5154660000000  0.4666510000000 1.0
C      1  0.5019840000000  0.5323560000000  0.4493090000000 1.0
C      1  0.4784530000000  0.4091890000000  0.5292680000000 1.0
C      1  0.4249410000000  0.5464390000000  0.4613730000000 1.0
C      1  0.4838090000000  0.4828350000000  0.4249580000000 1.0
C      1  0.4088320000000  0.5210340000000  0.5286360000000 1.0
C      1  0.4608510000000  0.4961370000000  0.5133260000000 1.0
C      1  0.5231190000000  0.4916000000000  0.5045140000000 1.0
C      1  0.5519080000000  0.5044390000000  0.5034990000000 1.0
C      1  0.5776890000000  0.5419470000000  0.4888610000000 1.0
C      1  0.5577320000000  0.5368450000000  0.4397050000000 1.0
C      1  0.4865720000000  0.4623930000000  0.5403570000000 1.0
C      1  0.5233520000000  0.5161710000000  0.4144470000000 1.0
C      1  0.5077770000000  0.5073070000000  0.5252650000000 1.0
C      1  0.4232470000000  0.4571750000000  0.4988600000000 1.0
C      1  0.5450580000000  0.4584730000000  0.4197430000000 1.0
C      1  0.5457080000000  0.5424920000000  0.5549340000000 1.0
C      1  0.4724750000000  0.5072190000000  0.5624410000000 1.0
C      1  0.5277670000000  0.5377100000000  0.4872930000000 1.0
C      1  0.4809200000000  0.4913030000000  0.5359230000000 1.0
C      1  0.4198400000000  0.4965300000000  0.4679130000000 1.0
C      1  0.4917020000000  0.4993280000000  0.5823170000000 1.0
C      1  0.4395860000000  0.5675700000000  0.4741760000000 1.0
C      1  0.4393300000000  0.5716090000000  0.5024120000000 1.0
C      1  0.5152770000000  0.5411870000000  0.4261350000000 1.0
C      1  0.4534860000000  0.4195370000000  0.4860630000000 1.0
C      1  0.5354930000000  0.5543530000000  0.4412990000000 1.0
C      1  0.4149270000000  0.4819980000000  0.4913900000000 1.0
C      1  0.5563000000000  0.5162270000000  0.5550300000000 1.0
C      1  0.5038810000000  0.4207660000000  0.5236580000000 1.0
C      1  0.5485310000000  0.4465220000000  0.5021240000000 1.0
C      1  0.5089000000000  0.5836200000000  0.5039510000000 1.0
C      1  0.4324730000000  0.4815230000000  0.5164110000000 1.0
C      1  0.5273500000000  0.4721520000000  0.4083350000000 1.0
C      1  0.5053060000000  0.4294510000000  0.4751050000000 1.0
C      1  0.5291000000000  0.4221280000000  0.5393530000000 1.0
C      1  0.4864420000000  0.5863770000000  0.5227600000000 1.0
C      1  0.4883210000000  0.4733920000000  0.4739580000000 1.0
C      1  0.4168550000000  0.4951100000000  0.5375840000000 1.0
C      1  0.4348310000000  0.4413610000000  0.4795850000000 1.0
C      1  0.4727720000000  0.5385950000000  0.5558890000000 1.0
C      1  0.4206620000000  0.4930250000000  0.5653100000000 1.0
C      1  0.4761390000000  0.4971580000000  0.4860820000000 1.0
C      1  0.5400010000000  0.4758930000000  0.5404840000000 1.0
C      1  0.4861640000000  0.5498290000000  0.4671680000000 1.0
C      1  0.5459960000000  0.4644860000000  0.5689590000000 1.0
C      1  0.5038200000000  0.5758870000000  0.5442860000000 1.0
END
