TITL C-23834-9662-1 0.0827208058756844 125000 -556.782460310744 0 0 78 (C1) n - 1
REM
REM in /rds/project/t2_vol4/rds-t2-cs072/BORA/CARBON/from-Arr/AIRSS/Generating-Clusters/GAP-ML-2020/Only-C1/SD-CG/HFTN-CG
REM
REM
REM
REM
REM
REM ./C.cell (11c1c37f851c82e70ff6c80c92926a4b)
REM AIRSS Version 0.9.1 bugfix July 2018 build 013d7b7c2542+ Fri, 06 Jul 2018 19:26:36 +0100
REM compiler GCC version 9.3.0
REM options -cpp -mtune=generic -march=x86-64 -g -O0
REM seed -71077380 -26376510 -478742376 -953925865 -607140327 -496959483 1164078011 -1450380613 -633826910 -1275697901 -2079293422 -798293344 -39953244 -1084259045 1473328183 1710205313 261461267 -2117150907 -1806910553 -462967680 -1393474811 -1348601856 1828857021 60011644 646000976 41770197 -1726364236 1367012260 -463602785 1505582255 -1535811900 2119094051 191312122
REM
CELL 1.54180   50.00000   50.00000   50.00000   90.00000   90.00000   90.00000
LATT -1
SFAC C  
C      1  0.4656900000000  0.5460320000000  0.5287070000000 1.0
C      1  0.4720660000000  0.4983980000000  0.5705000000000 1.0
C      1  0.4510770000000  0.4432880000000  0.4989290000000 1.0
C      1  0.5071470000000  0.4408090000000  0.5569880000000 1.0
C      1  0.4743450000000  0.4705500000000  0.5754940000000 1.0
C      1  0.4393060000000  0.5320480000000  0.4911140000000 1.0
C      1  0.5688660000000  0.4970620000000  0.4811430000000 1.0
C      1  0.4665880000000  0.4438410000000  0.4544670000000 1.0
C      1  0.5676300000000  0.5375250000000  0.5181000000000 1.0
C      1  0.4436680000000  0.4887280000000  0.5272230000000 1.0
C      1  0.5022290000000  0.4623710000000  0.5742610000000 1.0
C      1  0.5627030000000  0.4649920000000  0.5155380000000 1.0
C      1  0.5421770000000  0.4728730000000  0.4473900000000 1.0
C      1  0.5731870000000  0.4908390000000  0.5091120000000 1.0
C      1  0.4502160000000  0.5044670000000  0.5532150000000 1.0
C      1  0.4430180000000  0.4803070000000  0.4719040000000 1.0
C      1  0.5606570000000  0.5446640000000  0.4913620000000 1.0
C      1  0.4332780000000  0.5156720000000  0.5152210000000 1.0
C      1  0.5075220000000  0.4918650000000  0.4229300000000 1.0
C      1  0.4754780000000  0.4269850000000  0.4956950000000 1.0
C      1  0.4991420000000  0.5244300000000  0.4922800000000 1.0
C      1  0.4760150000000  0.5982380000000  0.4972150000000 1.0
C      1  0.5708490000000  0.5113330000000  0.5281150000000 1.0
C      1  0.5067260000000  0.5650270000000  0.4584950000000 1.0
C      1  0.5090360000000  0.5325790000000  0.5566580000000 1.0
C      1  0.4947540000000  0.4828630000000  0.5263880000000 1.0
C      1  0.5040960000000  0.5119450000000  0.5320320000000 1.0
C      1  0.5298770000000  0.4399210000000  0.5397050000000 1.0
C      1  0.4441620000000  0.5287490000000  0.5393010000000 1.0
C      1  0.4918790000000  0.5556800000000  0.5431470000000 1.0
C      1  0.4415510000000  0.4987800000000  0.4507190000000 1.0
C      1  0.4774010000000  0.5640030000000  0.4603690000000 1.0
C      1  0.4813010000000  0.5051570000000  0.4214380000000 1.0
C      1  0.4690950000000  0.4933780000000  0.5130650000000 1.0
C      1  0.4809320000000  0.5214560000000  0.5160880000000 1.0
C      1  0.5218400000000  0.4524880000000  0.4447060000000 1.0
C      1  0.4670910000000  0.5739810000000  0.4858450000000 1.0
C      1  0.5327690000000  0.4981640000000  0.4365750000000 1.0
C      1  0.4537710000000  0.5545880000000  0.5020770000000 1.0
C      1  0.5176710000000  0.4854140000000  0.5721550000000 1.0
C      1  0.5591660000000  0.4724100000000  0.4697600000000 1.0
C      1  0.5152290000000  0.4344760000000  0.4659000000000 1.0
C      1  0.5202230000000  0.5104070000000  0.5065930000000 1.0
C      1  0.4449570000000  0.4573270000000  0.5231400000000 1.0
C      1  0.4994600000000  0.5088200000000  0.5710540000000 1.0
C      1  0.5414030000000  0.5233940000000  0.4486880000000 1.0
C      1  0.5217310000000  0.5448800000000  0.4432110000000 1.0
C      1  0.4538340000000  0.4533590000000  0.5718170000000 1.0
C      1  0.5429180000000  0.4836560000000  0.5584270000000 1.0
C      1  0.4901400000000  0.5068100000000  0.4727950000000 1.0
C      1  0.4430020000000  0.5263260000000  0.4617600000000 1.0
C      1  0.4738960000000  0.4620820000000  0.4346400000000 1.0
C      1  0.4586210000000  0.4453330000000  0.5459610000000 1.0
C      1  0.5545160000000  0.4528400000000  0.4907730000000 1.0
C      1  0.4841030000000  0.4313620000000  0.5427760000000 1.0
C      1  0.4703110000000  0.4875650000000  0.4856830000000 1.0
C      1  0.5391250000000  0.5336360000000  0.5558920000000 1.0
C      1  0.5349730000000  0.5692150000000  0.5229470000000 1.0
C      1  0.4930430000000  0.4231980000000  0.5173290000000 1.0
C      1  0.5034330000000  0.5406240000000  0.4243860000000 1.0
C      1  0.5183100000000  0.5761760000000  0.4817360000000 1.0
C      1  0.4450280000000  0.4523920000000  0.4721630000000 1.0
C      1  0.4619770000000  0.5436520000000  0.4477280000000 1.0
C      1  0.5215190000000  0.4278360000000  0.5147350000000 1.0
C      1  0.5327950000000  0.4341150000000  0.4892370000000 1.0
C      1  0.4990210000000  0.5848030000000  0.5024000000000 1.0
C      1  0.5129480000000  0.4817080000000  0.5037040000000 1.0
C      1  0.5015160000000  0.4644020000000  0.4288790000000 1.0
C      1  0.4610640000000  0.4882640000000  0.4318780000000 1.0
C      1  0.5414690000000  0.5668470000000  0.4950290000000 1.0
C      1  0.4983590000000  0.4804350000000  0.4794170000000 1.0
C      1  0.4776900000000  0.5328850000000  0.4259810000000 1.0
C      1  0.5538020000000  0.5086190000000  0.5516750000000 1.0
C      1  0.5601970000000  0.5230930000000  0.4712480000000 1.0
C      1  0.5489450000000  0.4607430000000  0.5405050000000 1.0
C      1  0.5504870000000  0.5510830000000  0.5370410000000 1.0
C      1  0.5071740000000  0.5733990000000  0.5279910000000 1.0
C      1  0.4868040000000  0.4303350000000  0.4694580000000 1.0
END
