TITL C-23825-9551-2 -57.481815824663 125000 -753.011473909618 0 0 108 (C1) n - 1
REM
REM in /rds/project/t2_vol4/rds-t2-cs072/BORA/CARBON/from-Arr/AIRSS/Generating-Clusters/GAP-ML-2020/Only-C1/SD-CG/HFTN-CG
REM
REM
REM
REM
REM
REM ./C.cell (11c1c37f851c82e70ff6c80c92926a4b)
REM AIRSS Version 0.9.1 bugfix July 2018 build 013d7b7c2542+ Fri, 06 Jul 2018 19:26:36 +0100
REM compiler GCC version 9.3.0
REM options -cpp -mtune=generic -march=x86-64 -g -O0
REM seed 1285224653 239350477 1279079604 1728590761 -1323596126 -829708310 -620855256 -1092501902 1744002359 -1387484709 -135805333 952308285 -1441936624 -975428709 -2121618314 1324870610 -193064102 -347195807 618802528 -1069080509 -1483009240 668416034 1011433154 301147355 1052572180 1493694226 -259345254 1150337474 249419367 -1817706008 731936430 -1852620052 -440972043
REM
CELL 1.54180   50.00000   50.00000   50.00000   90.00000   90.00000   90.00000
LATT -1
SFAC C  
C      1  0.4722550000000  0.5884630000000  0.4956510000000 1.0
C      1  0.4853680000000  0.5387560000000  0.5765270000000 1.0
C      1  0.5144100000000  0.4604190000000  0.5329360000000 1.0
C      1  0.4469080000000  0.4891000000000  0.5742360000000 1.0
C      1  0.4890480000000  0.4359100000000  0.5663280000000 1.0
C      1  0.4504730000000  0.5084040000000  0.4883120000000 1.0
C      1  0.5308100000000  0.5100980000000  0.4006430000000 1.0
C      1  0.4793710000000  0.4937000000000  0.4186180000000 1.0
C      1  0.5448110000000  0.5009380000000  0.5751350000000 1.0
C      1  0.5920600000000  0.4902580000000  0.5245230000000 1.0
C      1  0.5408410000000  0.4552600000000  0.5464260000000 1.0
C      1  0.4522390000000  0.5786860000000  0.5162170000000 1.0
C      1  0.5308510000000  0.4900390000000  0.4970760000000 1.0
C      1  0.5228790000000  0.5040950000000  0.4728450000000 1.0
C      1  0.4272620000000  0.4469790000000  0.4336340000000 1.0
C      1  0.5740290000000  0.4484220000000  0.5054410000000 1.0
C      1  0.4227810000000  0.5414610000000  0.5062240000000 1.0
C      1  0.4505220000000  0.4947110000000  0.4237800000000 1.0
C      1  0.5702970000000  0.5426240000000  0.4806980000000 1.0
C      1  0.4944380000000  0.4807890000000  0.5365210000000 1.0
C      1  0.4862420000000  0.5231280000000  0.5229420000000 1.0
C      1  0.5615500000000  0.5317010000000  0.4359760000000 1.0
C      1  0.4508440000000  0.4184570000000  0.5466710000000 1.0
C      1  0.5694000000000  0.5331830000000  0.5388850000000 1.0
C      1  0.4401450000000  0.5328410000000  0.5575530000000 1.0
C      1  0.4569160000000  0.4584700000000  0.4828210000000 1.0
C      1  0.5360830000000  0.5329640000000  0.4792920000000 1.0
C      1  0.5047690000000  0.4518270000000  0.4844200000000 1.0
C      1  0.5058920000000  0.4344910000000  0.5434040000000 1.0
C      1  0.5769630000000  0.5448640000000  0.4534140000000 1.0
C      1  0.5373010000000  0.5471640000000  0.5678150000000 1.0
C      1  0.5389410000000  0.5669060000000  0.5464710000000 1.0
C      1  0.5867800000000  0.4741180000000  0.5034990000000 1.0
C      1  0.4729610000000  0.5626940000000  0.4470320000000 1.0
C      1  0.4223720000000  0.4965590000000  0.5307710000000 1.0
C      1  0.5299750000000  0.5361770000000  0.5081360000000 1.0
C      1  0.4264410000000  0.4568490000000  0.5292520000000 1.0
C      1  0.5277710000000  0.5577720000000  0.4618310000000 1.0
C      1  0.4914830000000  0.5855190000000  0.5383990000000 1.0
C      1  0.5006420000000  0.5418720000000  0.5081310000000 1.0
C      1  0.4881390000000  0.5412040000000  0.4837020000000 1.0
C      1  0.4198780000000  0.4767010000000  0.5101200000000 1.0
C      1  0.5293760000000  0.5000710000000  0.4442200000000 1.0
C      1  0.5219870000000  0.5912640000000  0.4993130000000 1.0
C      1  0.4334100000000  0.5231200000000  0.5297060000000 1.0
C      1  0.4885790000000  0.4303060000000  0.4990070000000 1.0
C      1  0.4669890000000  0.4782020000000  0.5270450000000 1.0
C      1  0.5254540000000  0.4730540000000  0.4279020000000 1.0
C      1  0.5087500000000  0.4198350000000  0.5192710000000 1.0
C      1  0.5090870000000  0.5533700000000  0.5722770000000 1.0
C      1  0.5298490000000  0.5081290000000  0.5185710000000 1.0
C      1  0.4981010000000  0.5607110000000  0.4639870000000 1.0
C      1  0.4226500000000  0.4883900000000  0.4584680000000 1.0
C      1  0.4839920000000  0.4682990000000  0.4698830000000 1.0
C      1  0.5394660000000  0.5776450000000  0.4839380000000 1.0
C      1  0.5592540000000  0.5017550000000  0.4356240000000 1.0
C      1  0.5836270000000  0.4936780000000  0.4806520000000 1.0
C      1  0.5826740000000  0.5196620000000  0.4931460000000 1.0
C      1  0.4436770000000  0.4348400000000  0.5258940000000 1.0
C      1  0.5550010000000  0.4388500000000  0.5257560000000 1.0
C      1  0.5379250000000  0.4527290000000  0.4450690000000 1.0
C      1  0.5852380000000  0.5168660000000  0.5220270000000 1.0
C      1  0.4957790000000  0.4269740000000  0.4513740000000 1.0
C      1  0.5201730000000  0.4655110000000  0.5038850000000 1.0
C      1  0.4916340000000  0.4617420000000  0.5819010000000 1.0
C      1  0.4783660000000  0.4195550000000  0.4731420000000 1.0
C      1  0.4887330000000  0.5198060000000  0.4238560000000 1.0
C      1  0.5463290000000  0.4890660000000  0.4083670000000 1.0
C      1  0.4859840000000  0.4537510000000  0.4422450000000 1.0
C      1  0.4319860000000  0.4743670000000  0.4352670000000 1.0
C      1  0.5175170000000  0.4716620000000  0.5855820000000 1.0
C      1  0.4970470000000  0.5926180000000  0.5103760000000 1.0
C      1  0.4267420000000  0.5259900000000  0.4826380000000 1.0
C      1  0.5432780000000  0.4711670000000  0.5704240000000 1.0
C      1  0.5363360000000  0.4214360000000  0.5107860000000 1.0
C      1  0.4674300000000  0.4169720000000  0.5663260000000 1.0
C      1  0.4758600000000  0.5814430000000  0.4669220000000 1.0
C      1  0.5627930000000  0.4582870000000  0.4573490000000 1.0
C      1  0.4358090000000  0.4804860000000  0.4845420000000 1.0
C      1  0.5418140000000  0.4238240000000  0.4823770000000 1.0
C      1  0.4362940000000  0.5146050000000  0.5775710000000 1.0
C      1  0.4625410000000  0.5508500000000  0.5612470000000 1.0
C      1  0.5180820000000  0.5227850000000  0.4252780000000 1.0
C      1  0.5121880000000  0.5750990000000  0.5533500000000 1.0
C      1  0.4403660000000  0.4778310000000  0.5470220000000 1.0
C      1  0.4530680000000  0.4308030000000  0.4698000000000 1.0
C      1  0.4422010000000  0.5206010000000  0.4348660000000 1.0
C      1  0.4930820000000  0.4967700000000  0.4726490000000 1.0
C      1  0.4608270000000  0.5093480000000  0.5165940000000 1.0
C      1  0.4662050000000  0.5733870000000  0.5419880000000 1.0
C      1  0.5059200000000  0.5058340000000  0.5329840000000 1.0
C      1  0.4907980000000  0.5105430000000  0.5853270000000 1.0
C      1  0.5532830000000  0.5540680000000  0.5242140000000 1.0
C      1  0.5222560000000  0.4348430000000  0.4623400000000 1.0
C      1  0.4274850000000  0.5681630000000  0.5093570000000 1.0
C      1  0.5614600000000  0.5651220000000  0.4978240000000 1.0
C      1  0.5648960000000  0.4402190000000  0.4797970000000 1.0
C      1  0.4649370000000  0.4495390000000  0.5100090000000 1.0
C      1  0.5735260000000  0.4847180000000  0.4557540000000 1.0
C      1  0.5551720000000  0.5254680000000  0.5635200000000 1.0
C      1  0.4742920000000  0.4863100000000  0.5836830000000 1.0
C      1  0.4966440000000  0.4705310000000  0.4222900000000 1.0
C      1  0.4221130000000  0.5173100000000  0.4554340000000 1.0
C      1  0.5357650000000  0.5446840000000  0.4357390000000 1.0
C      1  0.4349580000000  0.4280110000000  0.4494880000000 1.0
C      1  0.4743610000000  0.5179600000000  0.4717010000000 1.0
C      1  0.4675030000000  0.5342060000000  0.4405470000000 1.0
C      1  0.5179380000000  0.5003880000000  0.5882080000000 1.0
END
