TITL C-23813-9644-6 -2.40913807522173 125000 -321.983258476608 0 0 47 (C1) n - 1
REM
REM in /rds/project/t2_vol4/rds-t2-cs072/BORA/CARBON/from-Arr/AIRSS/Generating-Clusters/GAP-ML-2020/Only-C1/SD-CG/HFTN-CG
REM
REM
REM
REM
REM
REM ./C.cell (11c1c37f851c82e70ff6c80c92926a4b)
REM AIRSS Version 0.9.1 bugfix July 2018 build 013d7b7c2542+ Fri, 06 Jul 2018 19:26:36 +0100
REM compiler GCC version 9.3.0
REM options -cpp -mtune=generic -march=x86-64 -g -O0
REM seed 705628732 -1847467246 802308670 -715531496 -1891133604 -1676910458 -55312027 -1464991821 -338100889 747193926 -367960947 6775631 425063178 1740185053 -1336140300 -1052731104 -1403500449 -1745252528 367921176 -2069898548 655041985 -758766369 1415000447 -1363183280 -1224839318 1788399825 -1991664526 1674151616 446125171 205757193 581712939 -1719869360 -1705558231
REM
CELL 1.54180   50.00000   50.00000   50.00000   90.00000   90.00000   90.00000
LATT -1
SFAC C  
C      1  0.4659630000000  0.4832830000000  0.4478450000000 1.0
C      1  0.4481180000000  0.5254350000000  0.4649120000000 1.0
C      1  0.5404930000000  0.5095030000000  0.5496810000000 1.0
C      1  0.5201970000000  0.4627750000000  0.4565000000000 1.0
C      1  0.5314200000000  0.4528240000000  0.4834350000000 1.0
C      1  0.4717640000000  0.5381760000000  0.4648640000000 1.0
C      1  0.4654230000000  0.4457470000000  0.5077970000000 1.0
C      1  0.5404240000000  0.5125470000000  0.4839940000000 1.0
C      1  0.4890680000000  0.5258200000000  0.4452320000000 1.0
C      1  0.4851430000000  0.5159010000000  0.5507400000000 1.0
C      1  0.5156350000000  0.5345090000000  0.4497190000000 1.0
C      1  0.4888810000000  0.4959690000000  0.4847940000000 1.0
C      1  0.5036780000000  0.4495750000000  0.5331390000000 1.0
C      1  0.4966490000000  0.5370400000000  0.5076070000000 1.0
C      1  0.4898780000000  0.5517660000000  0.4842630000000 1.0
C      1  0.5421990000000  0.4663070000000  0.5057350000000 1.0
C      1  0.5088280000000  0.5124000000000  0.4982290000000 1.0
C      1  0.4890880000000  0.4977840000000  0.4394280000000 1.0
C      1  0.5316050000000  0.5114050000000  0.4551390000000 1.0
C      1  0.4408360000000  0.4804300000000  0.4882970000000 1.0
C      1  0.5151740000000  0.5546540000000  0.4695970000000 1.0
C      1  0.4575500000000  0.5238900000000  0.5457330000000 1.0
C      1  0.4973430000000  0.4879140000000  0.5071070000000 1.0
C      1  0.4958850000000  0.4902350000000  0.5543220000000 1.0
C      1  0.5389300000000  0.5621940000000  0.4800820000000 1.0
C      1  0.5562560000000  0.4915000000000  0.4992130000000 1.0
C      1  0.5072120000000  0.4370640000000  0.4865490000000 1.0
C      1  0.5514820000000  0.5397420000000  0.5231660000000 1.0
C      1  0.5284420000000  0.4635710000000  0.5320260000000 1.0
C      1  0.4705890000000  0.4577920000000  0.4598120000000 1.0
C      1  0.5166000000000  0.4883500000000  0.4455420000000 1.0
C      1  0.5015160000000  0.5392170000000  0.5365270000000 1.0
C      1  0.4961040000000  0.4470420000000  0.4614270000000 1.0
C      1  0.4817060000000  0.5634400000000  0.5396920000000 1.0
C      1  0.5240400000000  0.4873500000000  0.5483800000000 1.0
C      1  0.5626310000000  0.5131150000000  0.5299440000000 1.0
C      1  0.5469330000000  0.5406880000000  0.4946760000000 1.0
C      1  0.4398920000000  0.5076580000000  0.5334420000000 1.0
C      1  0.4926710000000  0.4374180000000  0.5099720000000 1.0
C      1  0.4832540000000  0.4660040000000  0.5454220000000 1.0
C      1  0.4544540000000  0.4557480000000  0.4835030000000 1.0
C      1  0.4420050000000  0.4851830000000  0.5182480000000 1.0
C      1  0.4584240000000  0.5535450000000  0.5439230000000 1.0
C      1  0.5301490000000  0.5363470000000  0.5425180000000 1.0
C      1  0.4464360000000  0.4978900000000  0.4645900000000 1.0
C      1  0.5792250000000  0.4991430000000  0.5143010000000 1.0
C      1  0.4598070000000  0.4641110000000  0.5289380000000 1.0
END
