TITL C-23833-9569-10 -0.05499197080339 125000 -455.271528507246 0 0 67 (C1) n - 1
REM
REM in /rds/project/t2_vol4/rds-t2-cs072/BORA/CARBON/from-Arr/AIRSS/Generating-Clusters/GAP-ML-2020/Only-C1/SD-CG/HFTN-CG
REM
REM
REM
REM
REM
REM ./C.cell (11c1c37f851c82e70ff6c80c92926a4b)
REM AIRSS Version 0.9.1 bugfix July 2018 build 013d7b7c2542+ Fri, 06 Jul 2018 19:26:36 +0100
REM compiler GCC version 9.3.0
REM options -cpp -mtune=generic -march=x86-64 -g -O0
REM seed -2037684637 -1923329552 1981270864 1280620744 509765512 2065841831 1692686277 -1215978183 -949559865 1169310340 -32858719 1799123699 -632502127 665036951 1500384854 143148690 -570853271 -739193635 -1917442857 -1491345889 -1765484281 1230491760 -2145346913 -413044948 -1116656818 -309872198 -1480011929 -1050633247 -679685863 -233669754 611410969 1676693473 -519876000
REM
CELL 1.54180   50.00000   50.00000   50.00000   90.00000   90.00000   90.00000
LATT -1
SFAC C  
C      1  0.4482300000000  0.5708180000000  0.5161470000000 1.0
C      1  0.4979990000000  0.5168010000000  0.4792240000000 1.0
C      1  0.4511620000000  0.5180300000000  0.4527980000000 1.0
C      1  0.5312090000000  0.4447860000000  0.4892480000000 1.0
C      1  0.5477110000000  0.5251270000000  0.4586610000000 1.0
C      1  0.4540310000000  0.4756130000000  0.5483970000000 1.0
C      1  0.4394410000000  0.4475280000000  0.5141670000000 1.0
C      1  0.5692240000000  0.4976330000000  0.5224640000000 1.0
C      1  0.4491920000000  0.5383440000000  0.4735400000000 1.0
C      1  0.4972890000000  0.5706640000000  0.5133550000000 1.0
C      1  0.5407910000000  0.4826260000000  0.4461100000000 1.0
C      1  0.5558500000000  0.5046910000000  0.5484440000000 1.0
C      1  0.5595280000000  0.4806770000000  0.4675940000000 1.0
C      1  0.4478230000000  0.5033100000000  0.5434940000000 1.0
C      1  0.4587600000000  0.4701520000000  0.4734650000000 1.0
C      1  0.4454690000000  0.4976020000000  0.4724790000000 1.0
C      1  0.4711520000000  0.5691620000000  0.5006270000000 1.0
C      1  0.4593880000000  0.4553420000000  0.5308010000000 1.0
C      1  0.5003170000000  0.4285590000000  0.5237300000000 1.0
C      1  0.4748600000000  0.4806610000000  0.5675150000000 1.0
C      1  0.4848040000000  0.4712350000000  0.4921120000000 1.0
C      1  0.5143490000000  0.4239740000000  0.4982480000000 1.0
C      1  0.5455220000000  0.4796230000000  0.5591240000000 1.0
C      1  0.5423860000000  0.5307500000000  0.5040590000000 1.0
C      1  0.4896020000000  0.5006220000000  0.5003630000000 1.0
C      1  0.5550920000000  0.4746600000000  0.5135600000000 1.0
C      1  0.5560560000000  0.4609350000000  0.4884680000000 1.0
C      1  0.4725630000000  0.5512100000000  0.5508870000000 1.0
C      1  0.4924860000000  0.5394040000000  0.4355060000000 1.0
C      1  0.5253000000000  0.4718500000000  0.5753140000000 1.0
C      1  0.5137340000000  0.4667320000000  0.4809600000000 1.0
C      1  0.4924300000000  0.4739480000000  0.4383850000000 1.0
C      1  0.4977080000000  0.5595090000000  0.5405790000000 1.0
C      1  0.5424040000000  0.5532640000000  0.4636870000000 1.0
C      1  0.4712880000000  0.5345000000000  0.5734260000000 1.0
C      1  0.4725060000000  0.4567130000000  0.4499540000000 1.0
C      1  0.4974980000000  0.4190180000000  0.4750820000000 1.0
C      1  0.5369840000000  0.5098230000000  0.4364400000000 1.0
C      1  0.4663700000000  0.5089220000000  0.5663450000000 1.0
C      1  0.5079990000000  0.4715030000000  0.5330850000000 1.0
C      1  0.4685440000000  0.5588970000000  0.4740270000000 1.0
C      1  0.4515090000000  0.5482400000000  0.5304350000000 1.0
C      1  0.5113160000000  0.4971460000000  0.5196440000000 1.0
C      1  0.5169500000000  0.4691770000000  0.4517460000000 1.0
C      1  0.4233790000000  0.4343690000000  0.4963980000000 1.0
C      1  0.4912420000000  0.5588390000000  0.4557180000000 1.0
C      1  0.4412910000000  0.5181310000000  0.4934980000000 1.0
C      1  0.5435050000000  0.5573260000000  0.4927610000000 1.0
C      1  0.4897460000000  0.4991340000000  0.4268300000000 1.0
C      1  0.5282650000000  0.4889980000000  0.4959530000000 1.0
C      1  0.5008310000000  0.4637400000000  0.5626550000000 1.0
C      1  0.4424670000000  0.5218020000000  0.5225780000000 1.0
C      1  0.5410250000000  0.5280490000000  0.5553270000000 1.0
C      1  0.4396240000000  0.4532000000000  0.4863340000000 1.0
C      1  0.4706130000000  0.5201980000000  0.4333870000000 1.0
C      1  0.5268100000000  0.5218310000000  0.5280920000000 1.0
C      1  0.5004010000000  0.4320440000000  0.5507910000000 1.0
C      1  0.5163350000000  0.5663820000000  0.4661350000000 1.0
C      1  0.5265540000000  0.5156680000000  0.4817680000000 1.0
C      1  0.5189700000000  0.5428520000000  0.5492190000000 1.0
C      1  0.5184620000000  0.5715830000000  0.4946070000000 1.0
C      1  0.5382110000000  0.4653940000000  0.5348360000000 1.0
C      1  0.5681020000000  0.5159720000000  0.5008820000000 1.0
C      1  0.5115430000000  0.5185190000000  0.4283910000000 1.0
C      1  0.5679130000000  0.5078080000000  0.4737980000000 1.0
C      1  0.4861630000000  0.4563620000000  0.5181330000000 1.0
C      1  0.4837230000000  0.4320190000000  0.4582150000000 1.0
END
