TITL C-231474-4170-1 0.147745987741705 125000 -828.41645945223 0 0 117 (C1) n - 1
REM
REM in /rds/project/t2_vol4/rds-t2-cs072/BORA/CARBON/from-Arr/AIRSS/Generating-Clusters/GAP-ML-2020/Only-C1/SD-CG/HFTN-CG
REM
REM
REM
REM
REM
REM ./C.cell (11c1c37f851c82e70ff6c80c92926a4b)
REM AIRSS Version 0.9.1 bugfix July 2018 build 013d7b7c2542+ Fri, 06 Jul 2018 19:26:36 +0100
REM compiler GCC version 9.3.0
REM options -cpp -mtune=generic -march=x86-64 -g -O0
REM seed 440527389 216360869 780018332 -796727988 637716220 563815154 1634172215 -194284631 1639197514 32293323 -1802830203 2060200469 -29984946 859746825 -845788708 -1649693841 -1082888348 1013404580 706125004 2040888686 -132791552 431406423 -2119324991 -1380166843 -734784033 1165191415 -1183782675 -501766327 -831473850 634287381 114031928 620718308 27377254
REM
CELL 1.54180   50.00000   50.00000   50.00000   90.00000   90.00000   90.00000
LATT -1
SFAC C  
C      1  0.4749710000000  0.4935900000000  0.4138150000000 1.0
C      1  0.5768290000000  0.4740570000000  0.5382070000000 1.0
C      1  0.5392360000000  0.4644320000000  0.5183000000000 1.0
C      1  0.4794490000000  0.5928110000000  0.5274770000000 1.0
C      1  0.4960290000000  0.5222990000000  0.4696130000000 1.0
C      1  0.4575960000000  0.4368220000000  0.4741270000000 1.0
C      1  0.4756490000000  0.5441570000000  0.4777630000000 1.0
C      1  0.5877170000000  0.4660050000000  0.5111190000000 1.0
C      1  0.4161530000000  0.4611710000000  0.5060240000000 1.0
C      1  0.5421430000000  0.5082410000000  0.4949320000000 1.0
C      1  0.4987930000000  0.5091370000000  0.4131970000000 1.0
C      1  0.5285450000000  0.5584720000000  0.5521630000000 1.0
C      1  0.4974350000000  0.4756650000000  0.4838250000000 1.0
C      1  0.4321910000000  0.5681160000000  0.4961990000000 1.0
C      1  0.4530060000000  0.5302400000000  0.4910650000000 1.0
C      1  0.4326050000000  0.4920810000000  0.4314040000000 1.0
C      1  0.4599150000000  0.4511830000000  0.5646340000000 1.0
C      1  0.5033330000000  0.5404170000000  0.5128150000000 1.0
C      1  0.4092000000000  0.5177970000000  0.4924080000000 1.0
C      1  0.4103690000000  0.4816680000000  0.5257250000000 1.0
C      1  0.5919780000000  0.5086920000000  0.4842610000000 1.0
C      1  0.4897580000000  0.4474340000000  0.4355950000000 1.0
C      1  0.4371500000000  0.4494040000000  0.5469850000000 1.0
C      1  0.4601580000000  0.5329870000000  0.5732140000000 1.0
C      1  0.5564150000000  0.4516930000000  0.5420400000000 1.0
C      1  0.5225050000000  0.5059460000000  0.5722390000000 1.0
C      1  0.4619370000000  0.5741820000000  0.5409020000000 1.0
C      1  0.5359350000000  0.4525020000000  0.4935830000000 1.0
C      1  0.4112950000000  0.5099510000000  0.5195990000000 1.0
C      1  0.4509560000000  0.5356940000000  0.4310720000000 1.0
C      1  0.4781260000000  0.5849390000000  0.4997530000000 1.0
C      1  0.4979390000000  0.4135080000000  0.4673620000000 1.0
C      1  0.4768900000000  0.5517000000000  0.4286780000000 1.0
C      1  0.5752570000000  0.5405160000000  0.4501040000000 1.0
C      1  0.5317360000000  0.4914040000000  0.5192580000000 1.0
C      1  0.5744690000000  0.5512420000000  0.4944040000000 1.0
C      1  0.5295810000000  0.5108070000000  0.5422970000000 1.0
C      1  0.5075170000000  0.4815310000000  0.5794430000000 1.0
C      1  0.5729000000000  0.5486270000000  0.5399560000000 1.0
C      1  0.5233370000000  0.4689610000000  0.4725410000000 1.0
C      1  0.4377110000000  0.5188230000000  0.5621770000000 1.0
C      1  0.5645660000000  0.4286260000000  0.5260180000000 1.0
C      1  0.5136920000000  0.5640810000000  0.4650570000000 1.0
C      1  0.4781740000000  0.4151220000000  0.5159200000000 1.0
C      1  0.5152170000000  0.5349030000000  0.4491460000000 1.0
C      1  0.5263800000000  0.4153120000000  0.4661650000000 1.0
C      1  0.4966920000000  0.4231340000000  0.4951610000000 1.0
C      1  0.5440550000000  0.5783210000000  0.5085630000000 1.0
C      1  0.5321130000000  0.4422790000000  0.5568900000000 1.0
C      1  0.4537530000000  0.5826050000000  0.4850370000000 1.0
C      1  0.4521170000000  0.4222330000000  0.5033430000000 1.0
C      1  0.4878960000000  0.5721650000000  0.4472460000000 1.0
C      1  0.4795200000000  0.5311990000000  0.5296940000000 1.0
C      1  0.5814960000000  0.4382920000000  0.5056040000000 1.0
C      1  0.4798050000000  0.5181170000000  0.5873820000000 1.0
C      1  0.4640600000000  0.4611710000000  0.5132970000000 1.0
C      1  0.4760300000000  0.5517320000000  0.5561350000000 1.0
C      1  0.5231630000000  0.4978550000000  0.4216700000000 1.0
C      1  0.4292190000000  0.5258190000000  0.5357920000000 1.0
C      1  0.5651200000000  0.4450410000000  0.4587370000000 1.0
C      1  0.4860210000000  0.4406220000000  0.5606580000000 1.0
C      1  0.5879370000000  0.4807860000000  0.4866770000000 1.0
C      1  0.4992660000000  0.5356220000000  0.4238840000000 1.0
C      1  0.5275030000000  0.4232860000000  0.4955980000000 1.0
C      1  0.5057660000000  0.5280220000000  0.5813430000000 1.0
C      1  0.4406670000000  0.5628050000000  0.5240530000000 1.0
C      1  0.4616920000000  0.4889690000000  0.5141590000000 1.0
C      1  0.5360080000000  0.5124960000000  0.4441060000000 1.0
C      1  0.5401850000000  0.5729670000000  0.4773170000000 1.0
C      1  0.5098210000000  0.4552120000000  0.5690920000000 1.0
C      1  0.5133210000000  0.5197610000000  0.4944790000000 1.0
C      1  0.5422330000000  0.4921990000000  0.4685050000000 1.0
C      1  0.4222460000000  0.4732880000000  0.5499980000000 1.0
C      1  0.4088270000000  0.4964150000000  0.4731800000000 1.0
C      1  0.5040520000000  0.5522200000000  0.5675220000000 1.0
C      1  0.4177730000000  0.5078250000000  0.4491470000000 1.0
C      1  0.5675730000000  0.5656350000000  0.5171100000000 1.0
C      1  0.5932990000000  0.5179660000000  0.4575920000000 1.0
C      1  0.4811660000000  0.4898710000000  0.5871940000000 1.0
C      1  0.5250980000000  0.5372970000000  0.5314650000000 1.0
C      1  0.4710780000000  0.4664110000000  0.4256730000000 1.0
C      1  0.4168080000000  0.4683850000000  0.4788790000000 1.0
C      1  0.4366600000000  0.4542210000000  0.4624410000000 1.0
C      1  0.5045290000000  0.4934530000000  0.5085590000000 1.0
C      1  0.5052970000000  0.5976170000000  0.5356590000000 1.0
C      1  0.5647860000000  0.5591560000000  0.4691250000000 1.0
C      1  0.5200550000000  0.4542580000000  0.4412360000000 1.0
C      1  0.4809210000000  0.4969780000000  0.4710500000000 1.0
C      1  0.4809840000000  0.4520770000000  0.4916670000000 1.0
C      1  0.4259160000000  0.5408240000000  0.4809450000000 1.0
C      1  0.5695980000000  0.4762270000000  0.4623330000000 1.0
C      1  0.4442640000000  0.4666170000000  0.4375010000000 1.0
C      1  0.4512790000000  0.5363720000000  0.5200430000000 1.0
C      1  0.5628000000000  0.5196260000000  0.4346110000000 1.0
C      1  0.4652330000000  0.5710330000000  0.4619560000000 1.0
C      1  0.4589340000000  0.5018290000000  0.4882910000000 1.0
C      1  0.5399960000000  0.4331600000000  0.4488560000000 1.0
C      1  0.5305110000000  0.4727040000000  0.4233730000000 1.0
C      1  0.5521020000000  0.5144890000000  0.5621350000000 1.0
C      1  0.5277800000000  0.5828910000000  0.5328320000000 1.0
C      1  0.4953870000000  0.5620520000000  0.4919510000000 1.0
C      1  0.5759800000000  0.4317870000000  0.4797520000000 1.0
C      1  0.5726520000000  0.5227610000000  0.5010940000000 1.0
C      1  0.5403270000000  0.4143850000000  0.5205530000000 1.0
C      1  0.5745700000000  0.5007460000000  0.5478540000000 1.0
C      1  0.4783210000000  0.4280240000000  0.4533340000000 1.0
C      1  0.5801260000000  0.5230810000000  0.5302370000000 1.0
C      1  0.5219800000000  0.4199360000000  0.5417660000000 1.0
C      1  0.4928530000000  0.4209890000000  0.5406640000000 1.0
C      1  0.4829310000000  0.5009960000000  0.5277160000000 1.0
C      1  0.4580730000000  0.4761900000000  0.5783420000000 1.0
C      1  0.5801670000000  0.4976630000000  0.4426380000000 1.0
C      1  0.4355000000000  0.4909920000000  0.5680370000000 1.0
C      1  0.4379450000000  0.4436440000000  0.5175850000000 1.0
C      1  0.4518800000000  0.5092880000000  0.4195930000000 1.0
C      1  0.5546540000000  0.5447180000000  0.5605520000000 1.0
C      1  0.4288910000000  0.5342380000000  0.4509580000000 1.0
END
