TITL C-231481-4116-10 -41.9358533485884 125000 -831.515875163431 0 0 119 (C1) n - 1
REM
REM in /rds/project/t2_vol4/rds-t2-cs072/BORA/CARBON/from-Arr/AIRSS/Generating-Clusters/GAP-ML-2020/Only-C1/SD-CG/HFTN-CG
REM
REM
REM
REM
REM
REM ./C.cell (11c1c37f851c82e70ff6c80c92926a4b)
REM AIRSS Version 0.9.1 bugfix July 2018 build 013d7b7c2542+ Fri, 06 Jul 2018 19:26:36 +0100
REM compiler GCC version 9.3.0
REM options -cpp -mtune=generic -march=x86-64 -g -O0
REM seed 701045283 1711834126 -1288380154 -459124650 -1117782692 -1059965657 -2071146302 -820674103 -1244291694 2052924628 1335753969 776732674 -1759254499 534215524 -93979837 1583475699 -872677366 -1578247750 -921259980 1830205103 736520421 1503557166 -2120256474 536718915 -1352985230 -1025853680 -112328324 1172417673 -1987211387 -1827521266 1645215929 -2006382418 -957660433
REM
CELL 1.54180   50.00000   50.00000   50.00000   90.00000   90.00000   90.00000
LATT -1
SFAC C  
C      1  0.4671580000000  0.4074280000000  0.5294180000000 1.0
C      1  0.4292900000000  0.5387730000000  0.4612570000000 1.0
C      1  0.5199610000000  0.5680560000000  0.5750200000000 1.0
C      1  0.4692960000000  0.4486050000000  0.4979800000000 1.0
C      1  0.4267340000000  0.5087560000000  0.5469500000000 1.0
C      1  0.5085440000000  0.5717790000000  0.4531370000000 1.0
C      1  0.5675050000000  0.5150210000000  0.5719510000000 1.0
C      1  0.5184470000000  0.5415700000000  0.4201290000000 1.0
C      1  0.5364640000000  0.5758840000000  0.4533590000000 1.0
C      1  0.5403840000000  0.5766330000000  0.5554660000000 1.0
C      1  0.5667450000000  0.5536690000000  0.4821280000000 1.0
C      1  0.4292470000000  0.5370380000000  0.5503610000000 1.0
C      1  0.5300800000000  0.5442210000000  0.5881210000000 1.0
C      1  0.4897420000000  0.5066080000000  0.4759360000000 1.0
C      1  0.4519980000000  0.4446010000000  0.4706760000000 1.0
C      1  0.4350320000000  0.5160590000000  0.4439810000000 1.0
C      1  0.4557430000000  0.4304320000000  0.5178310000000 1.0
C      1  0.5753160000000  0.5104710000000  0.5030960000000 1.0
C      1  0.5156580000000  0.4437280000000  0.4348560000000 1.0
C      1  0.5370900000000  0.4100780000000  0.4927110000000 1.0
C      1  0.5220710000000  0.4934920000000  0.4303260000000 1.0
C      1  0.4506900000000  0.4614430000000  0.5493960000000 1.0
C      1  0.4544020000000  0.5564680000000  0.4572120000000 1.0
C      1  0.4368950000000  0.4475290000000  0.5296440000000 1.0
C      1  0.4717820000000  0.4874170000000  0.4092220000000 1.0
C      1  0.4826410000000  0.5896240000000  0.5494630000000 1.0
C      1  0.5486350000000  0.5047890000000  0.4920660000000 1.0
C      1  0.5143970000000  0.4704520000000  0.5837480000000 1.0
C      1  0.4684180000000  0.5915860000000  0.5232900000000 1.0
C      1  0.5287670000000  0.4280320000000  0.5574930000000 1.0
C      1  0.4589470000000  0.5678790000000  0.5070870000000 1.0
C      1  0.4876570000000  0.4712380000000  0.5751790000000 1.0
C      1  0.5420520000000  0.5529240000000  0.4385440000000 1.0
C      1  0.5103860000000  0.5238680000000  0.4636210000000 1.0
C      1  0.5637390000000  0.4706360000000  0.5352070000000 1.0
C      1  0.5066590000000  0.5298820000000  0.5472580000000 1.0
C      1  0.4540750000000  0.4760560000000  0.4665180000000 1.0
C      1  0.4842850000000  0.4231280000000  0.5449740000000 1.0
C      1  0.4668970000000  0.4293780000000  0.4509390000000 1.0
C      1  0.4787180000000  0.5075010000000  0.4293080000000 1.0
C      1  0.5076600000000  0.4723840000000  0.4499820000000 1.0
C      1  0.5777420000000  0.4951530000000  0.5276340000000 1.0
C      1  0.4877060000000  0.4110590000000  0.4618030000000 1.0
C      1  0.5003360000000  0.4876350000000  0.4943080000000 1.0
C      1  0.5764990000000  0.5425780000000  0.5346220000000 1.0
C      1  0.4685930000000  0.5532860000000  0.4331430000000 1.0
C      1  0.5615090000000  0.5574360000000  0.5552260000000 1.0
C      1  0.4696370000000  0.5248190000000  0.4871610000000 1.0
C      1  0.5458890000000  0.4460580000000  0.4360130000000 1.0
C      1  0.4254720000000  0.4437050000000  0.4829650000000 1.0
C      1  0.4718970000000  0.5541330000000  0.4806430000000 1.0
C      1  0.4089850000000  0.5046200000000  0.5231550000000 1.0
C      1  0.4922230000000  0.6045330000000  0.5274970000000 1.0
C      1  0.5276950000000  0.4946420000000  0.5906460000000 1.0
C      1  0.5168540000000  0.5100730000000  0.5310020000000 1.0
C      1  0.5320310000000  0.5783900000000  0.5036170000000 1.0
C      1  0.4174200000000  0.5498580000000  0.5278170000000 1.0
C      1  0.4174680000000  0.5445380000000  0.4862030000000 1.0
C      1  0.5538230000000  0.4919690000000  0.5791080000000 1.0
C      1  0.4914290000000  0.3996670000000  0.4903390000000 1.0
C      1  0.5123880000000  0.4211840000000  0.5345690000000 1.0
C      1  0.5208620000000  0.5226810000000  0.3970670000000 1.0
C      1  0.4689700000000  0.4461970000000  0.4268770000000 1.0
C      1  0.5016010000000  0.5521070000000  0.4754720000000 1.0
C      1  0.5571360000000  0.5388360000000  0.4586280000000 1.0
C      1  0.4597190000000  0.5217990000000  0.5124530000000 1.0
C      1  0.4949200000000  0.4497690000000  0.4139530000000 1.0
C      1  0.5495540000000  0.5767980000000  0.4802570000000 1.0
C      1  0.4985620000000  0.4659120000000  0.5358470000000 1.0
C      1  0.4751860000000  0.5486150000000  0.5739010000000 1.0
C      1  0.5372150000000  0.5895460000000  0.5311010000000 1.0
C      1  0.4953010000000  0.4751110000000  0.4001430000000 1.0
C      1  0.5690640000000  0.4371840000000  0.4754480000000 1.0
C      1  0.4549690000000  0.5482740000000  0.5543870000000 1.0
C      1  0.4054850000000  0.4809210000000  0.5108980000000 1.0
C      1  0.4809570000000  0.4879650000000  0.4549660000000 1.0
C      1  0.4518520000000  0.4910490000000  0.5511470000000 1.0
C      1  0.5427230000000  0.5147110000000  0.4650210000000 1.0
C      1  0.5672320000000  0.4652950000000  0.4714240000000 1.0
C      1  0.4919220000000  0.5717860000000  0.5699960000000 1.0
C      1  0.5475210000000  0.4956610000000  0.4425030000000 1.0
C      1  0.5150690000000  0.4041150000000  0.5081890000000 1.0
C      1  0.4579750000000  0.5267440000000  0.4294610000000 1.0
C      1  0.4944930000000  0.4907990000000  0.5223830000000 1.0
C      1  0.4529910000000  0.4708110000000  0.4227490000000 1.0
C      1  0.4542010000000  0.4752120000000  0.4998640000000 1.0
C      1  0.4733280000000  0.4959950000000  0.5723540000000 1.0
C      1  0.4301090000000  0.5634790000000  0.5054760000000 1.0
C      1  0.4972230000000  0.5486370000000  0.5283890000000 1.0
C      1  0.5562900000000  0.5401110000000  0.5774700000000 1.0
C      1  0.5774240000000  0.5396010000000  0.5052580000000 1.0
C      1  0.4645660000000  0.4958060000000  0.5216520000000 1.0
C      1  0.5118880000000  0.4172260000000  0.4498930000000 1.0
C      1  0.4760220000000  0.3888270000000  0.5101240000000 1.0
C      1  0.5152750000000  0.5503890000000  0.5032740000000 1.0
C      1  0.4891590000000  0.5220630000000  0.5756110000000 1.0
C      1  0.5796690000000  0.5161670000000  0.5462060000000 1.0
C      1  0.5466340000000  0.4558240000000  0.5147460000000 1.0
C      1  0.5561340000000  0.4258050000000  0.4531910000000 1.0
C      1  0.5164170000000  0.4688390000000  0.4793140000000 1.0
C      1  0.5175440000000  0.4951830000000  0.3989360000000 1.0
C      1  0.4957780000000  0.5606630000000  0.4299780000000 1.0
C      1  0.5596630000000  0.4705510000000  0.4447830000000 1.0
C      1  0.4681190000000  0.5463000000000  0.5271700000000 1.0
C      1  0.5294440000000  0.5229060000000  0.5086730000000 1.0
C      1  0.5144350000000  0.5200190000000  0.5919460000000 1.0
C      1  0.5184240000000  0.6031000000000  0.5174090000000 1.0
C      1  0.5003550000000  0.4510060000000  0.4961270000000 1.0
C      1  0.4254800000000  0.4614940000000  0.5054790000000 1.0
C      1  0.4055560000000  0.5307270000000  0.5100390000000 1.0
C      1  0.5065620000000  0.5185990000000  0.4345650000000 1.0
C      1  0.5162930000000  0.4485540000000  0.5216310000000 1.0
C      1  0.5330630000000  0.4516210000000  0.5696240000000 1.0
C      1  0.5548460000000  0.4691840000000  0.5620830000000 1.0
C      1  0.5560830000000  0.4303010000000  0.4996950000000 1.0
C      1  0.4376980000000  0.4868830000000  0.4447820000000 1.0
C      1  0.5453470000000  0.4745260000000  0.4905550000000 1.0
C      1  0.4784280000000  0.4520330000000  0.5537040000000 1.0
C      1  0.5354650000000  0.4092320000000  0.4634190000000 1.0
END
