TITL C-231501-5289-8 -299.977626629903 125000 -466.483831675703 0 0 68 (C1) n - 1
REM
REM in /rds/project/t2_vol4/rds-t2-cs072/BORA/CARBON/from-Arr/AIRSS/Generating-Clusters/GAP-ML-2020/Only-C1/SD-CG/HFTN-CG
REM
REM
REM
REM
REM
REM ./C.cell (11c1c37f851c82e70ff6c80c92926a4b)
REM AIRSS Version 0.9.1 bugfix July 2018 build 013d7b7c2542+ Fri, 06 Jul 2018 19:26:36 +0100
REM compiler GCC version 9.3.0
REM options -cpp -mtune=generic -march=x86-64 -g -O0
REM seed -745841707 1247969837 -921695844 -346569128 2047348633 -34469601 1903792922 1253437594 945096847 -1968005010 -2114992739 1773642086 -1869868055 -189717813 1059403783 2049353518 -585062347 -1353933612 -453525008 2017790549 -1405778410 964184955 -204030073 1123326846 -1876010842 1220707546 584033447 838294309 -1015415914 889116368 943159628 -1169469383 -1366371141
REM
CELL 1.54180   50.00000   50.00000   50.00000   90.00000   90.00000   90.00000
LATT -1
SFAC C  
C      1  0.4946470000000  0.5824870000000  0.5172260000000 1.0
C      1  0.5025050000000  0.4855450000000  0.5715690000000 1.0
C      1  0.5036270000000  0.5195670000000  0.4890820000000 1.0
C      1  0.5660090000000  0.5018560000000  0.5371550000000 1.0
C      1  0.5005860000000  0.5735460000000  0.5418530000000 1.0
C      1  0.4789590000000  0.5539780000000  0.5446160000000 1.0
C      1  0.4983490000000  0.4847790000000  0.4321080000000 1.0
C      1  0.5131050000000  0.4257180000000  0.4901070000000 1.0
C      1  0.4696510000000  0.4408890000000  0.5081070000000 1.0
C      1  0.4239200000000  0.4618700000000  0.4872650000000 1.0
C      1  0.5299060000000  0.5627200000000  0.4501160000000 1.0
C      1  0.4814060000000  0.4506390000000  0.4606640000000 1.0
C      1  0.5035060000000  0.5551600000000  0.4477510000000 1.0
C      1  0.4730280000000  0.4829060000000  0.5666930000000 1.0
C      1  0.5256410000000  0.4363990000000  0.5285880000000 1.0
C      1  0.5394920000000  0.4606710000000  0.5384730000000 1.0
C      1  0.5287580000000  0.4479760000000  0.4482580000000 1.0
C      1  0.4818580000000  0.5080280000000  0.5341190000000 1.0
C      1  0.5639030000000  0.4742790000000  0.4957690000000 1.0
C      1  0.5671880000000  0.4966100000000  0.4777770000000 1.0
C      1  0.5246890000000  0.5579970000000  0.5534830000000 1.0
C      1  0.4836220000000  0.5638050000000  0.4974170000000 1.0
C      1  0.4633060000000  0.4849430000000  0.4885110000000 1.0
C      1  0.4431610000000  0.4741610000000  0.5298770000000 1.0
C      1  0.4194830000000  0.4883130000000  0.4802740000000 1.0
C      1  0.5366570000000  0.5084540000000  0.4447870000000 1.0
C      1  0.5533440000000  0.5207030000000  0.4844450000000 1.0
C      1  0.5573540000000  0.4896780000000  0.4511940000000 1.0
C      1  0.5115130000000  0.5112310000000  0.5767070000000 1.0
C      1  0.5240190000000  0.4138980000000  0.5134890000000 1.0
C      1  0.5369140000000  0.5498370000000  0.5091740000000 1.0
C      1  0.4479300000000  0.5336250000000  0.4871920000000 1.0
C      1  0.4617290000000  0.5397390000000  0.4628690000000 1.0
C      1  0.4638020000000  0.5079420000000  0.5588680000000 1.0
C      1  0.4712090000000  0.5218150000000  0.4418080000000 1.0
C      1  0.5027430000000  0.4428120000000  0.5457440000000 1.0
C      1  0.4967240000000  0.5312450000000  0.4329950000000 1.0
C      1  0.5621560000000  0.5263400000000  0.5421370000000 1.0
C      1  0.4822570000000  0.5587330000000  0.4677790000000 1.0
C      1  0.4950470000000  0.4870850000000  0.5232870000000 1.0
C      1  0.4861670000000  0.4360790000000  0.4855520000000 1.0
C      1  0.4575810000000  0.5513490000000  0.5067700000000 1.0
C      1  0.5332050000000  0.4349920000000  0.4734960000000 1.0
C      1  0.5124490000000  0.5332240000000  0.5615250000000 1.0
C      1  0.4438080000000  0.5210190000000  0.5435700000000 1.0
C      1  0.5586900000000  0.4775270000000  0.5248520000000 1.0
C      1  0.5195020000000  0.4826530000000  0.4810320000000 1.0
C      1  0.5539600000000  0.5486710000000  0.4856130000000 1.0
C      1  0.4952620000000  0.4918930000000  0.4959810000000 1.0
C      1  0.4967790000000  0.5315320000000  0.5351560000000 1.0
C      1  0.5529390000000  0.4629200000000  0.4516400000000 1.0
C      1  0.5167810000000  0.4647030000000  0.5578940000000 1.0
C      1  0.5079050000000  0.5401370000000  0.5081320000000 1.0
C      1  0.4359080000000  0.5014320000000  0.5245430000000 1.0
C      1  0.4767430000000  0.4433460000000  0.5360260000000 1.0
C      1  0.5560830000000  0.4520590000000  0.4793380000000 1.0
C      1  0.4613850000000  0.4642420000000  0.5491170000000 1.0
C      1  0.4490070000000  0.4611840000000  0.5046080000000 1.0
C      1  0.4727710000000  0.4929920000000  0.4406890000000 1.0
C      1  0.4403440000000  0.5060350000000  0.4951010000000 1.0
C      1  0.4615200000000  0.4732300000000  0.4599730000000 1.0
C      1  0.4308870000000  0.4698610000000  0.4615930000000 1.0
C      1  0.5518770000000  0.5660470000000  0.4632050000000 1.0
C      1  0.4534580000000  0.5471410000000  0.5343280000000 1.0
C      1  0.5273230000000  0.5115330000000  0.4734240000000 1.0
C      1  0.5033440000000  0.4584470000000  0.4433770000000 1.0
C      1  0.5142330000000  0.5085870000000  0.4278380000000 1.0
C      1  0.5463820000000  0.5491840000000  0.5362930000000 1.0
END
