TITL C-231500-4277-4 88.0155084644775 125000 -362.676597157279 0 0 54 (C1) n - 1
REM
REM in /rds/project/t2_vol4/rds-t2-cs072/BORA/CARBON/from-Arr/AIRSS/Generating-Clusters/GAP-ML-2020/Only-C1/SD-CG/HFTN-CG
REM
REM
REM
REM
REM
REM ./C.cell (11c1c37f851c82e70ff6c80c92926a4b)
REM AIRSS Version 0.9.1 bugfix July 2018 build 013d7b7c2542+ Fri, 06 Jul 2018 19:26:36 +0100
REM compiler GCC version 9.3.0
REM options -cpp -mtune=generic -march=x86-64 -g -O0
REM seed 370838375 -392171118 1805235608 497130387 -1275573797 -860513185 -248269131 1444718463 -20339899 1774100787 -1547157494 809208273 468109816 -1065502954 92763337 1983305668 1567242369 -2058216220 417870472 -1823133822 -1019564520 -1140626707 1632845429 1877964070 -674388865 -1103106926 -779630904 -274130129 -1278337666 -1951171202 -1928179866 1596164112 -553802499
REM
CELL 1.54180   50.00000   50.00000   50.00000   90.00000   90.00000   90.00000
LATT -1
SFAC C  
C      1  0.5312050000000  0.4474460000000  0.4730080000000 1.0
C      1  0.5595000000000  0.5145610000000  0.4970940000000 1.0
C      1  0.5223200000000  0.4245550000000  0.5165950000000 1.0
C      1  0.4507050000000  0.5523920000000  0.5040370000000 1.0
C      1  0.5008450000000  0.4454870000000  0.5204390000000 1.0
C      1  0.5212920000000  0.5273180000000  0.5553640000000 1.0
C      1  0.5053380000000  0.4450760000000  0.4625310000000 1.0
C      1  0.4948480000000  0.4926430000000  0.4633070000000 1.0
C      1  0.4689000000000  0.5172720000000  0.5309480000000 1.0
C      1  0.5282090000000  0.5598000000000  0.4764730000000 1.0
C      1  0.5380310000000  0.4293970000000  0.4943870000000 1.0
C      1  0.4767880000000  0.5662640000000  0.5050980000000 1.0
C      1  0.5372420000000  0.4751170000000  0.4818820000000 1.0
C      1  0.5235370000000  0.5469210000000  0.5022200000000 1.0
C      1  0.4995050000000  0.5563780000000  0.5178010000000 1.0
C      1  0.4196960000000  0.5109710000000  0.4919670000000 1.0
C      1  0.5394760000000  0.5516880000000  0.5273340000000 1.0
C      1  0.5208980000000  0.4707370000000  0.5111300000000 1.0
C      1  0.4874030000000  0.5067510000000  0.5092880000000 1.0
C      1  0.5469560000000  0.5422140000000  0.4637870000000 1.0
C      1  0.4943990000000  0.4586080000000  0.5453970000000 1.0
C      1  0.4642460000000  0.4569410000000  0.4625410000000 1.0
C      1  0.4790810000000  0.5651280000000  0.4761530000000 1.0
C      1  0.4799420000000  0.4885710000000  0.4890470000000 1.0
C      1  0.5132130000000  0.5534130000000  0.5424840000000 1.0
C      1  0.4395650000000  0.5030730000000  0.4741080000000 1.0
C      1  0.4396730000000  0.4853790000000  0.5295970000000 1.0
C      1  0.4888190000000  0.4831590000000  0.5537710000000 1.0
C      1  0.4527090000000  0.4777020000000  0.4816690000000 1.0
C      1  0.4419190000000  0.4647970000000  0.5088260000000 1.0
C      1  0.5293900000000  0.5223640000000  0.4525400000000 1.0
C      1  0.5135940000000  0.4992700000000  0.5183610000000 1.0
C      1  0.4544350000000  0.5494820000000  0.4745770000000 1.0
C      1  0.4459810000000  0.5320100000000  0.5221460000000 1.0
C      1  0.5110930000000  0.5024700000000  0.5477290000000 1.0
C      1  0.5482560000000  0.4360450000000  0.5198330000000 1.0
C      1  0.4624120000000  0.4938760000000  0.5458870000000 1.0
C      1  0.4820300000000  0.5169380000000  0.4526650000000 1.0
C      1  0.5640630000000  0.4825640000000  0.5230030000000 1.0
C      1  0.5633130000000  0.5107730000000  0.5274720000000 1.0
C      1  0.4277700000000  0.5100890000000  0.5183560000000 1.0
C      1  0.4800180000000  0.4369150000000  0.4758510000000 1.0
C      1  0.4498300000000  0.4388890000000  0.5124540000000 1.0
C      1  0.5673000000000  0.5344930000000  0.4801250000000 1.0
C      1  0.4564830000000  0.5238440000000  0.4630160000000 1.0
C      1  0.5272640000000  0.5162760000000  0.4980150000000 1.0
C      1  0.5026630000000  0.5601010000000  0.4619710000000 1.0
C      1  0.4895760000000  0.4658470000000  0.4514060000000 1.0
C      1  0.4766880000000  0.4366960000000  0.5042630000000 1.0
C      1  0.5454810000000  0.4622930000000  0.5279900000000 1.0
C      1  0.5481890000000  0.5288560000000  0.5412910000000 1.0
C      1  0.5231420000000  0.5000090000000  0.4705130000000 1.0
C      1  0.5031790000000  0.5351650000000  0.4483250000000 1.0
C      1  0.5615890000000  0.4849760000000  0.4939310000000 1.0
END
