TITL C-231505-4284-10 -0.0757072027684207 125000 -301.929554534691 0 0 46 (C1) n - 1
REM
REM in /rds/project/t2_vol4/rds-t2-cs072/BORA/CARBON/from-Arr/AIRSS/Generating-Clusters/GAP-ML-2020/Only-C1/SD-CG/HFTN-CG
REM
REM
REM
REM
REM
REM ./C.cell (11c1c37f851c82e70ff6c80c92926a4b)
REM AIRSS Version 0.9.1 bugfix July 2018 build 013d7b7c2542+ Fri, 06 Jul 2018 19:26:36 +0100
REM compiler GCC version 9.3.0
REM options -cpp -mtune=generic -march=x86-64 -g -O0
REM seed 1697107240 704224877 576825023 -1545249903 2119332619 1800147539 1446145465 -1219001032 -1411393573 -1529511730 1003052319 512213294 -547290237 -1242775726 83648537 1549700115 1330814483 -1143998494 1301577342 1499779160 -860946033 1522799138 152434384 140030469 1418305753 -345203773 378920173 -1709334211 1608342021 838466347 -508631288 -518175219 944553421
REM
CELL 1.54180   50.00000   50.00000   50.00000   90.00000   90.00000   90.00000
LATT -1
SFAC C  
C      1  0.5245730000000  0.5208170000000  0.4832580000000 1.0
C      1  0.5585100000000  0.4989270000000  0.5091260000000 1.0
C      1  0.4936820000000  0.5221930000000  0.5375160000000 1.0
C      1  0.4442830000000  0.4931880000000  0.4953840000000 1.0
C      1  0.5178750000000  0.5056970000000  0.5353800000000 1.0
C      1  0.5249800000000  0.4588080000000  0.5463440000000 1.0
C      1  0.5434090000000  0.4878130000000  0.4468940000000 1.0
C      1  0.4738030000000  0.4932350000000  0.5045680000000 1.0
C      1  0.5502840000000  0.4587020000000  0.5414450000000 1.0
C      1  0.5540220000000  0.4720870000000  0.5173390000000 1.0
C      1  0.4736270000000  0.4704140000000  0.4625730000000 1.0
C      1  0.4727630000000  0.5590900000000  0.5187350000000 1.0
C      1  0.4930580000000  0.5516570000000  0.5391600000000 1.0
C      1  0.5162670000000  0.5600920000000  0.5232620000000 1.0
C      1  0.5469120000000  0.5362570000000  0.5526620000000 1.0
C      1  0.4344710000000  0.4759430000000  0.5142050000000 1.0
C      1  0.4832160000000  0.5211100000000  0.5086510000000 1.0
C      1  0.4493210000000  0.5191140000000  0.5375090000000 1.0
C      1  0.4558320000000  0.5194950000000  0.4668200000000 1.0
C      1  0.4767880000000  0.4814290000000  0.5323940000000 1.0
C      1  0.5389530000000  0.4637770000000  0.4937750000000 1.0
C      1  0.4519470000000  0.4904960000000  0.4660170000000 1.0
C      1  0.5647840000000  0.4981050000000  0.4808900000000 1.0
C      1  0.5184890000000  0.4785860000000  0.4482260000000 1.0
C      1  0.5547270000000  0.4735230000000  0.4707470000000 1.0
C      1  0.5097870000000  0.4640620000000  0.5002510000000 1.0
C      1  0.5382480000000  0.5130420000000  0.5586080000000 1.0
C      1  0.5066980000000  0.4770300000000  0.5309790000000 1.0
C      1  0.4660600000000  0.4464230000000  0.5045700000000 1.0
C      1  0.4953420000000  0.5156120000000  0.4465020000000 1.0
C      1  0.4422850000000  0.5233210000000  0.4918380000000 1.0
C      1  0.4695130000000  0.4459850000000  0.4777090000000 1.0
C      1  0.4560940000000  0.5357230000000  0.5139660000000 1.0
C      1  0.4906610000000  0.4979270000000  0.4269420000000 1.0
C      1  0.5484220000000  0.5138460000000  0.4643450000000 1.0
C      1  0.5086780000000  0.4996260000000  0.4697480000000 1.0
C      1  0.4916870000000  0.4732010000000  0.4386310000000 1.0
C      1  0.4805130000000  0.5321690000000  0.4626740000000 1.0
C      1  0.4700540000000  0.5059830000000  0.5471190000000 1.0
C      1  0.4914320000000  0.4818900000000  0.4843850000000 1.0
C      1  0.4561950000000  0.4614510000000  0.5258930000000 1.0
C      1  0.4916830000000  0.4403230000000  0.4971260000000 1.0
C      1  0.4981200000000  0.5368260000000  0.4861410000000 1.0
C      1  0.4973810000000  0.5619820000000  0.5019280000000 1.0
C      1  0.5354370000000  0.5181170000000  0.5118850000000 1.0
C      1  0.5391340000000  0.5449040000000  0.5258770000000 1.0
END
