TITL C-231485-4156-5 -0.0929342954520102 125000 -334.463490239814 0 0 50 (C1) n - 1
REM
REM in /rds/project/t2_vol4/rds-t2-cs072/BORA/CARBON/from-Arr/AIRSS/Generating-Clusters/GAP-ML-2020/Only-C1/SD-CG/HFTN-CG
REM
REM
REM
REM
REM
REM ./C.cell (11c1c37f851c82e70ff6c80c92926a4b)
REM AIRSS Version 0.9.1 bugfix July 2018 build 013d7b7c2542+ Fri, 06 Jul 2018 19:26:36 +0100
REM compiler GCC version 9.3.0
REM options -cpp -mtune=generic -march=x86-64 -g -O0
REM seed -293842250 -387225883 -2095421790 -467497612 1540632030 -1958669524 -227801239 1877516537 1175995818 1625650016 -469123078 -1154349714 1148042217 -2046657056 -244376557 -819698153 1592105158 -686100549 1188753242 340833716 -1730352459 -1555518606 -673887538 -1770867243 1589600441 -12952859 458419030 1198919607 -1240622982 -129654317 -1302329199 -1034443733 -1358471486
REM
CELL 1.54180   50.00000   50.00000   50.00000   90.00000   90.00000   90.00000
LATT -1
SFAC C  
C      1  0.4858720000000  0.4812200000000  0.4368330000000 1.0
C      1  0.5133310000000  0.4692810000000  0.5013840000000 1.0
C      1  0.4794490000000  0.5462920000000  0.4892770000000 1.0
C      1  0.5227580000000  0.4333700000000  0.5220020000000 1.0
C      1  0.4389900000000  0.4880710000000  0.4900680000000 1.0
C      1  0.4789840000000  0.4570480000000  0.5340260000000 1.0
C      1  0.5092090000000  0.5420190000000  0.4539530000000 1.0
C      1  0.5657060000000  0.4895970000000  0.5056200000000 1.0
C      1  0.4835370000000  0.5350340000000  0.5268530000000 1.0
C      1  0.5378680000000  0.4571120000000  0.5117190000000 1.0
C      1  0.5125440000000  0.5121690000000  0.4835670000000 1.0
C      1  0.4991730000000  0.4367370000000  0.5324440000000 1.0
C      1  0.5016360000000  0.4571530000000  0.4783180000000 1.0
C      1  0.5249990000000  0.5493800000000  0.5086340000000 1.0
C      1  0.4582900000000  0.4675600000000  0.4838500000000 1.0
C      1  0.4674280000000  0.5252210000000  0.4727930000000 1.0
C      1  0.5193240000000  0.4442060000000  0.4623340000000 1.0
C      1  0.4370190000000  0.5272710000000  0.5118310000000 1.0
C      1  0.4385410000000  0.5537200000000  0.5167980000000 1.0
C      1  0.4878740000000  0.5094600000000  0.4281490000000 1.0
C      1  0.5469360000000  0.5321620000000  0.5150100000000 1.0
C      1  0.5437770000000  0.5226400000000  0.5427190000000 1.0
C      1  0.4872970000000  0.4835770000000  0.5454380000000 1.0
C      1  0.5482480000000  0.4796980000000  0.4650120000000 1.0
C      1  0.4502560000000  0.5094240000000  0.5581420000000 1.0
C      1  0.4388270000000  0.4819700000000  0.5182690000000 1.0
C      1  0.5313510000000  0.4640620000000  0.4473410000000 1.0
C      1  0.4877850000000  0.5033120000000  0.4723500000000 1.0
C      1  0.4805640000000  0.4752020000000  0.4666200000000 1.0
C      1  0.5304330000000  0.5233340000000  0.4450860000000 1.0
C      1  0.4380140000000  0.5063010000000  0.5329870000000 1.0
C      1  0.5034210000000  0.5132940000000  0.5698960000000 1.0
C      1  0.5196650000000  0.5332500000000  0.5549750000000 1.0
C      1  0.5414160000000  0.4944490000000  0.5470730000000 1.0
C      1  0.5080290000000  0.4973980000000  0.5071570000000 1.0
C      1  0.5533110000000  0.4780560000000  0.5282830000000 1.0
C      1  0.5145500000000  0.4895790000000  0.5578420000000 1.0
C      1  0.5568130000000  0.4669500000000  0.4887160000000 1.0
C      1  0.5403890000000  0.5081360000000  0.4698980000000 1.0
C      1  0.5572940000000  0.5146310000000  0.4948570000000 1.0
C      1  0.5179870000000  0.5062610000000  0.4262000000000 1.0
C      1  0.5144380000000  0.4779800000000  0.4302220000000 1.0
C      1  0.4842780000000  0.5041990000000  0.5216160000000 1.0
C      1  0.4835310000000  0.5295530000000  0.4471920000000 1.0
C      1  0.4655940000000  0.5526930000000  0.5133400000000 1.0
C      1  0.5085380000000  0.5472240000000  0.5327430000000 1.0
C      1  0.5083180000000  0.5435980000000  0.4842360000000 1.0
C      1  0.4590130000000  0.4616430000000  0.5137990000000 1.0
C      1  0.4426790000000  0.5154890000000  0.4859960000000 1.0
C      1  0.4747120000000  0.5020140000000  0.5665300000000 1.0
END
