TITL C-231484-4185-3 66.1498544467017 125000 -1059.37802764216 0 0 152 (C1) n - 1
REM
REM in /rds/project/t2_vol4/rds-t2-cs072/BORA/CARBON/from-Arr/AIRSS/Generating-Clusters/GAP-ML-2020/Only-C1/SD-CG/HFTN-CG
REM
REM
REM
REM
REM
REM ./C.cell (11c1c37f851c82e70ff6c80c92926a4b)
REM AIRSS Version 0.9.1 bugfix July 2018 build 013d7b7c2542+ Fri, 06 Jul 2018 19:26:36 +0100
REM compiler GCC version 9.3.0
REM options -cpp -mtune=generic -march=x86-64 -g -O0
REM seed -284077538 1390676533 1335898317 1466631717 1354621962 -2120789166 -663874639 1418037548 1237385523 -800824953 1404360342 274011187 806875417 -1670034434 -2020313197 -1308188536 1348163796 894262506 -1948212677 1532984071 745556987 576007414 2145907942 -1249016218 -486587398 -2003542893 -1157689538 -1600798544 -103389628 -1620241503 -151226971 -1702685971 2117086749
REM
CELL 1.54180   50.00000   50.00000   50.00000   90.00000   90.00000   90.00000
LATT -1
SFAC C  
C      1  0.4308590000000  0.5439320000000  0.5440700000000 1.0
C      1  0.4221860000000  0.4833700000000  0.5766350000000 1.0
C      1  0.5835700000000  0.4893490000000  0.5568510000000 1.0
C      1  0.5205040000000  0.4760540000000  0.4461060000000 1.0
C      1  0.5022140000000  0.4614290000000  0.5233450000000 1.0
C      1  0.5012450000000  0.6074230000000  0.5237510000000 1.0
C      1  0.4381400000000  0.5151440000000  0.4198570000000 1.0
C      1  0.5123830000000  0.5923620000000  0.5450570000000 1.0
C      1  0.4598380000000  0.4699100000000  0.4073410000000 1.0
C      1  0.4879580000000  0.4824730000000  0.5094870000000 1.0
C      1  0.4691380000000  0.4797900000000  0.5897300000000 1.0
C      1  0.4514840000000  0.4763890000000  0.5445210000000 1.0
C      1  0.4283430000000  0.5290020000000  0.4421100000000 1.0
C      1  0.5930610000000  0.5040800000000  0.5347870000000 1.0
C      1  0.4631130000000  0.5857600000000  0.5415390000000 1.0
C      1  0.5002140000000  0.5278240000000  0.5322970000000 1.0
C      1  0.5525900000000  0.4263570000000  0.4925760000000 1.0
C      1  0.5494490000000  0.5272060000000  0.4112830000000 1.0
C      1  0.4669550000000  0.4509000000000  0.5841430000000 1.0
C      1  0.4387120000000  0.4865320000000  0.4204550000000 1.0
C      1  0.5779970000000  0.4605630000000  0.5566730000000 1.0
C      1  0.5113490000000  0.5972490000000  0.4984550000000 1.0
C      1  0.4002830000000  0.4670520000000  0.5190450000000 1.0
C      1  0.5621900000000  0.4285350000000  0.4457600000000 1.0
C      1  0.4862940000000  0.4438840000000  0.4756110000000 1.0
C      1  0.4381920000000  0.5705210000000  0.5353470000000 1.0
C      1  0.4189210000000  0.4557660000000  0.5650110000000 1.0
C      1  0.5967720000000  0.4706070000000  0.4943780000000 1.0
C      1  0.4769650000000  0.4907430000000  0.4625020000000 1.0
C      1  0.4485110000000  0.4139680000000  0.4993900000000 1.0
C      1  0.5248440000000  0.5421600000000  0.4068280000000 1.0
C      1  0.4407500000000  0.5556660000000  0.4436000000000 1.0
C      1  0.4567340000000  0.4440890000000  0.4179540000000 1.0
C      1  0.5058560000000  0.5218360000000  0.3975920000000 1.0
C      1  0.4259300000000  0.4707270000000  0.4422380000000 1.0
C      1  0.5732550000000  0.4352660000000  0.4722010000000 1.0
C      1  0.5294360000000  0.4599130000000  0.4204250000000 1.0
C      1  0.5541910000000  0.5839950000000  0.5126690000000 1.0
C      1  0.5143890000000  0.5658290000000  0.4211830000000 1.0
C      1  0.5572430000000  0.4532100000000  0.5739340000000 1.0
C      1  0.4956920000000  0.5917760000000  0.4492840000000 1.0
C      1  0.4356470000000  0.4439690000000  0.4374430000000 1.0
C      1  0.4578680000000  0.4802080000000  0.5143830000000 1.0
C      1  0.5242910000000  0.5222310000000  0.5909810000000 1.0
C      1  0.5471270000000  0.4058570000000  0.4502600000000 1.0
C      1  0.5514550000000  0.5004940000000  0.4051170000000 1.0
C      1  0.5401880000000  0.4992610000000  0.5797300000000 1.0
C      1  0.5297340000000  0.4623660000000  0.5144650000000 1.0
C      1  0.4983200000000  0.4086110000000  0.5093560000000 1.0
C      1  0.4696360000000  0.5238980000000  0.4981980000000 1.0
C      1  0.4883100000000  0.5934250000000  0.4787910000000 1.0
C      1  0.5285980000000  0.4955510000000  0.5484120000000 1.0
C      1  0.4982640000000  0.5181560000000  0.6016110000000 1.0
C      1  0.5877420000000  0.5439620000000  0.5093680000000 1.0
C      1  0.4985140000000  0.4830700000000  0.4822340000000 1.0
C      1  0.4734810000000  0.5148940000000  0.5461820000000 1.0
C      1  0.5671930000000  0.5085770000000  0.5717870000000 1.0
C      1  0.4418060000000  0.5908650000000  0.4892560000000 1.0
C      1  0.4605020000000  0.5130660000000  0.4726910000000 1.0
C      1  0.4284450000000  0.5753120000000  0.5088250000000 1.0
C      1  0.4540060000000  0.5318460000000  0.5909430000000 1.0
C      1  0.4869760000000  0.4376750000000  0.5071820000000 1.0
C      1  0.5075810000000  0.4926260000000  0.3928380000000 1.0
C      1  0.5378770000000  0.4042260000000  0.4759210000000 1.0
C      1  0.5947910000000  0.4513740000000  0.5133520000000 1.0
C      1  0.5840990000000  0.5023250000000  0.4437380000000 1.0
C      1  0.4042860000000  0.4857000000000  0.4990780000000 1.0
C      1  0.5343290000000  0.4509460000000  0.4895050000000 1.0
C      1  0.5155590000000  0.5093620000000  0.4831590000000 1.0
C      1  0.4150840000000  0.5294030000000  0.4875630000000 1.0
C      1  0.4875730000000  0.4195830000000  0.5563420000000 1.0
C      1  0.5851690000000  0.4604160000000  0.4703140000000 1.0
C      1  0.5379510000000  0.4703300000000  0.5865410000000 1.0
C      1  0.5899270000000  0.5197870000000  0.4665930000000 1.0
C      1  0.4855830000000  0.3977100000000  0.4698950000000 1.0
C      1  0.4760400000000  0.4204790000000  0.4531080000000 1.0
C      1  0.4618370000000  0.5303860000000  0.4126580000000 1.0
C      1  0.5811720000000  0.5308580000000  0.5350300000000 1.0
C      1  0.5081830000000  0.4104150000000  0.5378910000000 1.0
C      1  0.5978790000000  0.5227180000000  0.4927530000000 1.0
C      1  0.4774580000000  0.5641150000000  0.4781930000000 1.0
C      1  0.4652120000000  0.6041450000000  0.4948070000000 1.0
C      1  0.4728740000000  0.6047800000000  0.5222010000000 1.0
C      1  0.5582020000000  0.4234130000000  0.5235950000000 1.0
C      1  0.4437950000000  0.4655400000000  0.4872350000000 1.0
C      1  0.5019810000000  0.5482170000000  0.4682150000000 1.0
C      1  0.5710830000000  0.4747440000000  0.4486940000000 1.0
C      1  0.5018060000000  0.4484190000000  0.4128580000000 1.0
C      1  0.4812160000000  0.5407860000000  0.5938330000000 1.0
C      1  0.4963990000000  0.5589450000000  0.5779430000000 1.0
C      1  0.4716010000000  0.3986420000000  0.4948460000000 1.0
C      1  0.5371000000000  0.4342400000000  0.5658710000000 1.0
C      1  0.4482030000000  0.5261210000000  0.5615780000000 1.0
C      1  0.5394710000000  0.5981020000000  0.4903830000000 1.0
C      1  0.4474710000000  0.4471500000000  0.5623520000000 1.0
C      1  0.5663120000000  0.5235360000000  0.4334560000000 1.0
C      1  0.5425420000000  0.5835840000000  0.4648920000000 1.0
C      1  0.4453250000000  0.5670120000000  0.4697370000000 1.0
C      1  0.5449590000000  0.4861800000000  0.4574440000000 1.0
C      1  0.4816470000000  0.4319820000000  0.4256930000000 1.0
C      1  0.5124020000000  0.4588470000000  0.4711940000000 1.0
C      1  0.5703030000000  0.5644530000000  0.4994010000000 1.0
C      1  0.4885910000000  0.4711610000000  0.4002330000000 1.0
C      1  0.4220900000000  0.4824310000000  0.4724390000000 1.0
C      1  0.5536610000000  0.5251850000000  0.5199940000000 1.0
C      1  0.4291920000000  0.5128710000000  0.4676680000000 1.0
C      1  0.4864880000000  0.5725380000000  0.4277940000000 1.0
C      1  0.5362050000000  0.4180010000000  0.5426440000000 1.0
C      1  0.5233760000000  0.5480730000000  0.5786250000000 1.0
C      1  0.4964430000000  0.5131290000000  0.5070310000000 1.0
C      1  0.5293530000000  0.5246320000000  0.5387720000000 1.0
C      1  0.4154170000000  0.5207400000000  0.5355420000000 1.0
C      1  0.5541540000000  0.5576160000000  0.4754700000000 1.0
C      1  0.4609580000000  0.4259630000000  0.5470100000000 1.0
C      1  0.4375040000000  0.4328790000000  0.4822550000000 1.0
C      1  0.5910120000000  0.4975380000000  0.5060510000000 1.0
C      1  0.5409040000000  0.5499700000000  0.5554060000000 1.0
C      1  0.5035200000000  0.4750610000000  0.5515590000000 1.0
C      1  0.5235690000000  0.5846290000000  0.4432420000000 1.0
C      1  0.4912100000000  0.4374010000000  0.5788560000000 1.0
C      1  0.5244480000000  0.5541110000000  0.4858570000000 1.0
C      1  0.4764030000000  0.4874200000000  0.5580520000000 1.0
C      1  0.5069460000000  0.5224430000000  0.4588430000000 1.0
C      1  0.4570620000000  0.5096500000000  0.5191230000000 1.0
C      1  0.4857220000000  0.5160560000000  0.4157870000000 1.0
C      1  0.4059110000000  0.5134830000000  0.5088070000000 1.0
C      1  0.4664820000000  0.4649780000000  0.4683010000000 1.0
C      1  0.5574170000000  0.4517860000000  0.4311330000000 1.0
C      1  0.4623360000000  0.5568460000000  0.4247080000000 1.0
C      1  0.5151870000000  0.4537800000000  0.5742960000000 1.0
C      1  0.4930890000000  0.5553050000000  0.5246610000000 1.0
C      1  0.4449510000000  0.4262200000000  0.4566030000000 1.0
C      1  0.4725520000000  0.5522160000000  0.5040030000000 1.0
C      1  0.5448190000000  0.5060750000000  0.4785420000000 1.0
C      1  0.4244030000000  0.5548950000000  0.4887570000000 1.0
C      1  0.5580640000000  0.5008150000000  0.5054050000000 1.0
C      1  0.5324320000000  0.4821540000000  0.4008190000000 1.0
C      1  0.4302860000000  0.5004780000000  0.5542010000000 1.0
C      1  0.5114150000000  0.3982770000000  0.4841980000000 1.0
C      1  0.4436010000000  0.5132280000000  0.6082080000000 1.0
C      1  0.4893940000000  0.5741120000000  0.5526460000000 1.0
C      1  0.4893160000000  0.4929360000000  0.6043410000000 1.0
C      1  0.5165000000000  0.5670040000000  0.5107750000000 1.0
C      1  0.5355990000000  0.5749160000000  0.5351110000000 1.0
C      1  0.5616190000000  0.5315880000000  0.4627320000000 1.0
C      1  0.5440540000000  0.4832760000000  0.5253750000000 1.0
C      1  0.4967920000000  0.5006930000000  0.4419530000000 1.0
C      1  0.4600800000000  0.4297220000000  0.5196070000000 1.0
C      1  0.4028530000000  0.4569330000000  0.5422760000000 1.0
C      1  0.5679800000000  0.5351850000000  0.5602140000000 1.0
C      1  0.4411950000000  0.4879820000000  0.5972250000000 1.0
C      1  0.5793110000000  0.4420890000000  0.5329160000000 1.0
END
