TITL C-23834-9662-4 145.27934287179 125000 -770.690969232158 0 0 109 (C1) n - 1
REM
REM in /rds/project/t2_vol4/rds-t2-cs072/BORA/CARBON/from-Arr/AIRSS/Generating-Clusters/GAP-ML-2020/Only-C1/SD-CG/HFTN-CG
REM
REM
REM
REM
REM
REM ./C.cell (11c1c37f851c82e70ff6c80c92926a4b)
REM AIRSS Version 0.9.1 bugfix July 2018 build 013d7b7c2542+ Fri, 06 Jul 2018 19:26:36 +0100
REM compiler GCC version 9.3.0
REM options -cpp -mtune=generic -march=x86-64 -g -O0
REM seed 37027880 -51776291 420353827 -1446805541 -1572828475 -2058117656 -58630650 385568147 -593002534 -1920323840 149156972 -1648013826 1378315932 -305952902 131879916 724057941 1785366129 -1826873957 -2116616983 1917488280 -1737579019 1705992989 152008198 -1850041790 -533760484 729949719 405068413 -2001373525 -1465650025 -1923010084 -1723448687 -774242170 -1993097592
REM
CELL 1.54180   50.00000   50.00000   50.00000   90.00000   90.00000   90.00000
LATT -1
SFAC C  
C      1  0.5931960000000  0.4940100000000  0.5026480000000 1.0
C      1  0.5578000000000  0.5239660000000  0.4319550000000 1.0
C      1  0.4944650000000  0.4905950000000  0.4520970000000 1.0
C      1  0.4138380000000  0.5306950000000  0.4681990000000 1.0
C      1  0.5471550000000  0.5439840000000  0.5727400000000 1.0
C      1  0.4945470000000  0.5375480000000  0.5224800000000 1.0
C      1  0.5073590000000  0.4381810000000  0.5516930000000 1.0
C      1  0.4837990000000  0.4471960000000  0.5654480000000 1.0
C      1  0.5645380000000  0.5211460000000  0.5663680000000 1.0
C      1  0.5264600000000  0.4350570000000  0.5047500000000 1.0
C      1  0.5232230000000  0.5367150000000  0.5269000000000 1.0
C      1  0.4506490000000  0.5500550000000  0.5569550000000 1.0
C      1  0.4909850000000  0.5739870000000  0.5532800000000 1.0
C      1  0.4620640000000  0.5224500000000  0.4749750000000 1.0
C      1  0.5476150000000  0.4781200000000  0.4250130000000 1.0
C      1  0.4637640000000  0.4900570000000  0.5828580000000 1.0
C      1  0.4147080000000  0.4946600000000  0.4983580000000 1.0
C      1  0.4522160000000  0.4351820000000  0.4703450000000 1.0
C      1  0.4594750000000  0.5243570000000  0.4270780000000 1.0
C      1  0.5390880000000  0.4531860000000  0.4366610000000 1.0
C      1  0.4284410000000  0.4849110000000  0.4507230000000 1.0
C      1  0.4673460000000  0.4784300000000  0.4891330000000 1.0
C      1  0.4318690000000  0.5497930000000  0.4560800000000 1.0
C      1  0.4343810000000  0.5318020000000  0.4328770000000 1.0
C      1  0.5877090000000  0.5195130000000  0.5512150000000 1.0
C      1  0.4640230000000  0.4487960000000  0.4473630000000 1.0
C      1  0.5051810000000  0.4264020000000  0.5253870000000 1.0
C      1  0.4337740000000  0.4422860000000  0.5134180000000 1.0
C      1  0.5777170000000  0.5362500000000  0.4767140000000 1.0
C      1  0.4842270000000  0.4569920000000  0.4952210000000 1.0
C      1  0.5402940000000  0.5268740000000  0.5054290000000 1.0
C      1  0.5464590000000  0.5653330000000  0.5556300000000 1.0
C      1  0.5116000000000  0.4629950000000  0.4961570000000 1.0
C      1  0.5435510000000  0.4944620000000  0.4773880000000 1.0
C      1  0.5719840000000  0.4895510000000  0.4621890000000 1.0
C      1  0.4196470000000  0.5114390000000  0.4474040000000 1.0
C      1  0.5038140000000  0.5035280000000  0.4887680000000 1.0
C      1  0.5071400000000  0.5826260000000  0.5316660000000 1.0
C      1  0.4293010000000  0.5407940000000  0.5136170000000 1.0
C      1  0.5323620000000  0.4504910000000  0.5603580000000 1.0
C      1  0.4907140000000  0.5844060000000  0.5083070000000 1.0
C      1  0.4639000000000  0.5717860000000  0.5445070000000 1.0
C      1  0.5283900000000  0.5222200000000  0.4244920000000 1.0
C      1  0.4586330000000  0.4417350000000  0.5535830000000 1.0
C      1  0.5444780000000  0.4964010000000  0.5090540000000 1.0
C      1  0.5622810000000  0.4879250000000  0.5328820000000 1.0
C      1  0.4748940000000  0.4872950000000  0.4142690000000 1.0
C      1  0.4557600000000  0.4293170000000  0.5277040000000 1.0
C      1  0.4745480000000  0.5055960000000  0.4958870000000 1.0
C      1  0.5265440000000  0.5203450000000  0.4789400000000 1.0
C      1  0.4222380000000  0.4748260000000  0.4773770000000 1.0
C      1  0.5826420000000  0.4663770000000  0.4994730000000 1.0
C      1  0.5645490000000  0.5437200000000  0.4527550000000 1.0
C      1  0.5334860000000  0.5682380000000  0.5303530000000 1.0
C      1  0.5178940000000  0.5328730000000  0.5755080000000 1.0
C      1  0.4534510000000  0.4753500000000  0.4362390000000 1.0
C      1  0.5881790000000  0.5022130000000  0.5301560000000 1.0
C      1  0.4164590000000  0.5229090000000  0.4947390000000 1.0
C      1  0.4762210000000  0.5154000000000  0.5884840000000 1.0
C      1  0.5106150000000  0.4515780000000  0.4301900000000 1.0
C      1  0.4460760000000  0.5608970000000  0.5014120000000 1.0
C      1  0.5305700000000  0.5746110000000  0.4794420000000 1.0
C      1  0.5223190000000  0.5156760000000  0.5495890000000 1.0
C      1  0.4899100000000  0.4366370000000  0.4418920000000 1.0
C      1  0.5464750000000  0.4982270000000  0.5577060000000 1.0
C      1  0.5097250000000  0.4838040000000  0.5875970000000 1.0
C      1  0.5191000000000  0.4036550000000  0.4646990000000 1.0
C      1  0.4945590000000  0.5432600000000  0.4466290000000 1.0
C      1  0.5228010000000  0.5368680000000  0.4536420000000 1.0
C      1  0.5335550000000  0.4245900000000  0.4765040000000 1.0
C      1  0.5329180000000  0.4759440000000  0.5735940000000 1.0
C      1  0.5169930000000  0.4866500000000  0.5138320000000 1.0
C      1  0.4828120000000  0.5638830000000  0.4645280000000 1.0
C      1  0.5621590000000  0.5461130000000  0.4986800000000 1.0
C      1  0.5698900000000  0.4596420000000  0.5249190000000 1.0
C      1  0.4810910000000  0.5134410000000  0.5236340000000 1.0
C      1  0.5665460000000  0.4969570000000  0.4347830000000 1.0
C      1  0.4636340000000  0.5769250000000  0.5166820000000 1.0
C      1  0.4788160000000  0.5160750000000  0.4085730000000 1.0
C      1  0.5010470000000  0.5783470000000  0.4818860000000 1.0
C      1  0.5514700000000  0.4435490000000  0.4612440000000 1.0
C      1  0.4378240000000  0.4606380000000  0.5561400000000 1.0
C      1  0.4776400000000  0.5187830000000  0.4513140000000 1.0
C      1  0.4769320000000  0.4278360000000  0.4852370000000 1.0
C      1  0.5044090000000  0.5117610000000  0.5912640000000 1.0
C      1  0.5515830000000  0.4369040000000  0.5192080000000 1.0
C      1  0.4705610000000  0.5405240000000  0.5762710000000 1.0
C      1  0.4175600000000  0.4880560000000  0.5253890000000 1.0
C      1  0.5872090000000  0.5087810000000  0.4792890000000 1.0
C      1  0.5407580000000  0.5596330000000  0.4569260000000 1.0
C      1  0.4322770000000  0.5334100000000  0.5415590000000 1.0
C      1  0.5165240000000  0.4822100000000  0.4719720000000 1.0
C      1  0.4720140000000  0.4750910000000  0.4605060000000 1.0
C      1  0.5016230000000  0.4970430000000  0.5361230000000 1.0
C      1  0.4959460000000  0.4192950000000  0.4639700000000 1.0
C      1  0.4790890000000  0.4218790000000  0.5140190000000 1.0
C      1  0.5015830000000  0.5328310000000  0.4174590000000 1.0
C      1  0.4275160000000  0.5052470000000  0.5466920000000 1.0
C      1  0.4406660000000  0.4868710000000  0.5661530000000 1.0
C      1  0.4849010000000  0.4699940000000  0.5830080000000 1.0
C      1  0.5014010000000  0.4786820000000  0.4230540000000 1.0
C      1  0.5544870000000  0.4428580000000  0.5447980000000 1.0
C      1  0.5715180000000  0.4617150000000  0.4731700000000 1.0
C      1  0.5259400000000  0.4935790000000  0.4171240000000 1.0
C      1  0.4236650000000  0.4612590000000  0.5314920000000 1.0
C      1  0.4958070000000  0.5529630000000  0.5716030000000 1.0
C      1  0.4554490000000  0.5534140000000  0.4741580000000 1.0
C      1  0.5468910000000  0.5700640000000  0.5026690000000 1.0
C      1  0.4321200000000  0.4480050000000  0.4855290000000 1.0
END
