TITL C-231503-4148-2 0.077822470123273 125000 -640.794804292299 0 0 92 (C1) n - 1
REM
REM in /rds/project/t2_vol4/rds-t2-cs072/BORA/CARBON/from-Arr/AIRSS/Generating-Clusters/GAP-ML-2020/Only-C1/SD-CG/HFTN-CG
REM
REM
REM
REM
REM
REM ./C.cell (11c1c37f851c82e70ff6c80c92926a4b)
REM AIRSS Version 0.9.1 bugfix July 2018 build 013d7b7c2542+ Fri, 06 Jul 2018 19:26:36 +0100
REM compiler GCC version 9.3.0
REM options -cpp -mtune=generic -march=x86-64 -g -O0
REM seed 121425132 479568989 638239725 1680535901 499044647 -1624517691 -1268355122 1246143077 1053094078 -1569761754 -468595840 1784104943 -400278921 649584549 -404109403 -1917945256 1646162497 1552773409 -1046603211 -886194647 -1750732423 1515098053 1873928234 893823743 519065328 1618086982 1647455427 -1533052090 1382763942 -203001559 2131264550 -1222104621 -1427989554
REM
CELL 1.54180   50.00000   50.00000   50.00000   90.00000   90.00000   90.00000
LATT -1
SFAC C  
C      1  0.5555360000000  0.4580750000000  0.4627720000000 1.0
C      1  0.5201940000000  0.4519540000000  0.5195640000000 1.0
C      1  0.5553790000000  0.4695390000000  0.5518770000000 1.0
C      1  0.4909740000000  0.5041080000000  0.5481530000000 1.0
C      1  0.4620380000000  0.4444310000000  0.4999310000000 1.0
C      1  0.4642100000000  0.5268290000000  0.4285770000000 1.0
C      1  0.4922890000000  0.5583590000000  0.5298360000000 1.0
C      1  0.4820770000000  0.4644420000000  0.5694480000000 1.0
C      1  0.5320630000000  0.5569290000000  0.5438570000000 1.0
C      1  0.4757780000000  0.5562040000000  0.5523930000000 1.0
C      1  0.4449820000000  0.5601820000000  0.5108810000000 1.0
C      1  0.5055380000000  0.4623830000000  0.4729340000000 1.0
C      1  0.4296390000000  0.5099010000000  0.4607450000000 1.0
C      1  0.5115550000000  0.5837710000000  0.5027150000000 1.0
C      1  0.4743770000000  0.4343570000000  0.4491930000000 1.0
C      1  0.5531010000000  0.5415320000000  0.4638340000000 1.0
C      1  0.5754460000000  0.5005040000000  0.4769520000000 1.0
C      1  0.5320780000000  0.5250290000000  0.4499780000000 1.0
C      1  0.5338330000000  0.5858450000000  0.4851310000000 1.0
C      1  0.4834770000000  0.4391080000000  0.4776120000000 1.0
C      1  0.5129310000000  0.5106300000000  0.4716220000000 1.0
C      1  0.5693350000000  0.4952800000000  0.5498030000000 1.0
C      1  0.5295270000000  0.4664940000000  0.5661960000000 1.0
C      1  0.5188260000000  0.4829980000000  0.4297570000000 1.0
C      1  0.4684110000000  0.5196180000000  0.4808670000000 1.0
C      1  0.5471910000000  0.5692450000000  0.4657500000000 1.0
C      1  0.4905640000000  0.4145340000000  0.5168090000000 1.0
C      1  0.5248240000000  0.5194130000000  0.5194840000000 1.0
C      1  0.4886590000000  0.5397530000000  0.5713400000000 1.0
C      1  0.4253770000000  0.4909560000000  0.5249030000000 1.0
C      1  0.4642890000000  0.5526350000000  0.4410890000000 1.0
C      1  0.4998950000000  0.4865880000000  0.4560540000000 1.0
C      1  0.4611110000000  0.4152530000000  0.5147020000000 1.0
C      1  0.4591990000000  0.5718020000000  0.4877690000000 1.0
C      1  0.4865770000000  0.5824280000000  0.4845650000000 1.0
C      1  0.5611300000000  0.4856080000000  0.4565150000000 1.0
C      1  0.5704190000000  0.5309120000000  0.5129140000000 1.0
C      1  0.4910000000000  0.5613530000000  0.4398710000000 1.0
C      1  0.4939100000000  0.5293590000000  0.4833580000000 1.0
C      1  0.4974400000000  0.4407930000000  0.5315260000000 1.0
C      1  0.5093560000000  0.5395360000000  0.4329980000000 1.0
C      1  0.5768990000000  0.4607130000000  0.5071760000000 1.0
C      1  0.4411220000000  0.4850320000000  0.5490360000000 1.0
C      1  0.4968770000000  0.5309920000000  0.5122680000000 1.0
C      1  0.5489450000000  0.4246870000000  0.4947410000000 1.0
C      1  0.4675270000000  0.4581780000000  0.4367510000000 1.0
C      1  0.5177270000000  0.5127200000000  0.5471730000000 1.0
C      1  0.4757760000000  0.5126640000000  0.5731820000000 1.0
C      1  0.4504140000000  0.5060980000000  0.4411950000000 1.0
C      1  0.5114310000000  0.4744490000000  0.5000660000000 1.0
C      1  0.4319140000000  0.4467620000000  0.5025320000000 1.0
C      1  0.5265350000000  0.4222270000000  0.4780080000000 1.0
C      1  0.5057160000000  0.4515190000000  0.5584180000000 1.0
C      1  0.4804760000000  0.5083840000000  0.5224250000000 1.0
C      1  0.4909730000000  0.4456600000000  0.4303100000000 1.0
C      1  0.4218870000000  0.4735580000000  0.5016600000000 1.0
C      1  0.4693940000000  0.4844080000000  0.4509590000000 1.0
C      1  0.4323180000000  0.5356240000000  0.4734790000000 1.0
C      1  0.4243650000000  0.5198280000000  0.5230860000000 1.0
C      1  0.5465100000000  0.5398890000000  0.5251980000000 1.0
C      1  0.4924740000000  0.5212710000000  0.4191650000000 1.0
C      1  0.4606960000000  0.4647450000000  0.5493370000000 1.0
C      1  0.4978440000000  0.5815150000000  0.4578240000000 1.0
C      1  0.4818410000000  0.4839070000000  0.5068430000000 1.0
C      1  0.4282130000000  0.5389000000000  0.5018030000000 1.0
C      1  0.4508200000000  0.5539170000000  0.5393270000000 1.0
C      1  0.5664880000000  0.4455120000000  0.4853120000000 1.0
C      1  0.5006330000000  0.4183910000000  0.4896190000000 1.0
C      1  0.5260880000000  0.5851920000000  0.4581540000000 1.0
C      1  0.5436320000000  0.4342090000000  0.5209120000000 1.0
C      1  0.5794010000000  0.5055220000000  0.5238370000000 1.0
C      1  0.4482370000000  0.5580190000000  0.4641570000000 1.0
C      1  0.4331760000000  0.4883740000000  0.4800060000000 1.0
C      1  0.5336420000000  0.5137380000000  0.5746880000000 1.0
C      1  0.5178710000000  0.5386330000000  0.5642450000000 1.0
C      1  0.4479590000000  0.5093800000000  0.5626820000000 1.0
C      1  0.4909680000000  0.4885040000000  0.5820710000000 1.0
C      1  0.5284370000000  0.4462980000000  0.4586410000000 1.0
C      1  0.5175220000000  0.4530020000000  0.4317670000000 1.0
C      1  0.5423720000000  0.4984800000000  0.4400140000000 1.0
C      1  0.5827640000000  0.4876700000000  0.5022740000000 1.0
C      1  0.5032430000000  0.4977800000000  0.4106490000000 1.0
C      1  0.4373710000000  0.5301880000000  0.5464590000000 1.0
C      1  0.5199760000000  0.4887710000000  0.5818780000000 1.0
C      1  0.5256960000000  0.4990290000000  0.4971810000000 1.0
C      1  0.5630510000000  0.4524010000000  0.5308490000000 1.0
C      1  0.4738890000000  0.4592050000000  0.5229610000000 1.0
C      1  0.4349280000000  0.4202920000000  0.5132590000000 1.0
C      1  0.5694940000000  0.5274940000000  0.4828620000000 1.0
C      1  0.4640230000000  0.4902480000000  0.4812590000000 1.0
C      1  0.5152440000000  0.5742300000000  0.5295850000000 1.0
C      1  0.5606720000000  0.5131190000000  0.5684410000000 1.0
END
