TITL C-231483-4138-8 303.199994443929 125000 -573.204445464984 0 0 85 (C1) n - 1
REM
REM in /rds/project/t2_vol4/rds-t2-cs072/BORA/CARBON/from-Arr/AIRSS/Generating-Clusters/GAP-ML-2020/Only-C1/SD-CG/HFTN-CG
REM
REM
REM
REM
REM
REM ./C.cell (11c1c37f851c82e70ff6c80c92926a4b)
REM AIRSS Version 0.9.1 bugfix July 2018 build 013d7b7c2542+ Fri, 06 Jul 2018 19:26:36 +0100
REM compiler GCC version 9.3.0
REM options -cpp -mtune=generic -march=x86-64 -g -O0
REM seed 287805216 218975490 -1631499220 -1072321106 987670624 -2012840275 -1107396807 -1851758756 1068661131 907052733 -1364478800 -1086714977 -746356300 1108225909 783524184 195609338 975236436 628028706 -521288874 1066003985 1550154540 -2087574834 -1868475009 1730559722 1935568871 -319047339 1416948339 -1974975178 -464237401 -595360675 1761894859 492216093 -239759738
REM
CELL 1.54180   50.00000   50.00000   50.00000   90.00000   90.00000   90.00000
LATT -1
SFAC C  
C      1  0.5416910000000  0.5562570000000  0.5375040000000 1.0
C      1  0.4600240000000  0.5325920000000  0.4706160000000 1.0
C      1  0.5475350000000  0.5609770000000  0.4911210000000 1.0
C      1  0.4787530000000  0.5319520000000  0.5106320000000 1.0
C      1  0.5751820000000  0.4878980000000  0.4631280000000 1.0
C      1  0.4641700000000  0.4563100000000  0.4468850000000 1.0
C      1  0.4638820000000  0.4900220000000  0.5765360000000 1.0
C      1  0.5615160000000  0.5021800000000  0.4425230000000 1.0
C      1  0.4366790000000  0.5265110000000  0.5166020000000 1.0
C      1  0.5476410000000  0.4914930000000  0.5621780000000 1.0
C      1  0.5237940000000  0.5584940000000  0.4593120000000 1.0
C      1  0.5143980000000  0.5081320000000  0.5155310000000 1.0
C      1  0.5362160000000  0.5779420000000  0.4728610000000 1.0
C      1  0.5326770000000  0.4307830000000  0.4681710000000 1.0
C      1  0.5894960000000  0.5032260000000  0.4804990000000 1.0
C      1  0.4623200000000  0.4854720000000  0.5276840000000 1.0
C      1  0.5164650000000  0.4701970000000  0.4357410000000 1.0
C      1  0.5346000000000  0.4546330000000  0.4512120000000 1.0
C      1  0.5518000000000  0.4408050000000  0.5154300000000 1.0
C      1  0.4907070000000  0.5202890000000  0.5612280000000 1.0
C      1  0.5173640000000  0.5331270000000  0.5652530000000 1.0
C      1  0.4989930000000  0.5746130000000  0.5432100000000 1.0
C      1  0.4773630000000  0.5103740000000  0.5860640000000 1.0
C      1  0.4446050000000  0.5250100000000  0.5437890000000 1.0
C      1  0.5457540000000  0.5081350000000  0.5040670000000 1.0
C      1  0.4884650000000  0.5805610000000  0.4979270000000 1.0
C      1  0.4720570000000  0.4613730000000  0.5138120000000 1.0
C      1  0.5599480000000  0.5351970000000  0.5434560000000 1.0
C      1  0.4648910000000  0.5699860000000  0.5095250000000 1.0
C      1  0.5071580000000  0.5340430000000  0.5024370000000 1.0
C      1  0.4910280000000  0.5211970000000  0.4315410000000 1.0
C      1  0.4868100000000  0.4706610000000  0.4338140000000 1.0
C      1  0.4440600000000  0.4325390000000  0.4945730000000 1.0
C      1  0.4703480000000  0.4651820000000  0.4852770000000 1.0
C      1  0.5088310000000  0.5807450000000  0.5165930000000 1.0
C      1  0.5515300000000  0.4561950000000  0.5372580000000 1.0
C      1  0.4257150000000  0.4783070000000  0.4942730000000 1.0
C      1  0.4215050000000  0.4836750000000  0.4668380000000 1.0
C      1  0.5118250000000  0.4127870000000  0.4701540000000 1.0
C      1  0.5278390000000  0.5096020000000  0.4635970000000 1.0
C      1  0.4764700000000  0.4973370000000  0.4275140000000 1.0
C      1  0.5535780000000  0.5268850000000  0.4568910000000 1.0
C      1  0.5512430000000  0.4423540000000  0.4882910000000 1.0
C      1  0.4420050000000  0.4997100000000  0.5596070000000 1.0
C      1  0.5854550000000  0.5258570000000  0.4968380000000 1.0
C      1  0.4622660000000  0.4306480000000  0.5176400000000 1.0
C      1  0.4524130000000  0.5464190000000  0.4988520000000 1.0
C      1  0.4870860000000  0.4883740000000  0.4833920000000 1.0
C      1  0.5030890000000  0.4693580000000  0.5476020000000 1.0
C      1  0.5188700000000  0.5203010000000  0.4230290000000 1.0
C      1  0.4851110000000  0.5352840000000  0.4560730000000 1.0
C      1  0.5400110000000  0.5463480000000  0.4396270000000 1.0
C      1  0.5682530000000  0.4990130000000  0.5223250000000 1.0
C      1  0.4732640000000  0.5649970000000  0.5383850000000 1.0
C      1  0.4788610000000  0.4648270000000  0.5662820000000 1.0
C      1  0.4654550000000  0.4385220000000  0.4722030000000 1.0
C      1  0.5430930000000  0.5195180000000  0.5614880000000 1.0
C      1  0.5591930000000  0.5340880000000  0.4862600000000 1.0
C      1  0.4712720000000  0.5360330000000  0.5424890000000 1.0
C      1  0.5313880000000  0.4676650000000  0.5560060000000 1.0
C      1  0.5346260000000  0.5404460000000  0.4134990000000 1.0
C      1  0.5009010000000  0.4580560000000  0.5186160000000 1.0
C      1  0.4636480000000  0.4435150000000  0.5630700000000 1.0
C      1  0.4411220000000  0.4749540000000  0.4459920000000 1.0
C      1  0.5199150000000  0.5596370000000  0.5557700000000 1.0
C      1  0.5355460000000  0.4896200000000  0.4842100000000 1.0
C      1  0.5662560000000  0.4808570000000  0.5430700000000 1.0
C      1  0.5805690000000  0.5239560000000  0.5263900000000 1.0
C      1  0.4192350000000  0.5112320000000  0.4653820000000 1.0
C      1  0.5531030000000  0.4681880000000  0.4716710000000 1.0
C      1  0.4254300000000  0.4522740000000  0.5057180000000 1.0
C      1  0.4278020000000  0.4534320000000  0.5345980000000 1.0
C      1  0.4450080000000  0.4994840000000  0.5069050000000 1.0
C      1  0.4399730000000  0.5222700000000  0.4518410000000 1.0
C      1  0.5104500000000  0.4829720000000  0.4994840000000 1.0
C      1  0.4481110000000  0.4331210000000  0.5430780000000 1.0
C      1  0.4494080000000  0.4997770000000  0.4351060000000 1.0
C      1  0.4919540000000  0.4970020000000  0.5390700000000 1.0
C      1  0.4685190000000  0.5087360000000  0.4910730000000 1.0
C      1  0.5099700000000  0.5337030000000  0.4723210000000 1.0
C      1  0.4356000000000  0.4786910000000  0.5429720000000 1.0
C      1  0.5308420000000  0.4964480000000  0.4350320000000 1.0
C      1  0.5282520000000  0.5588450000000  0.5122010000000 1.0
C      1  0.4907150000000  0.4276290000000  0.5105940000000 1.0
C      1  0.4890340000000  0.4221440000000  0.4826950000000 1.0
END
