TITL C-231486-4516-6 68.0478229130081 125000 -289.133062970861 0 0 44 (C1) n - 1
REM
REM in /rds/project/t2_vol4/rds-t2-cs072/BORA/CARBON/from-Arr/AIRSS/Generating-Clusters/GAP-ML-2020/Only-C1/SD-CG/HFTN-CG
REM
REM
REM
REM
REM
REM ./C.cell (11c1c37f851c82e70ff6c80c92926a4b)
REM AIRSS Version 0.9.1 bugfix July 2018 build 013d7b7c2542+ Fri, 06 Jul 2018 19:26:36 +0100
REM compiler GCC version 9.3.0
REM options -cpp -mtune=generic -march=x86-64 -g -O0
REM seed -172991637 1152354694 2144772281 1516100077 -1851877004 1016318521 -222802888 1816631203 1985575947 -1400425523 -714406020 1982218939 -873565421 1561029961 346261502 1231493598 2010945442 1673998865 535673957 2101100054 -2039832641 -695804275 641106551 -1012841166 527553515 1769618298 369537976 1635011102 1682777068 -1713388911 -362334268 -1866985633 -1183264894
REM
CELL 1.54180   50.00000   50.00000   50.00000   90.00000   90.00000   90.00000
LATT -1
SFAC C  
C      1  0.5350410000000  0.5075930000000  0.4398480000000 1.0
C      1  0.5366780000000  0.5466660000000  0.4602330000000 1.0
C      1  0.4515840000000  0.5109950000000  0.4925840000000 1.0
C      1  0.4827480000000  0.5518360000000  0.4660090000000 1.0
C      1  0.5225870000000  0.5348120000000  0.4399190000000 1.0
C      1  0.4923120000000  0.4906890000000  0.5357730000000 1.0
C      1  0.4971720000000  0.5212860000000  0.5407140000000 1.0
C      1  0.5370420000000  0.4928000000000  0.5226890000000 1.0
C      1  0.5115330000000  0.4766550000000  0.5631390000000 1.0
C      1  0.5257570000000  0.4556660000000  0.5491840000000 1.0
C      1  0.5050290000000  0.5141110000000  0.4902360000000 1.0
C      1  0.5612420000000  0.4873790000000  0.4802120000000 1.0
C      1  0.4643770000000  0.5003000000000  0.4685280000000 1.0
C      1  0.4746730000000  0.5554680000000  0.4910760000000 1.0
C      1  0.4427630000000  0.4987070000000  0.5355450000000 1.0
C      1  0.4599270000000  0.4754270000000  0.5419770000000 1.0
C      1  0.5166290000000  0.4473450000000  0.5226120000000 1.0
C      1  0.5196570000000  0.5008960000000  0.5461550000000 1.0
C      1  0.5476130000000  0.4611340000000  0.4823630000000 1.0
C      1  0.4331200000000  0.4961410000000  0.5086730000000 1.0
C      1  0.4473290000000  0.4521350000000  0.4996940000000 1.0
C      1  0.4968880000000  0.4685740000000  0.5141850000000 1.0
C      1  0.5249870000000  0.5393620000000  0.4872420000000 1.0
C      1  0.4251080000000  0.4711230000000  0.4988460000000 1.0
C      1  0.4539400000000  0.5251860000000  0.5380950000000 1.0
C      1  0.4737250000000  0.5296410000000  0.5564110000000 1.0
C      1  0.5521340000000  0.5302330000000  0.4948810000000 1.0
C      1  0.4946930000000  0.5349620000000  0.4481410000000 1.0
C      1  0.4678540000000  0.4621010000000  0.5154060000000 1.0
C      1  0.4927620000000  0.5093400000000  0.4636990000000 1.0
C      1  0.4496960000000  0.4798530000000  0.4570960000000 1.0
C      1  0.5253270000000  0.4756920000000  0.4739650000000 1.0
C      1  0.5469060000000  0.4661280000000  0.5311570000000 1.0
C      1  0.5425190000000  0.4504300000000  0.5078730000000 1.0
C      1  0.4376730000000  0.4643190000000  0.4747870000000 1.0
C      1  0.5610020000000  0.5321720000000  0.4674240000000 1.0
C      1  0.4635670000000  0.5318390000000  0.5080960000000 1.0
C      1  0.5026550000000  0.5541560000000  0.4995590000000 1.0
C      1  0.5161030000000  0.4922410000000  0.4533900000000 1.0
C      1  0.5569350000000  0.5044950000000  0.5042710000000 1.0
C      1  0.5603840000000  0.5061150000000  0.4567640000000 1.0
C      1  0.4825070000000  0.4767260000000  0.5597900000000 1.0
C      1  0.4931790000000  0.5297040000000  0.5132830000000 1.0
C      1  0.5146430000000  0.4875660000000  0.4984780000000 1.0
END
