TITL C-231485-4156-10 -94.0363479661052 125000 -306.78999929251 0 0 46 (C1) n - 1
REM
REM in /rds/project/t2_vol4/rds-t2-cs072/BORA/CARBON/from-Arr/AIRSS/Generating-Clusters/GAP-ML-2020/Only-C1/SD-CG/HFTN-CG
REM
REM
REM
REM
REM
REM ./C.cell (11c1c37f851c82e70ff6c80c92926a4b)
REM AIRSS Version 0.9.1 bugfix July 2018 build 013d7b7c2542+ Fri, 06 Jul 2018 19:26:36 +0100
REM compiler GCC version 9.3.0
REM options -cpp -mtune=generic -march=x86-64 -g -O0
REM seed -859860775 99173194 1349824515 1203875003 -1496244742 2105730532 -247445937 -1124669309 1223435664 -1825948324 -775371217 1465133439 1218332316 -1718837550 263252561 -1410372270 -616188951 -1020321861 -1471411122 109923440 609108591 -1648721310 -887048016 -540549163 -1738963979 2046945278 -2118803978 -1871508014 -220047423 1492389236 1196285296 1547785372 -656899931
REM
CELL 1.54180   50.00000   50.00000   50.00000   90.00000   90.00000   90.00000
LATT -1
SFAC C  
C      1  0.4867320000000  0.4449630000000  0.5384090000000 1.0
C      1  0.5097830000000  0.5452850000000  0.5336900000000 1.0
C      1  0.5222160000000  0.4747800000000  0.5632360000000 1.0
C      1  0.4553590000000  0.4702060000000  0.5036040000000 1.0
C      1  0.5282820000000  0.5314060000000  0.4722130000000 1.0
C      1  0.5320440000000  0.5000620000000  0.5218910000000 1.0
C      1  0.5530980000000  0.5220330000000  0.4839480000000 1.0
C      1  0.4366890000000  0.4609020000000  0.4848770000000 1.0
C      1  0.4732700000000  0.5566820000000  0.5413200000000 1.0
C      1  0.4920760000000  0.5181330000000  0.5687270000000 1.0
C      1  0.4787040000000  0.5295730000000  0.4565010000000 1.0
C      1  0.5136680000000  0.5003670000000  0.5655500000000 1.0
C      1  0.5009540000000  0.5429310000000  0.4431870000000 1.0
C      1  0.4927060000000  0.4562410000000  0.4460610000000 1.0
C      1  0.5213240000000  0.5218190000000  0.4432550000000 1.0
C      1  0.4794610000000  0.5376450000000  0.4854940000000 1.0
C      1  0.4951670000000  0.5432840000000  0.5579920000000 1.0
C      1  0.5115270000000  0.4784590000000  0.5198320000000 1.0
C      1  0.4556850000000  0.4586370000000  0.4661970000000 1.0
C      1  0.4827660000000  0.4999050000000  0.4541700000000 1.0
C      1  0.4693830000000  0.4748160000000  0.4464950000000 1.0
C      1  0.4612610000000  0.5244380000000  0.5053210000000 1.0
C      1  0.5521730000000  0.4715720000000  0.4890950000000 1.0
C      1  0.4804440000000  0.4406970000000  0.4666240000000 1.0
C      1  0.5512250000000  0.4998270000000  0.4994060000000 1.0
C      1  0.4731820000000  0.5117430000000  0.5479140000000 1.0
C      1  0.4691370000000  0.4964880000000  0.5032680000000 1.0
C      1  0.5052090000000  0.5205580000000  0.4897040000000 1.0
C      1  0.5138090000000  0.4560540000000  0.5415040000000 1.0
C      1  0.5285760000000  0.4687700000000  0.4735250000000 1.0
C      1  0.5165610000000  0.5589200000000  0.4627350000000 1.0
C      1  0.5496840000000  0.4547350000000  0.5105740000000 1.0
C      1  0.4888890000000  0.5650910000000  0.4930000000000 1.0
C      1  0.5095190000000  0.5196470000000  0.5181990000000 1.0
C      1  0.5048260000000  0.5792620000000  0.4752500000000 1.0
C      1  0.4917190000000  0.4466780000000  0.4918630000000 1.0
C      1  0.5371340000000  0.4429230000000  0.5286130000000 1.0
C      1  0.4598930000000  0.5329030000000  0.5320820000000 1.0
C      1  0.4878610000000  0.4992640000000  0.5260310000000 1.0
C      1  0.5065430000000  0.4709250000000  0.4916840000000 1.0
C      1  0.5101630000000  0.4969710000000  0.4407750000000 1.0
C      1  0.4923550000000  0.5643530000000  0.5206160000000 1.0
C      1  0.5362480000000  0.4968700000000  0.5505230000000 1.0
C      1  0.4742190000000  0.4491270000000  0.5152220000000 1.0
C      1  0.4908980000000  0.4942910000000  0.4825840000000 1.0
C      1  0.5175820000000  0.4697650000000  0.4472380000000 1.0
END
