TITL C-23814-9628-4 0.176206085979678 125000 -578.872221416507 0 0 85 (C1) n - 1
REM
REM in /rds/project/t2_vol4/rds-t2-cs072/BORA/CARBON/from-Arr/AIRSS/Generating-Clusters/GAP-ML-2020/Only-C1/SD-CG/HFTN-CG
REM
REM
REM
REM
REM
REM ./C.cell (11c1c37f851c82e70ff6c80c92926a4b)
REM AIRSS Version 0.9.1 bugfix July 2018 build 013d7b7c2542+ Fri, 06 Jul 2018 19:26:36 +0100
REM compiler GCC version 9.3.0
REM options -cpp -mtune=generic -march=x86-64 -g -O0
REM seed -869931269 -594312473 -1461084591 2045154289 -461358352 -2108659259 1551012635 1953266098 819221050 -1829914826 -1684793276 1217353847 881050514 -562666169 1823784709 -1659210087 -2144703300 -1137679618 1893367438 335203268 342129291 804066714 179083278 -416294990 -2126774875 588675148 -19447114 -1635882336 -1277617679 -963233313 -361725029 2013245621 291872199
REM
CELL 1.54180   50.00000   50.00000   50.00000   90.00000   90.00000   90.00000
LATT -1
SFAC C  
C      1  0.5508520000000  0.5742680000000  0.4772200000000 1.0
C      1  0.5312110000000  0.5584150000000  0.4634390000000 1.0
C      1  0.4467480000000  0.5171970000000  0.4699930000000 1.0
C      1  0.5272010000000  0.5056420000000  0.4632170000000 1.0
C      1  0.5611460000000  0.5644760000000  0.5283830000000 1.0
C      1  0.4732870000000  0.5713120000000  0.4963090000000 1.0
C      1  0.4578280000000  0.5234310000000  0.4440640000000 1.0
C      1  0.5129730000000  0.4466240000000  0.4539410000000 1.0
C      1  0.5482560000000  0.4874320000000  0.4469580000000 1.0
C      1  0.4829690000000  0.5094100000000  0.5210940000000 1.0
C      1  0.4617820000000  0.5510400000000  0.5362860000000 1.0
C      1  0.5099090000000  0.5068260000000  0.5654210000000 1.0
C      1  0.5143980000000  0.5572270000000  0.4391960000000 1.0
C      1  0.4512120000000  0.4260630000000  0.5172370000000 1.0
C      1  0.5576000000000  0.4632320000000  0.4619220000000 1.0
C      1  0.5358650000000  0.5631470000000  0.5419300000000 1.0
C      1  0.4175630000000  0.4621650000000  0.5245760000000 1.0
C      1  0.4932890000000  0.5320440000000  0.4752030000000 1.0
C      1  0.4803290000000  0.5076120000000  0.4360170000000 1.0
C      1  0.5389590000000  0.4300930000000  0.4912010000000 1.0
C      1  0.4562060000000  0.4437980000000  0.5408540000000 1.0
C      1  0.5119410000000  0.4895890000000  0.4847830000000 1.0
C      1  0.4725290000000  0.4698880000000  0.4614560000000 1.0
C      1  0.5119970000000  0.5505090000000  0.4881910000000 1.0
C      1  0.5554400000000  0.5429570000000  0.5456800000000 1.0
C      1  0.5406090000000  0.4416620000000  0.4667160000000 1.0
C      1  0.5613690000000  0.4401810000000  0.5359150000000 1.0
C      1  0.4581460000000  0.5269520000000  0.5783110000000 1.0
C      1  0.5553410000000  0.5619670000000  0.5011200000000 1.0
C      1  0.5783060000000  0.4783980000000  0.4769700000000 1.0
C      1  0.5357200000000  0.5365970000000  0.5001900000000 1.0
C      1  0.4918490000000  0.4516270000000  0.5049180000000 1.0
C      1  0.4215880000000  0.4862650000000  0.5091520000000 1.0
C      1  0.4871170000000  0.5072790000000  0.4913840000000 1.0
C      1  0.4629090000000  0.5505980000000  0.4381310000000 1.0
C      1  0.5526630000000  0.5128320000000  0.5424050000000 1.0
C      1  0.4746080000000  0.4227350000000  0.4719260000000 1.0
C      1  0.5096220000000  0.4686730000000  0.4321440000000 1.0
C      1  0.4871650000000  0.5661460000000  0.4432940000000 1.0
C      1  0.5374360000000  0.4991000000000  0.5644210000000 1.0
C      1  0.4354470000000  0.4502610000000  0.4822180000000 1.0
C      1  0.4675970000000  0.4649650000000  0.5169300000000 1.0
C      1  0.5308030000000  0.4863410000000  0.4225630000000 1.0
C      1  0.4254430000000  0.5138700000000  0.5148920000000 1.0
C      1  0.5721560000000  0.4906550000000  0.5318720000000 1.0
C      1  0.4932270000000  0.4618780000000  0.5682160000000 1.0
C      1  0.4387450000000  0.5311800000000  0.4954670000000 1.0
C      1  0.5412080000000  0.4717240000000  0.5621030000000 1.0
C      1  0.4840280000000  0.4799070000000  0.4365220000000 1.0
C      1  0.4996560000000  0.5692690000000  0.5070300000000 1.0
C      1  0.5172750000000  0.4590780000000  0.5527490000000 1.0
C      1  0.4985290000000  0.4634620000000  0.4774260000000 1.0
C      1  0.4910350000000  0.5494090000000  0.5411760000000 1.0
C      1  0.4456570000000  0.4753900000000  0.4963980000000 1.0
C      1  0.5745270000000  0.4985290000000  0.4574530000000 1.0
C      1  0.5039510000000  0.5198480000000  0.4492160000000 1.0
C      1  0.5831680000000  0.4926580000000  0.5049690000000 1.0
C      1  0.5267380000000  0.5121160000000  0.4110590000000 1.0
C      1  0.4759360000000  0.4257290000000  0.5008220000000 1.0
C      1  0.4324260000000  0.5143420000000  0.5424270000000 1.0
C      1  0.4464600000000  0.4898750000000  0.5525900000000 1.0
C      1  0.4611310000000  0.4926260000000  0.4786260000000 1.0
C      1  0.4501550000000  0.5650860000000  0.4582550000000 1.0
C      1  0.4541180000000  0.5533810000000  0.5085700000000 1.0
C      1  0.5410400000000  0.4375410000000  0.5170560000000 1.0
C      1  0.4963590000000  0.4236360000000  0.4553680000000 1.0
C      1  0.4624550000000  0.4999860000000  0.5765310000000 1.0
C      1  0.5434590000000  0.5287940000000  0.4723260000000 1.0
C      1  0.5038380000000  0.5216720000000  0.5389360000000 1.0
C      1  0.4731770000000  0.5766580000000  0.4679400000000 1.0
C      1  0.5299710000000  0.5150500000000  0.5216870000000 1.0
C      1  0.4335440000000  0.4631200000000  0.5473230000000 1.0
C      1  0.4897730000000  0.4896970000000  0.5767760000000 1.0
C      1  0.5095930000000  0.5689310000000  0.5340170000000 1.0
C      1  0.5162190000000  0.5329300000000  0.4245860000000 1.0
C      1  0.4270620000000  0.4381100000000  0.5062580000000 1.0
C      1  0.4568110000000  0.4448250000000  0.4650260000000 1.0
C      1  0.4460750000000  0.5361130000000  0.5542980000000 1.0
C      1  0.4742790000000  0.4435310000000  0.5616050000000 1.0
C      1  0.4702580000000  0.4883210000000  0.5327410000000 1.0
C      1  0.5634010000000  0.4664710000000  0.5446400000000 1.0
C      1  0.5172090000000  0.4584570000000  0.5227860000000 1.0
C      1  0.5259920000000  0.4870740000000  0.5097780000000 1.0
C      1  0.5723810000000  0.5227140000000  0.4717410000000 1.0
C      1  0.5817480000000  0.5193820000000  0.4974650000000 1.0
END
