TITL C-231503-4148-8 0.00514584249078995 125000 -115.456498645598 0 0 19 (C1) n - 1
REM
REM in /rds/project/t2_vol4/rds-t2-cs072/BORA/CARBON/from-Arr/AIRSS/Generating-Clusters/GAP-ML-2020/Only-C1/SD-CG/HFTN-CG
REM
REM
REM
REM
REM
REM ./C.cell (11c1c37f851c82e70ff6c80c92926a4b)
REM AIRSS Version 0.9.1 bugfix July 2018 build 013d7b7c2542+ Fri, 06 Jul 2018 19:26:36 +0100
REM compiler GCC version 9.3.0
REM options -cpp -mtune=generic -march=x86-64 -g -O0
REM seed -281526944 -1048430038 460683939 -821779605 -69874289 1723532232 -1392092168 1342408062 -1011336604 -321659718 -1544803177 -1705353820 70173073 2109259755 -344080805 -1303896741 -896924809 -1231840184 868997812 -70861559 659214824 -1102907099 -1195763852 90667113 -1939621879 1727654121 -1702220931 -736670167 -226571554 2049163306 1134279702 2004310600 1679280673
REM
CELL 1.54180   50.00000   50.00000   50.00000   90.00000   90.00000   90.00000
LATT -1
SFAC C  
C      1  0.4822700000000  0.4836010000000  0.4859890000000 1.0
C      1  0.4870020000000  0.5065840000000  0.4701910000000 1.0
C      1  0.4909940000000  0.4386300000000  0.5035560000000 1.0
C      1  0.4533870000000  0.5141760000000  0.5007730000000 1.0
C      1  0.5314820000000  0.5220070000000  0.5155100000000 1.0
C      1  0.4869730000000  0.4936240000000  0.5308980000000 1.0
C      1  0.4689640000000  0.5271710000000  0.4821240000000 1.0
C      1  0.5216290000000  0.5343030000000  0.4906990000000 1.0
C      1  0.5306220000000  0.5093530000000  0.4460020000000 1.0
C      1  0.5147560000000  0.5161620000000  0.4660790000000 1.0
C      1  0.5277360000000  0.4751070000000  0.5410460000000 1.0
C      1  0.4763550000000  0.5540600000000  0.4841950000000 1.0
C      1  0.5172100000000  0.4433980000000  0.5048870000000 1.0
C      1  0.5006890000000  0.5516530000000  0.4916370000000 1.0
C      1  0.5346750000000  0.4947480000000  0.5228730000000 1.0
C      1  0.5086430000000  0.5045000000000  0.5155520000000 1.0
C      1  0.5014140000000  0.4767580000000  0.5462610000000 1.0
C      1  0.4676010000000  0.4921590000000  0.5100290000000 1.0
C      1  0.4975970000000  0.4620050000000  0.4916990000000 1.0
END
