TITL C-231480-4159-4 -0.18646081844137 125000 -713.88261211054 0 0 103 (C1) n - 1
REM
REM in /rds/project/t2_vol4/rds-t2-cs072/BORA/CARBON/from-Arr/AIRSS/Generating-Clusters/GAP-ML-2020/Only-C1/SD-CG/HFTN-CG
REM
REM
REM
REM
REM
REM ./C.cell (11c1c37f851c82e70ff6c80c92926a4b)
REM AIRSS Version 0.9.1 bugfix July 2018 build 013d7b7c2542+ Fri, 06 Jul 2018 19:26:36 +0100
REM compiler GCC version 9.3.0
REM options -cpp -mtune=generic -march=x86-64 -g -O0
REM seed 1248694594 -117907824 -188701308 -889490069 -1425317567 -716585172 1279068826 -349087109 1036304637 -164732985 1494938383 665660183 -1859127909 -175598432 152210425 -1322400427 1919170019 2006545534 181094758 433298848 982175871 822586579 -1537059292 1295465873 -730307494 411639043 685354376 -629716952 -885381512 -766568362 -1770382674 -1121548558 -1445104734
REM
CELL 1.54180   50.00000   50.00000   50.00000   90.00000   90.00000   90.00000
LATT -1
SFAC C  
C      1  0.5528460000000  0.4293340000000  0.4955310000000 1.0
C      1  0.4481920000000  0.4603960000000  0.4670010000000 1.0
C      1  0.5070960000000  0.5298480000000  0.5736000000000 1.0
C      1  0.4800910000000  0.5201620000000  0.5776340000000 1.0
C      1  0.4677210000000  0.4639870000000  0.5111480000000 1.0
C      1  0.4584200000000  0.5088940000000  0.5268440000000 1.0
C      1  0.5684610000000  0.5358840000000  0.4435830000000 1.0
C      1  0.5254450000000  0.5822520000000  0.5019560000000 1.0
C      1  0.4992340000000  0.5746850000000  0.5163180000000 1.0
C      1  0.5604300000000  0.4496010000000  0.4758380000000 1.0
C      1  0.4888070000000  0.5248210000000  0.4619950000000 1.0
C      1  0.5231890000000  0.5025280000000  0.4807170000000 1.0
C      1  0.5345820000000  0.4591580000000  0.5654040000000 1.0
C      1  0.4855470000000  0.5867290000000  0.4914510000000 1.0
C      1  0.4675090000000  0.5758650000000  0.4719520000000 1.0
C      1  0.4560270000000  0.4356120000000  0.5213340000000 1.0
C      1  0.5693580000000  0.4870830000000  0.5676090000000 1.0
C      1  0.5514650000000  0.5709050000000  0.5078950000000 1.0
C      1  0.5679770000000  0.4781780000000  0.4815380000000 1.0
C      1  0.4589200000000  0.5333120000000  0.5642070000000 1.0
C      1  0.4746650000000  0.4844220000000  0.5335200000000 1.0
C      1  0.4946950000000  0.5454390000000  0.5099780000000 1.0
C      1  0.4452330000000  0.5491500000000  0.5069520000000 1.0
C      1  0.4676970000000  0.5392320000000  0.5220370000000 1.0
C      1  0.5380160000000  0.4794400000000  0.4890900000000 1.0
C      1  0.4963860000000  0.4953150000000  0.4943020000000 1.0
C      1  0.5189410000000  0.4604170000000  0.5012090000000 1.0
C      1  0.4439990000000  0.4748200000000  0.4949430000000 1.0
C      1  0.4823880000000  0.5686890000000  0.4476720000000 1.0
C      1  0.5511530000000  0.5213930000000  0.4269120000000 1.0
C      1  0.5191880000000  0.4186700000000  0.5268690000000 1.0
C      1  0.4309860000000  0.4496990000000  0.5311240000000 1.0
C      1  0.5077280000000  0.4559310000000  0.5549700000000 1.0
C      1  0.5548230000000  0.5558060000000  0.4577120000000 1.0
C      1  0.5294840000000  0.5297090000000  0.4911050000000 1.0
C      1  0.5545010000000  0.4486430000000  0.5453020000000 1.0
C      1  0.5218100000000  0.4292110000000  0.4599400000000 1.0
C      1  0.4907440000000  0.4660390000000  0.4913420000000 1.0
C      1  0.5275110000000  0.5397060000000  0.4239340000000 1.0
C      1  0.4500290000000  0.5045110000000  0.4974410000000 1.0
C      1  0.4726410000000  0.4921160000000  0.5824830000000 1.0
C      1  0.4204320000000  0.4685160000000  0.5129470000000 1.0
C      1  0.5113040000000  0.5894470000000  0.4781660000000 1.0
C      1  0.4463140000000  0.4908940000000  0.5900200000000 1.0
C      1  0.4791650000000  0.4572260000000  0.4625620000000 1.0
C      1  0.5176650000000  0.4708960000000  0.5285490000000 1.0
C      1  0.4368440000000  0.4600670000000  0.5566940000000 1.0
C      1  0.5011270000000  0.4942400000000  0.5245910000000 1.0
C      1  0.4749690000000  0.4945990000000  0.4028300000000 1.0
C      1  0.4932160000000  0.4301580000000  0.4627800000000 1.0
C      1  0.5436430000000  0.5554320000000  0.5550370000000 1.0
C      1  0.4570880000000  0.5217780000000  0.4355830000000 1.0
C      1  0.4808970000000  0.4702600000000  0.5626510000000 1.0
C      1  0.5220610000000  0.5091770000000  0.5358960000000 1.0
C      1  0.5294780000000  0.5115210000000  0.5655260000000 1.0
C      1  0.4139400000000  0.5147430000000  0.5245540000000 1.0
C      1  0.5544910000000  0.5704610000000  0.5349360000000 1.0
C      1  0.4746340000000  0.5092770000000  0.4822240000000 1.0
C      1  0.4264940000000  0.5399970000000  0.4720940000000 1.0
C      1  0.5101690000000  0.4098330000000  0.5008420000000 1.0
C      1  0.4796870000000  0.5403120000000  0.4365720000000 1.0
C      1  0.4370790000000  0.5130360000000  0.5470310000000 1.0
C      1  0.5003780000000  0.4293120000000  0.5456400000000 1.0
C      1  0.4351450000000  0.4883940000000  0.5651890000000 1.0
C      1  0.5313150000000  0.5619250000000  0.4419230000000 1.0
C      1  0.5819660000000  0.5183520000000  0.4609410000000 1.0
C      1  0.5807780000000  0.4949330000000  0.5293190000000 1.0
C      1  0.4616430000000  0.4482620000000  0.5637660000000 1.0
C      1  0.5567110000000  0.5477200000000  0.4872910000000 1.0
C      1  0.5742610000000  0.5119540000000  0.5531610000000 1.0
C      1  0.5793590000000  0.4993670000000  0.5015670000000 1.0
C      1  0.5425140000000  0.4851460000000  0.5746500000000 1.0
C      1  0.4718340000000  0.4291320000000  0.5451180000000 1.0
C      1  0.4937470000000  0.5689600000000  0.5466500000000 1.0
C      1  0.4423210000000  0.4340520000000  0.4769390000000 1.0
C      1  0.5533070000000  0.5294960000000  0.5614310000000 1.0
C      1  0.5011550000000  0.5320210000000  0.4170280000000 1.0
C      1  0.5561880000000  0.4928340000000  0.4339520000000 1.0
C      1  0.5140370000000  0.5554160000000  0.5617330000000 1.0
C      1  0.4388130000000  0.4778210000000  0.4433900000000 1.0
C      1  0.5461750000000  0.4301990000000  0.5246290000000 1.0
C      1  0.5102270000000  0.4857070000000  0.4328450000000 1.0
C      1  0.4847210000000  0.4743880000000  0.4404750000000 1.0
C      1  0.5095150000000  0.5782460000000  0.4512060000000 1.0
C      1  0.5414470000000  0.4487280000000  0.4519600000000 1.0
C      1  0.4450780000000  0.5609540000000  0.4809620000000 1.0
C      1  0.5033810000000  0.5427440000000  0.4811010000000 1.0
C      1  0.4586600000000  0.4219200000000  0.4952100000000 1.0
C      1  0.5205890000000  0.5309330000000  0.5193640000000 1.0
C      1  0.4628700000000  0.4908910000000  0.4297280000000 1.0
C      1  0.4314410000000  0.5231290000000  0.4489330000000 1.0
C      1  0.4051200000000  0.4894220000000  0.5208660000000 1.0
C      1  0.5743660000000  0.4918530000000  0.4556650000000 1.0
C      1  0.5120620000000  0.5069950000000  0.4543480000000 1.0
C      1  0.4201190000000  0.4978150000000  0.4441480000000 1.0
C      1  0.5316010000000  0.4155690000000  0.4829490000000 1.0
C      1  0.4701730000000  0.5530550000000  0.5476520000000 1.0
C      1  0.5745530000000  0.4697890000000  0.5447760000000 1.0
C      1  0.4276530000000  0.5267690000000  0.4995600000000 1.0
C      1  0.5784250000000  0.5249920000000  0.4879170000000 1.0
C      1  0.4991070000000  0.5041350000000  0.4102650000000 1.0
C      1  0.5370150000000  0.4717790000000  0.4346980000000 1.0
C      1  0.4855950000000  0.4154290000000  0.4865790000000 1.0
END
