TITL C-23823-2550-7 0.0246237496774173 125000 -29.1208935339916 0 0 5 (C2v) n - 1
REM
REM in /rds/project/t2_vol4/rds-t2-cs072/BORA/CARBON/from-Arr/AIRSS/Generating-Clusters/GAP-ML-2020/Only-C1/SD-CG/HFTN-CG
REM
REM
REM
REM
REM
REM ./C.cell (11c1c37f851c82e70ff6c80c92926a4b)
REM AIRSS Version 0.9.1 bugfix July 2018 build 013d7b7c2542+ Fri, 06 Jul 2018 19:26:36 +0100
REM compiler GCC version 9.3.0
REM options -cpp -mtune=generic -march=x86-64 -g -O0
REM seed 353195786 -157095984 881794440 850931014 -1338610941 1282784779 -907810340 2072530853 -263376655 1872544157 -1021458011 1831220435 -1037703563 -1473576741 -835983566 866274573 1039312364 -172660896 1230860128 1677978959 440412785 -110885015 -1877642206 -1637861595 -1051491881 -1012604646 -671774773 -111332236 871093566 7650847 90481184 -1700218471 1632909895
REM
CELL 1.54180   50.00000   50.00000   50.00000   90.00000   90.00000   90.00000
LATT -1
SFAC C  
C      1  0.5017350000000  0.5040700000000  0.4952290000000 1.0
C      1  0.4875730000000  0.4708390000000  0.5341830000000 1.0
C      1  0.5200900000000  0.5147160000000  0.4780180000000 1.0
C      1  0.4962660000000  0.5236650000000  0.4769910000000 1.0
C      1  0.4943360000000  0.4867100000000  0.5155790000000 1.0
END
