TITL C-231476-4136-8 0.101022353431154 125000 -421.558627215465 0 0 61 (C1) n - 1
REM
REM in /rds/project/t2_vol4/rds-t2-cs072/BORA/CARBON/from-Arr/AIRSS/Generating-Clusters/GAP-ML-2020/Only-C1/SD-CG/HFTN-CG
REM
REM
REM
REM
REM
REM ./C.cell (11c1c37f851c82e70ff6c80c92926a4b)
REM AIRSS Version 0.9.1 bugfix July 2018 build 013d7b7c2542+ Fri, 06 Jul 2018 19:26:36 +0100
REM compiler GCC version 9.3.0
REM options -cpp -mtune=generic -march=x86-64 -g -O0
REM seed -50729477 -73590251 -176214562 746980932 -1063401712 -1311112521 387619637 -772336173 -1894138824 1665793438 -1682168657 -52380872 1667989736 132033993 1384173087 840307379 674244281 1919532861 864981940 909569582 1406613374 -891193878 951205047 -1037313060 -2036768652 -1956020132 998764129 -1947785249 359363433 464370326 1641876165 333453041 200219404
REM
CELL 1.54180   50.00000   50.00000   50.00000   90.00000   90.00000   90.00000
LATT -1
SFAC C  
C      1  0.4893000000000  0.5206940000000  0.5626990000000 1.0
C      1  0.4394820000000  0.5214550000000  0.5293180000000 1.0
C      1  0.4883350000000  0.4425030000000  0.5451880000000 1.0
C      1  0.5056800000000  0.5592710000000  0.5424070000000 1.0
C      1  0.5140540000000  0.5099680000000  0.5695220000000 1.0
C      1  0.4884310000000  0.5529110000000  0.4474790000000 1.0
C      1  0.4954800000000  0.4433760000000  0.5178550000000 1.0
C      1  0.5366570000000  0.5507730000000  0.5151800000000 1.0
C      1  0.5195120000000  0.4451820000000  0.4594670000000 1.0
C      1  0.5208990000000  0.4593030000000  0.5139190000000 1.0
C      1  0.5013060000000  0.5498340000000  0.4732990000000 1.0
C      1  0.4473690000000  0.5366920000000  0.4858200000000 1.0
C      1  0.5008720000000  0.5679450000000  0.4285100000000 1.0
C      1  0.4964820000000  0.5069350000000  0.5197380000000 1.0
C      1  0.4614110000000  0.4833840000000  0.5530810000000 1.0
C      1  0.5686980000000  0.4583630000000  0.5017830000000 1.0
C      1  0.4381090000000  0.4940020000000  0.5414720000000 1.0
C      1  0.5428920000000  0.4406560000000  0.4740220000000 1.0
C      1  0.4224060000000  0.4743870000000  0.5292420000000 1.0
C      1  0.4990030000000  0.4579790000000  0.5664320000000 1.0
C      1  0.4696220000000  0.4572340000000  0.5611660000000 1.0
C      1  0.5690650000000  0.4842310000000  0.5124900000000 1.0
C      1  0.4531430000000  0.5214050000000  0.4611600000000 1.0
C      1  0.5111550000000  0.4824900000000  0.5582790000000 1.0
C      1  0.5158530000000  0.4780200000000  0.4903090000000 1.0
C      1  0.5214980000000  0.4685290000000  0.4420090000000 1.0
C      1  0.4778260000000  0.4430300000000  0.4939800000000 1.0
C      1  0.5347930000000  0.5220610000000  0.5532490000000 1.0
C      1  0.4954620000000  0.5073590000000  0.4381760000000 1.0
C      1  0.5445650000000  0.4423860000000  0.5030740000000 1.0
C      1  0.5328500000000  0.5492040000000  0.5442320000000 1.0
C      1  0.5584690000000  0.4873080000000  0.4676070000000 1.0
C      1  0.4407170000000  0.4954720000000  0.4647800000000 1.0
C      1  0.4903460000000  0.5614180000000  0.4964170000000 1.0
C      1  0.5595610000000  0.4860260000000  0.5396150000000 1.0
C      1  0.4758580000000  0.5265470000000  0.4445680000000 1.0
C      1  0.5591090000000  0.5031610000000  0.4926210000000 1.0
C      1  0.4637110000000  0.5525290000000  0.5040190000000 1.0
C      1  0.4300160000000  0.4710310000000  0.5031280000000 1.0
C      1  0.4855380000000  0.4968750000000  0.5453120000000 1.0
C      1  0.5381260000000  0.5235900000000  0.5007420000000 1.0
C      1  0.4512190000000  0.4558680000000  0.4885090000000 1.0
C      1  0.4598400000000  0.5424910000000  0.5306970000000 1.0
C      1  0.5164310000000  0.5246790000000  0.4781890000000 1.0
C      1  0.5239900000000  0.5154860000000  0.4481370000000 1.0
C      1  0.4305380000000  0.5203950000000  0.5022090000000 1.0
C      1  0.5344470000000  0.5381930000000  0.4344450000000 1.0
C      1  0.4916440000000  0.4435480000000  0.4680920000000 1.0
C      1  0.5392270000000  0.4902900000000  0.4476370000000 1.0
C      1  0.4252700000000  0.4957530000000  0.4888440000000 1.0
C      1  0.5296850000000  0.4796130000000  0.5352590000000 1.0
C      1  0.4989600000000  0.5005960000000  0.4928710000000 1.0
C      1  0.5244290000000  0.5092570000000  0.5253580000000 1.0
C      1  0.5286830000000  0.5604570000000  0.4226940000000 1.0
C      1  0.4769370000000  0.4614630000000  0.4505760000000 1.0
C      1  0.5109830000000  0.5650860000000  0.5146090000000 1.0
C      1  0.4526160000000  0.4691290000000  0.4627500000000 1.0
C      1  0.4824910000000  0.5447110000000  0.5495490000000 1.0
C      1  0.4951920000000  0.4791950000000  0.4381460000000 1.0
C      1  0.5638910000000  0.4599840000000  0.4733430000000 1.0
C      1  0.5598690000000  0.5082870000000  0.5547190000000 1.0
END
