TITL C-231475-4219-6 -14.8537611835302 125000 -36.3841289319132 0 0 6 (Cs) n - 1
REM
REM in /rds/project/t2_vol4/rds-t2-cs072/BORA/CARBON/from-Arr/AIRSS/Generating-Clusters/GAP-ML-2020/Only-C1/SD-CG/HFTN-CG
REM
REM
REM
REM
REM
REM ./C.cell (11c1c37f851c82e70ff6c80c92926a4b)
REM AIRSS Version 0.9.1 bugfix July 2018 build 013d7b7c2542+ Fri, 06 Jul 2018 19:26:36 +0100
REM compiler GCC version 9.3.0
REM options -cpp -mtune=generic -march=x86-64 -g -O0
REM seed -1167809526 -630773600 -316352014 721693186 -1000744593 -1460045170 -1923292662 -718477019 -489310377 -941535265 2145576112 -1053504621 -1362182058 657322997 1016970937 -321792224 227182640 -1039841057 557567712 1377010479 -587043085 -1049570389 -2015912430 -754777009 -1338822960 -1217625225 -181506227 -1419890125 785864587 -1562388603 -1668093001 1411752646 -1888524532
REM
CELL 1.54180   50.00000   50.00000   50.00000   90.00000   90.00000   90.00000
LATT -1
SFAC C  
C      1  0.4975880000000  0.4897450000000  0.4858110000000 1.0
C      1  0.4939730000000  0.5117590000000  0.5331250000000 1.0
C      1  0.5063630000000  0.5311570000000  0.5449570000000 1.0
C      1  0.5122690000000  0.4754510000000  0.4674590000000 1.0
C      1  0.4947120000000  0.5000050000000  0.5101470000000 1.0
C      1  0.4950950000000  0.4918820000000  0.4585010000000 1.0
END
