TITL C-23835-9671-3 314.754108380174 125000 -746.072445928937 0 0 109 (C1) n - 1
REM
REM in /rds/project/t2_vol4/rds-t2-cs072/BORA/CARBON/from-Arr/AIRSS/Generating-Clusters/GAP-ML-2020/Only-C1/SD-CG/HFTN-CG
REM
REM
REM
REM
REM
REM ./C.cell (11c1c37f851c82e70ff6c80c92926a4b)
REM AIRSS Version 0.9.1 bugfix July 2018 build 013d7b7c2542+ Fri, 06 Jul 2018 19:26:36 +0100
REM compiler GCC version 9.3.0
REM options -cpp -mtune=generic -march=x86-64 -g -O0
REM seed -920327526 654933212 -1786521954 -1257485803 12823125 -991263599 -926948210 -1854730560 165644840 330943591 -1502784982 -737648896 360562952 195180396 1242496154 1163949259 -392494264 -1657382629 1875560019 623742993 1842945825 2011176110 566720010 1990163796 417737577 1183424872 748489045 -1527638177 777911180 -951436404 14318202 -728484883 2072218088
REM
CELL 1.54180   50.00000   50.00000   50.00000   90.00000   90.00000   90.00000
LATT -1
SFAC C  
C      1  0.5674570000000  0.5343380000000  0.5350340000000 1.0
C      1  0.4511950000000  0.5662430000000  0.4718580000000 1.0
C      1  0.4217200000000  0.5346700000000  0.5370080000000 1.0
C      1  0.5042480000000  0.5400470000000  0.4146420000000 1.0
C      1  0.5510600000000  0.5097550000000  0.5702610000000 1.0
C      1  0.4642850000000  0.4593690000000  0.5709760000000 1.0
C      1  0.5183160000000  0.4516500000000  0.4963630000000 1.0
C      1  0.4940480000000  0.4554920000000  0.5372780000000 1.0
C      1  0.5342300000000  0.5292820000000  0.4735720000000 1.0
C      1  0.4456820000000  0.5700370000000  0.5249750000000 1.0
C      1  0.4595120000000  0.5738500000000  0.4993490000000 1.0
C      1  0.5306080000000  0.4200130000000  0.4691730000000 1.0
C      1  0.5318220000000  0.5783450000000  0.4785690000000 1.0
C      1  0.4773570000000  0.5302390000000  0.4170400000000 1.0
C      1  0.4952050000000  0.5560110000000  0.4651580000000 1.0
C      1  0.4631180000000  0.5183360000000  0.5317270000000 1.0
C      1  0.5728040000000  0.5665480000000  0.5023730000000 1.0
C      1  0.4508910000000  0.4463170000000  0.4991790000000 1.0
C      1  0.5815740000000  0.5063140000000  0.4805060000000 1.0
C      1  0.5596740000000  0.5780980000000  0.4812850000000 1.0
C      1  0.5258530000000  0.5509930000000  0.4303930000000 1.0
C      1  0.4719150000000  0.5190140000000  0.4824730000000 1.0
C      1  0.5311280000000  0.5324730000000  0.5023830000000 1.0
C      1  0.5441660000000  0.5290030000000  0.4219020000000 1.0
C      1  0.4735910000000  0.4935380000000  0.4983360000000 1.0
C      1  0.5010060000000  0.4592970000000  0.4714620000000 1.0
C      1  0.5367710000000  0.4236890000000  0.5229860000000 1.0
C      1  0.4237380000000  0.4596070000000  0.5365720000000 1.0
C      1  0.5130340000000  0.5454310000000  0.5684670000000 1.0
C      1  0.4267370000000  0.4737300000000  0.4664770000000 1.0
C      1  0.4138080000000  0.4832270000000  0.4881190000000 1.0
C      1  0.5649850000000  0.4869260000000  0.4407950000000 1.0
C      1  0.4800160000000  0.5014000000000  0.4091830000000 1.0
C      1  0.5055060000000  0.4830730000000  0.5348180000000 1.0
C      1  0.5436050000000  0.5199650000000  0.5252370000000 1.0
C      1  0.4631520000000  0.4429420000000  0.4480660000000 1.0
C      1  0.5142760000000  0.5075930000000  0.4622280000000 1.0
C      1  0.5817280000000  0.4671340000000  0.5520530000000 1.0
C      1  0.5235660000000  0.4809610000000  0.4661150000000 1.0
C      1  0.4472910000000  0.4231000000000  0.5313660000000 1.0
C      1  0.4920680000000  0.4361160000000  0.4536110000000 1.0
C      1  0.4206070000000  0.5219690000000  0.4656440000000 1.0
C      1  0.4909610000000  0.4514330000000  0.5672780000000 1.0
C      1  0.4486620000000  0.4479300000000  0.5478840000000 1.0
C      1  0.5407560000000  0.4678210000000  0.4408790000000 1.0
C      1  0.5742880000000  0.5128430000000  0.5527590000000 1.0
C      1  0.5470450000000  0.4413310000000  0.4540970000000 1.0
C      1  0.4200820000000  0.5609790000000  0.5304450000000 1.0
C      1  0.5395630000000  0.4907310000000  0.5872570000000 1.0
C      1  0.4662650000000  0.4618460000000  0.5251910000000 1.0
C      1  0.4723320000000  0.5643920000000  0.4519930000000 1.0
C      1  0.5818720000000  0.4835110000000  0.4633040000000 1.0
C      1  0.4897960000000  0.5274650000000  0.5333780000000 1.0
C      1  0.5111650000000  0.4612070000000  0.5843570000000 1.0
C      1  0.4696530000000  0.4566470000000  0.4242750000000 1.0
C      1  0.4445370000000  0.5266600000000  0.5547660000000 1.0
C      1  0.4513690000000  0.4580370000000  0.4709180000000 1.0
C      1  0.4403510000000  0.4995010000000  0.5620630000000 1.0
C      1  0.5029040000000  0.4944240000000  0.5083310000000 1.0
C      1  0.5798750000000  0.4655620000000  0.4856960000000 1.0
C      1  0.4640760000000  0.5665430000000  0.5479200000000 1.0
C      1  0.5222200000000  0.5175990000000  0.4069250000000 1.0
C      1  0.4881120000000  0.5422320000000  0.4903830000000 1.0
C      1  0.4270830000000  0.4404480000000  0.5157980000000 1.0
C      1  0.5333730000000  0.5730200000000  0.5288630000000 1.0
C      1  0.5618770000000  0.5617450000000  0.5278280000000 1.0
C      1  0.5045840000000  0.5245390000000  0.5081840000000 1.0
C      1  0.4619010000000  0.4873870000000  0.5756520000000 1.0
C      1  0.5285370000000  0.5217670000000  0.5555600000000 1.0
C      1  0.4285680000000  0.4886860000000  0.5351390000000 1.0
C      1  0.4120530000000  0.5103880000000  0.4925200000000 1.0
C      1  0.4908000000000  0.4169740000000  0.5004640000000 1.0
C      1  0.5430380000000  0.4295050000000  0.4938150000000 1.0
C      1  0.5179790000000  0.4685230000000  0.4203530000000 1.0
C      1  0.4765880000000  0.4763780000000  0.4734290000000 1.0
C      1  0.5488460000000  0.4931970000000  0.5132260000000 1.0
C      1  0.5630120000000  0.5157930000000  0.4380680000000 1.0
C      1  0.5658260000000  0.5277200000000  0.4669140000000 1.0
C      1  0.5180890000000  0.5791300000000  0.5035880000000 1.0
C      1  0.5098540000000  0.4892270000000  0.5932350000000 1.0
C      1  0.5267590000000  0.4808510000000  0.4970990000000 1.0
C      1  0.4852500000000  0.5050330000000  0.4609980000000 1.0
C      1  0.4864830000000  0.5357890000000  0.5786750000000 1.0
C      1  0.4883790000000  0.5684410000000  0.5066030000000 1.0
C      1  0.4153330000000  0.5115010000000  0.5214390000000 1.0
C      1  0.4252480000000  0.4975330000000  0.4500110000000 1.0
C      1  0.4888780000000  0.5622820000000  0.5357540000000 1.0
C      1  0.5753780000000  0.5552800000000  0.4763370000000 1.0
C      1  0.4638230000000  0.4204610000000  0.5078320000000 1.0
C      1  0.4578000000000  0.4909140000000  0.5226140000000 1.0
C      1  0.4371940000000  0.5441770000000  0.4572260000000 1.0
C      1  0.5767370000000  0.4888510000000  0.5056540000000 1.0
C      1  0.5837950000000  0.4894790000000  0.5369860000000 1.0
C      1  0.5021050000000  0.4153970000000  0.4718560000000 1.0
C      1  0.5077690000000  0.4341380000000  0.5183940000000 1.0
C      1  0.4976210000000  0.4498780000000  0.4267420000000 1.0
C      1  0.5030750000000  0.5058140000000  0.5520470000000 1.0
C      1  0.5596410000000  0.4513950000000  0.5604430000000 1.0
C      1  0.4597080000000  0.4822400000000  0.4156100000000 1.0
C      1  0.4620140000000  0.5461460000000  0.5686350000000 1.0
C      1  0.4880980000000  0.5047560000000  0.5791230000000 1.0
C      1  0.5078250000000  0.4932330000000  0.4079120000000 1.0
C      1  0.5510260000000  0.4305550000000  0.5442130000000 1.0
C      1  0.5229320000000  0.5565220000000  0.4595150000000 1.0
C      1  0.5404910000000  0.4625480000000  0.5808570000000 1.0
C      1  0.4593540000000  0.5440160000000  0.4357270000000 1.0
C      1  0.5142410000000  0.5661570000000  0.5487230000000 1.0
C      1  0.5640910000000  0.4439810000000  0.4782790000000 1.0
C      1  0.4377080000000  0.4933760000000  0.4269500000000 1.0
END
