TITL C-231491-4146-1 -0.202368252622858 125000 -763.405152714325 0 0 111 (C1) n - 1
REM
REM in /rds/project/t2_vol4/rds-t2-cs072/BORA/CARBON/from-Arr/AIRSS/Generating-Clusters/GAP-ML-2020/Only-C1/SD-CG/HFTN-CG
REM
REM
REM
REM
REM
REM ./C.cell (11c1c37f851c82e70ff6c80c92926a4b)
REM AIRSS Version 0.9.1 bugfix July 2018 build 013d7b7c2542+ Fri, 06 Jul 2018 19:26:36 +0100
REM compiler GCC version 9.3.0
REM options -cpp -mtune=generic -march=x86-64 -g -O0
REM seed 482343977 1774219581 -460276161 -1757331980 -92183580 -495688097 -1539800191 -1076082059 1464106469 528926984 1063187284 -678476751 2063765723 1541063240 857643119 1578343920 1917086521 -1755318931 -1482792627 -1911051681 -780141978 -958262063 2105695206 438203941 -702999843 1955511327 731120079 1788599869 648186769 -954120670 -1166982432 1701941865 -1802608604
REM
CELL 1.54180   50.00000   50.00000   50.00000   90.00000   90.00000   90.00000
LATT -1
SFAC C  
C      1  0.5343680000000  0.5685190000000  0.4710720000000 1.0
C      1  0.5776220000000  0.4771990000000  0.5344360000000 1.0
C      1  0.5229990000000  0.5829580000000  0.4950140000000 1.0
C      1  0.4378730000000  0.5500930000000  0.5382120000000 1.0
C      1  0.4936440000000  0.5780070000000  0.5466290000000 1.0
C      1  0.5536120000000  0.4831020000000  0.4369050000000 1.0
C      1  0.5566960000000  0.5524560000000  0.4772980000000 1.0
C      1  0.4435320000000  0.4917750000000  0.5613600000000 1.0
C      1  0.4967090000000  0.4717010000000  0.4863490000000 1.0
C      1  0.5848550000000  0.4529690000000  0.5239310000000 1.0
C      1  0.5451210000000  0.4165710000000  0.4821130000000 1.0
C      1  0.5705640000000  0.5224960000000  0.5112880000000 1.0
C      1  0.5227510000000  0.5134220000000  0.4228330000000 1.0
C      1  0.4883810000000  0.5123180000000  0.5717210000000 1.0
C      1  0.5483350000000  0.5127720000000  0.4927100000000 1.0
C      1  0.5684810000000  0.5510030000000  0.5039940000000 1.0
C      1  0.4698440000000  0.4857980000000  0.5724130000000 1.0
C      1  0.5382200000000  0.4866700000000  0.5031600000000 1.0
C      1  0.4977220000000  0.5144710000000  0.4635400000000 1.0
C      1  0.5521630000000  0.5237310000000  0.4651550000000 1.0
C      1  0.5394890000000  0.4248520000000  0.5349950000000 1.0
C      1  0.4585570000000  0.5325930000000  0.4292890000000 1.0
C      1  0.5217860000000  0.5823140000000  0.5452820000000 1.0
C      1  0.5407050000000  0.5101360000000  0.5816780000000 1.0
C      1  0.4207410000000  0.5096160000000  0.5108620000000 1.0
C      1  0.4532240000000  0.5095060000000  0.5026170000000 1.0
C      1  0.5311900000000  0.4722270000000  0.5467640000000 1.0
C      1  0.5119740000000  0.4504790000000  0.5026110000000 1.0
C      1  0.5679200000000  0.5054330000000  0.4484300000000 1.0
C      1  0.4537060000000  0.4277660000000  0.5298120000000 1.0
C      1  0.4218900000000  0.5089490000000  0.4593530000000 1.0
C      1  0.4930030000000  0.4884910000000  0.5282390000000 1.0
C      1  0.5420380000000  0.4818980000000  0.5825440000000 1.0
C      1  0.5242480000000  0.4337470000000  0.5590460000000 1.0
C      1  0.5070220000000  0.4616240000000  0.5321450000000 1.0
C      1  0.5013780000000  0.4245840000000  0.4623670000000 1.0
C      1  0.4456760000000  0.5399610000000  0.5643110000000 1.0
C      1  0.4649620000000  0.4885850000000  0.4152530000000 1.0
C      1  0.4397600000000  0.4749450000000  0.5379530000000 1.0
C      1  0.5495720000000  0.4873650000000  0.5314210000000 1.0
C      1  0.4252660000000  0.4414960000000  0.4845230000000 1.0
C      1  0.4785050000000  0.4657390000000  0.4270410000000 1.0
C      1  0.5285360000000  0.4855110000000  0.4243110000000 1.0
C      1  0.4302110000000  0.5161000000000  0.5596180000000 1.0
C      1  0.4804520000000  0.4195450000000  0.5357830000000 1.0
C      1  0.5226860000000  0.5272020000000  0.5328820000000 1.0
C      1  0.4186990000000  0.4809770000000  0.5182010000000 1.0
C      1  0.5572750000000  0.5540980000000  0.5549280000000 1.0
C      1  0.4998220000000  0.5544110000000  0.4274130000000 1.0
C      1  0.5156150000000  0.5236450000000  0.5848460000000 1.0
C      1  0.4729130000000  0.4570950000000  0.5640840000000 1.0
C      1  0.4609930000000  0.4468080000000  0.4407400000000 1.0
C      1  0.4718840000000  0.5384670000000  0.5733050000000 1.0
C      1  0.4443410000000  0.4270850000000  0.5009910000000 1.0
C      1  0.4571760000000  0.5583980000000  0.5175880000000 1.0
C      1  0.5014460000000  0.4850840000000  0.4613050000000 1.0
C      1  0.5584460000000  0.4409860000000  0.5174760000000 1.0
C      1  0.4793030000000  0.5777670000000  0.5217460000000 1.0
C      1  0.5346900000000  0.5663670000000  0.5655430000000 1.0
C      1  0.5401240000000  0.4571860000000  0.4959650000000 1.0
C      1  0.5946810000000  0.5058260000000  0.5038060000000 1.0
C      1  0.4688230000000  0.4320880000000  0.4869180000000 1.0
C      1  0.4322190000000  0.5194710000000  0.4327780000000 1.0
C      1  0.5545430000000  0.5152000000000  0.5370210000000 1.0
C      1  0.5191730000000  0.4423650000000  0.4509320000000 1.0
C      1  0.5363470000000  0.5821400000000  0.5206890000000 1.0
C      1  0.4690320000000  0.4650280000000  0.4933790000000 1.0
C      1  0.5644520000000  0.4590960000000  0.4503860000000 1.0
C      1  0.4645680000000  0.4848400000000  0.5171910000000 1.0
C      1  0.5932620000000  0.4943560000000  0.4582690000000 1.0
C      1  0.4992010000000  0.5212200000000  0.4927860000000 1.0
C      1  0.6052190000000  0.5076910000000  0.4786290000000 1.0
C      1  0.4896940000000  0.5601090000000  0.5696110000000 1.0
C      1  0.4612520000000  0.5473860000000  0.4753660000000 1.0
C      1  0.5586690000000  0.5260510000000  0.5630850000000 1.0
C      1  0.5010480000000  0.5278920000000  0.4131250000000 1.0
C      1  0.5074530000000  0.4935550000000  0.5037610000000 1.0
C      1  0.4940820000000  0.5867900000000  0.4977340000000 1.0
C      1  0.4223010000000  0.4806470000000  0.4435760000000 1.0
C      1  0.4466830000000  0.4744450000000  0.4772220000000 1.0
C      1  0.5232020000000  0.5288490000000  0.5049700000000 1.0
C      1  0.4693530000000  0.5711370000000  0.4596640000000 1.0
C      1  0.5967970000000  0.4792740000000  0.5162630000000 1.0
C      1  0.4203800000000  0.5268390000000  0.5340410000000 1.0
C      1  0.5587770000000  0.5647900000000  0.5263000000000 1.0
C      1  0.5366720000000  0.4576040000000  0.5714060000000 1.0
C      1  0.4716910000000  0.5334410000000  0.5015820000000 1.0
C      1  0.4736170000000  0.4292570000000  0.4582260000000 1.0
C      1  0.4975770000000  0.4241650000000  0.4935070000000 1.0
C      1  0.4797870000000  0.5910840000000  0.4742510000000 1.0
C      1  0.4681450000000  0.5224010000000  0.4585010000000 1.0
C      1  0.5262340000000  0.5271290000000  0.4494730000000 1.0
C      1  0.4371290000000  0.4927260000000  0.4229390000000 1.0
C      1  0.4099230000000  0.5208600000000  0.4838660000000 1.0
C      1  0.4730410000000  0.5596050000000  0.4331020000000 1.0
C      1  0.4951770000000  0.4401480000000  0.5521110000000 1.0
C      1  0.4492130000000  0.5033120000000  0.4733850000000 1.0
C      1  0.5212380000000  0.5555690000000  0.4477520000000 1.0
C      1  0.5074810000000  0.4678840000000  0.4371730000000 1.0
C      1  0.5149030000000  0.5515910000000  0.5800980000000 1.0
C      1  0.5482710000000  0.4149260000000  0.5088300000000 1.0
C      1  0.4956100000000  0.4075880000000  0.5161110000000 1.0
C      1  0.4141070000000  0.5475580000000  0.4897420000000 1.0
C      1  0.5008760000000  0.5113530000000  0.5441990000000 1.0
C      1  0.4387630000000  0.5581660000000  0.4923930000000 1.0
C      1  0.5908020000000  0.4665830000000  0.4531570000000 1.0
C      1  0.4218360000000  0.4668730000000  0.4951160000000 1.0
C      1  0.4363750000000  0.4567540000000  0.4554830000000 1.0
C      1  0.4504470000000  0.4497940000000  0.5476460000000 1.0
C      1  0.5440600000000  0.4435430000000  0.4672380000000 1.0
C      1  0.4750940000000  0.5159320000000  0.4118210000000 1.0
END
