TITL C-231478-4210-5 42.2384835611952 125000 -487.79553273646 0 0 70 (C1) n - 1
REM
REM in /rds/project/t2_vol4/rds-t2-cs072/BORA/CARBON/from-Arr/AIRSS/Generating-Clusters/GAP-ML-2020/Only-C1/SD-CG/HFTN-CG
REM
REM
REM
REM
REM
REM ./C.cell (11c1c37f851c82e70ff6c80c92926a4b)
REM AIRSS Version 0.9.1 bugfix July 2018 build 013d7b7c2542+ Fri, 06 Jul 2018 19:26:36 +0100
REM compiler GCC version 9.3.0
REM options -cpp -mtune=generic -march=x86-64 -g -O0
REM seed -1732960019 1997179188 -937271662 1561149892 -1263481376 -850758562 1087919950 -1340964269 -1640730993 1502612623 -1342492595 1485109746 -301305727 -1652444183 1014821847 -962641775 -2046643887 563820760 169946614 -1892560277 431785926 -1729235023 1202825385 -1100051037 248952491 1828007221 -23276842 -2092565354 -1891546898 -975275312 1329987943 -1334398500 817755237
REM
CELL 1.54180   50.00000   50.00000   50.00000   90.00000   90.00000   90.00000
LATT -1
SFAC C  
C      1  0.4787560000000  0.5464430000000  0.4539440000000 1.0
C      1  0.4981610000000  0.5225870000000  0.4534840000000 1.0
C      1  0.5592850000000  0.4851700000000  0.5438920000000 1.0
C      1  0.4954190000000  0.5253440000000  0.5008080000000 1.0
C      1  0.5600350000000  0.5106050000000  0.4959440000000 1.0
C      1  0.5211900000000  0.4900490000000  0.5070400000000 1.0
C      1  0.4562630000000  0.4403350000000  0.4662270000000 1.0
C      1  0.5012270000000  0.4499130000000  0.5776810000000 1.0
C      1  0.4271670000000  0.4989080000000  0.5021240000000 1.0
C      1  0.4722010000000  0.5268080000000  0.5557850000000 1.0
C      1  0.5074630000000  0.4673610000000  0.5022120000000 1.0
C      1  0.5184520000000  0.4717190000000  0.5712000000000 1.0
C      1  0.5175440000000  0.5273570000000  0.4766520000000 1.0
C      1  0.5337380000000  0.5520930000000  0.4792820000000 1.0
C      1  0.4918720000000  0.5479800000000  0.5526510000000 1.0
C      1  0.5306630000000  0.4360360000000  0.4678320000000 1.0
C      1  0.5590710000000  0.4423890000000  0.4735910000000 1.0
C      1  0.4705440000000  0.4784130000000  0.5562940000000 1.0
C      1  0.4827790000000  0.5024150000000  0.5651260000000 1.0
C      1  0.5541800000000  0.5277150000000  0.5189780000000 1.0
C      1  0.5625580000000  0.4703240000000  0.4725220000000 1.0
C      1  0.4356030000000  0.4795130000000  0.4830620000000 1.0
C      1  0.4301160000000  0.5470590000000  0.4992290000000 1.0
C      1  0.4450820000000  0.5494150000000  0.5233150000000 1.0
C      1  0.5128770000000  0.4410120000000  0.5162640000000 1.0
C      1  0.5271170000000  0.4246860000000  0.4948540000000 1.0
C      1  0.4528350000000  0.4769430000000  0.5348700000000 1.0
C      1  0.5480330000000  0.5276160000000  0.4400280000000 1.0
C      1  0.4947830000000  0.4572830000000  0.4366430000000 1.0
C      1  0.5361530000000  0.5030230000000  0.4346260000000 1.0
C      1  0.5105780000000  0.4990230000000  0.5703060000000 1.0
C      1  0.4226760000000  0.5227510000000  0.4879070000000 1.0
C      1  0.5521860000000  0.5126210000000  0.5441700000000 1.0
C      1  0.5172640000000  0.5421260000000  0.5591310000000 1.0
C      1  0.4973790000000  0.4727640000000  0.4763930000000 1.0
C      1  0.5173450000000  0.4601610000000  0.4572280000000 1.0
C      1  0.4873910000000  0.5686570000000  0.4725300000000 1.0
C      1  0.5395520000000  0.5503790000000  0.5104210000000 1.0
C      1  0.5346030000000  0.5039540000000  0.4818330000000 1.0
C      1  0.5368980000000  0.4455050000000  0.5359340000000 1.0
C      1  0.5603410000000  0.4456590000000  0.5204750000000 1.0
C      1  0.4399510000000  0.4936490000000  0.4563870000000 1.0
C      1  0.4723900000000  0.5145130000000  0.4906800000000 1.0
C      1  0.4728960000000  0.4422510000000  0.4471390000000 1.0
C      1  0.4497250000000  0.5443550000000  0.4570250000000 1.0
C      1  0.5392620000000  0.4834030000000  0.4583580000000 1.0
C      1  0.5410910000000  0.4656510000000  0.5553450000000 1.0
C      1  0.5559400000000  0.4296510000000  0.4987400000000 1.0
C      1  0.5050900000000  0.5083070000000  0.5201000000000 1.0
C      1  0.5119100000000  0.5713340000000  0.4857210000000 1.0
C      1  0.4394200000000  0.5007250000000  0.5277730000000 1.0
C      1  0.4831040000000  0.4981350000000  0.4684630000000 1.0
C      1  0.4879890000000  0.4838080000000  0.4281630000000 1.0
C      1  0.5297880000000  0.5185720000000  0.5618300000000 1.0
C      1  0.5724270000000  0.4846790000000  0.4961750000000 1.0
C      1  0.5157840000000  0.5679520000000  0.5143440000000 1.0
C      1  0.5073580000000  0.5049610000000  0.4309930000000 1.0
C      1  0.4331710000000  0.5207130000000  0.4613140000000 1.0
C      1  0.4655090000000  0.4915290000000  0.4450740000000 1.0
C      1  0.4919350000000  0.5666640000000  0.5309320000000 1.0
C      1  0.4669150000000  0.5684870000000  0.5179490000000 1.0
C      1  0.5720640000000  0.4717720000000  0.5210530000000 1.0
C      1  0.4603120000000  0.4551090000000  0.5174510000000 1.0
C      1  0.4852730000000  0.4437060000000  0.5283160000000 1.0
C      1  0.4865030000000  0.4547220000000  0.5555070000000 1.0
C      1  0.5504330000000  0.5479170000000  0.4553210000000 1.0
C      1  0.4487820000000  0.4551720000000  0.4902210000000 1.0
C      1  0.4492830000000  0.5259080000000  0.5387140000000 1.0
C      1  0.4654910000000  0.5745230000000  0.4896870000000 1.0
C      1  0.4428260000000  0.5617160000000  0.4787360000000 1.0
END
