TITL C-231504-4286-1 -1.258154359582 125000 -112.380921240728 0 0 18 (C1) n - 1
REM
REM in /rds/project/t2_vol4/rds-t2-cs072/BORA/CARBON/from-Arr/AIRSS/Generating-Clusters/GAP-ML-2020/Only-C1/SD-CG/HFTN-CG
REM
REM
REM
REM
REM
REM ./C.cell (11c1c37f851c82e70ff6c80c92926a4b)
REM AIRSS Version 0.9.1 bugfix July 2018 build 013d7b7c2542+ Fri, 06 Jul 2018 19:26:36 +0100
REM compiler GCC version 9.3.0
REM options -cpp -mtune=generic -march=x86-64 -g -O0
REM seed 906432928 -1132605313 -1609329849 -544098518 1859845508 1681658614 -393428754 463897709 1850203960 893823180 1105546722 1685447852 -1772869560 -1632160538 -991977080 1613321046 -1909303084 1559225000 111677748 476550585 2124862037 -1924875226 -1036132668 909429553 932913988 -27233365 22235451 1078052869 -98452887 -680170853 1276074751 806083751 -276771306
REM
CELL 1.54180   50.00000   50.00000   50.00000   90.00000   90.00000   90.00000
LATT -1
SFAC C  
C      1  0.4767430000000  0.5186790000000  0.4529230000000 1.0
C      1  0.5090140000000  0.4970080000000  0.5486880000000 1.0
C      1  0.4845910000000  0.4994310000000  0.5407850000000 1.0
C      1  0.4679360000000  0.5324810000000  0.4749880000000 1.0
C      1  0.4421230000000  0.5172690000000  0.5184900000000 1.0
C      1  0.4637370000000  0.5069690000000  0.5283530000000 1.0
C      1  0.4948400000000  0.5013950000000  0.4532390000000 1.0
C      1  0.5193610000000  0.4923090000000  0.4642110000000 1.0
C      1  0.5259310000000  0.4823640000000  0.5350550000000 1.0
C      1  0.5388480000000  0.5351720000000  0.4841450000000 1.0
C      1  0.4710390000000  0.4541280000000  0.5290900000000 1.0
C      1  0.5328660000000  0.5555670000000  0.5000730000000 1.0
C      1  0.5143550000000  0.4586370000000  0.5002570000000 1.0
C      1  0.4896510000000  0.4550800000000  0.5121260000000 1.0
C      1  0.5364700000000  0.4650920000000  0.5193060000000 1.0
C      1  0.5188680000000  0.4660260000000  0.4738490000000 1.0
C      1  0.5361170000000  0.5125880000000  0.4724320000000 1.0
C      1  0.4775100000000  0.5498050000000  0.4919890000000 1.0
END
