TITL C-231490-4178-3 0.00772882545039593 125000 -58.3518446538052 0 0 9 (D(inf)h) n - 1
REM
REM in /rds/project/t2_vol4/rds-t2-cs072/BORA/CARBON/from-Arr/AIRSS/Generating-Clusters/GAP-ML-2020/Only-C1/SD-CG/HFTN-CG
REM
REM
REM
REM
REM
REM ./C.cell (11c1c37f851c82e70ff6c80c92926a4b)
REM AIRSS Version 0.9.1 bugfix July 2018 build 013d7b7c2542+ Fri, 06 Jul 2018 19:26:36 +0100
REM compiler GCC version 9.3.0
REM options -cpp -mtune=generic -march=x86-64 -g -O0
REM seed 919016801 434245867 1119171165 1146900496 -679982640 1346511050 -767104797 755315912 -2040831824 -204341357 -472394081 -1496092450 -526235097 848889994 -739294973 -1531020627 -1224268155 -1753777044 -1160525870 -488725244 288771393 1211599256 -478907270 392729756 -2054809403 -150437732 -1056062043 2018958353 1078749122 117238888 1032701177 1766835204 254496948
REM
CELL 1.54180   50.00000   50.00000   50.00000   90.00000   90.00000   90.00000
LATT -1
SFAC C  
C      1  0.4550420000000  0.4588890000000  0.4530660000000 1.0
C      1  0.5149820000000  0.5136990000000  0.5156400000000 1.0
C      1  0.5599290000000  0.5548000000000  0.5625630000000 1.0
C      1  0.5298000000000  0.5272490000000  0.5311090000000 1.0
C      1  0.4850180000000  0.4863000000000  0.4843600000000 1.0
C      1  0.5449580000000  0.5411110000000  0.5469340000000 1.0
C      1  0.4702000000000  0.4727510000000  0.4688910000000 1.0
C      1  0.4400710000000  0.4452000000000  0.4374370000000 1.0
C      1  0.5000000000000  0.5000000000000  0.5000000000000 1.0
END
