TITL C-23831-9639-11 0.0394942833367735 125000 -106.383742284217 0 0 17 (C1) n - 1
REM
REM in /rds/project/t2_vol4/rds-t2-cs072/BORA/CARBON/from-Arr/AIRSS/Generating-Clusters/GAP-ML-2020/Only-C1/SD-CG/HFTN-CG
REM
REM
REM
REM
REM
REM ./C.cell (11c1c37f851c82e70ff6c80c92926a4b)
REM AIRSS Version 0.9.1 bugfix July 2018 build 013d7b7c2542+ Fri, 06 Jul 2018 19:26:36 +0100
REM compiler GCC version 9.3.0
REM options -cpp -mtune=generic -march=x86-64 -g -O0
REM seed -624541452 -1071991429 1137293879 -293272566 -833747927 1911316096 -1636540167 -1687821921 -1132118171 -848401382 354923276 -93075685 199960968 1186925562 551838677 -49641246 336253650 -1239268819 -1786473842 1275289954 364613371 1847465814 1748653420 -490461642 -1276031571 -1966547291 1693331990 -1054715979 -1014204107 1213956533 663700840 -91492754 -1145190086
REM
CELL 1.54180   50.00000   50.00000   50.00000   90.00000   90.00000   90.00000
LATT -1
SFAC C  
C      1  0.5130180000000  0.4694930000000  0.4666680000000 1.0
C      1  0.4587470000000  0.4834800000000  0.4921190000000 1.0
C      1  0.4900030000000  0.5305430000000  0.5124840000000 1.0
C      1  0.4839480000000  0.4500070000000  0.4992280000000 1.0
C      1  0.5358920000000  0.5188450000000  0.4984970000000 1.0
C      1  0.4578570000000  0.5026440000000  0.4757170000000 1.0
C      1  0.5114690000000  0.4874860000000  0.5084670000000 1.0
C      1  0.5066280000000  0.5129030000000  0.4953760000000 1.0
C      1  0.5352030000000  0.5400450000000  0.5189770000000 1.0
C      1  0.5072760000000  0.5504180000000  0.5218530000000 1.0
C      1  0.5350510000000  0.4986740000000  0.5201220000000 1.0
C      1  0.4721200000000  0.4971170000000  0.4520790000000 1.0
C      1  0.5019090000000  0.5300490000000  0.5420560000000 1.0
C      1  0.5311970000000  0.5205150000000  0.5411520000000 1.0
C      1  0.4935740000000  0.4842170000000  0.4582970000000 1.0
C      1  0.4597270000000  0.4595730000000  0.5031860000000 1.0
C      1  0.5063800000000  0.4639920000000  0.4937210000000 1.0
END
