TITL C-231503-4148-12 9.43958366041965 125000 -59.2764116224565 0 0 10 (C1) n - 1
REM
REM in /rds/project/t2_vol4/rds-t2-cs072/BORA/CARBON/from-Arr/AIRSS/Generating-Clusters/GAP-ML-2020/Only-C1/SD-CG/HFTN-CG
REM
REM
REM
REM
REM
REM ./C.cell (11c1c37f851c82e70ff6c80c92926a4b)
REM AIRSS Version 0.9.1 bugfix July 2018 build 013d7b7c2542+ Fri, 06 Jul 2018 19:26:36 +0100
REM compiler GCC version 9.3.0
REM options -cpp -mtune=generic -march=x86-64 -g -O0
REM seed -1913545568 616143142 -725475254 -1201189551 21889350 -1436858848 674498526 -440233549 -817593627 -146253905 2136229600 -609140176 861093676 -877803774 187347770 788220469 -1665907443 270806648 109362825 1093158122 -1987591734 -498049665 -423243077 2113834208 -820802402 -217323217 -1317075517 -833709054 -1757322789 642708832 1458850119 1784854329 656814474
REM
CELL 1.54180   50.00000   50.00000   50.00000   90.00000   90.00000   90.00000
LATT -1
SFAC C  
C      1  0.4944140000000  0.4843560000000  0.4714090000000 1.0
C      1  0.5306650000000  0.5108460000000  0.5213340000000 1.0
C      1  0.5028010000000  0.4969560000000  0.5360050000000 1.0
C      1  0.4819910000000  0.5195010000000  0.5283320000000 1.0
C      1  0.5105500000000  0.5253100000000  0.5367320000000 1.0
C      1  0.4788060000000  0.4937740000000  0.5178490000000 1.0
C      1  0.4886630000000  0.4951460000000  0.4491770000000 1.0
C      1  0.5214900000000  0.4850670000000  0.5152960000000 1.0
C      1  0.4931090000000  0.5058350000000  0.4260720000000 1.0
C      1  0.4975120000000  0.4832070000000  0.4977950000000 1.0
END
