TITL C-231481-4116-6 0.154352277320236 125000 -443.71349478924 0 0 65 (C1) n - 1
REM
REM in /rds/project/t2_vol4/rds-t2-cs072/BORA/CARBON/from-Arr/AIRSS/Generating-Clusters/GAP-ML-2020/Only-C1/SD-CG/HFTN-CG
REM
REM
REM
REM
REM
REM ./C.cell (11c1c37f851c82e70ff6c80c92926a4b)
REM AIRSS Version 0.9.1 bugfix July 2018 build 013d7b7c2542+ Fri, 06 Jul 2018 19:26:36 +0100
REM compiler GCC version 9.3.0
REM options -cpp -mtune=generic -march=x86-64 -g -O0
REM seed -1212897307 2106676700 -347718647 1917248613 1715608473 1870329758 -305482532 554709585 -1537738468 339772658 -21879251 -1675139434 -1968359727 937355654 1607266651 -303016681 -1300247289 98664944 -691067385 1064374639 -1401057400 1388163013 851317327 571370618 300770339 -736734224 180731378 1563865122 -789295834 -2022344469 -855402463 342056200 -872465568
REM
CELL 1.54180   50.00000   50.00000   50.00000   90.00000   90.00000   90.00000
LATT -1
SFAC C  
C      1  0.4828210000000  0.5321240000000  0.5262360000000 1.0
C      1  0.5255850000000  0.5237090000000  0.5014240000000 1.0
C      1  0.5026680000000  0.4839770000000  0.4346870000000 1.0
C      1  0.4385250000000  0.5001710000000  0.4578390000000 1.0
C      1  0.4962820000000  0.5055090000000  0.5306340000000 1.0
C      1  0.5559410000000  0.5248390000000  0.4935920000000 1.0
C      1  0.4589900000000  0.5708230000000  0.4968100000000 1.0
C      1  0.5737570000000  0.4883470000000  0.5204910000000 1.0
C      1  0.4615510000000  0.5225510000000  0.5464780000000 1.0
C      1  0.4545610000000  0.4813270000000  0.5391650000000 1.0
C      1  0.5187260000000  0.5006320000000  0.5794040000000 1.0
C      1  0.4417080000000  0.5059150000000  0.5330340000000 1.0
C      1  0.5637260000000  0.5003370000000  0.4763060000000 1.0
C      1  0.4968090000000  0.4614780000000  0.5573850000000 1.0
C      1  0.4928020000000  0.4929180000000  0.4794520000000 1.0
C      1  0.5263510000000  0.4977260000000  0.4412260000000 1.0
C      1  0.5523940000000  0.5517030000000  0.4831200000000 1.0
C      1  0.5452840000000  0.5049950000000  0.5666300000000 1.0
C      1  0.5446360000000  0.4531200000000  0.5147680000000 1.0
C      1  0.5111860000000  0.4279650000000  0.4897810000000 1.0
C      1  0.5190630000000  0.5529480000000  0.5088230000000 1.0
C      1  0.4854280000000  0.4597890000000  0.5117370000000 1.0
C      1  0.5154980000000  0.4508070000000  0.4705550000000 1.0
C      1  0.4525770000000  0.4607500000000  0.4778730000000 1.0
C      1  0.4959570000000  0.5591610000000  0.5238050000000 1.0
C      1  0.5748380000000  0.4802110000000  0.4932960000000 1.0
C      1  0.4320100000000  0.5080240000000  0.5053190000000 1.0
C      1  0.5047440000000  0.5441570000000  0.4427940000000 1.0
C      1  0.4668420000000  0.4635680000000  0.4534990000000 1.0
C      1  0.4803570000000  0.5302610000000  0.4366580000000 1.0
C      1  0.4665570000000  0.4435560000000  0.4952420000000 1.0
C      1  0.4797500000000  0.5018150000000  0.4313720000000 1.0
C      1  0.5197910000000  0.4726790000000  0.5693200000000 1.0
C      1  0.4739480000000  0.5054650000000  0.5685670000000 1.0
C      1  0.5665420000000  0.5154720000000  0.5220140000000 1.0
C      1  0.5064220000000  0.4710320000000  0.4921210000000 1.0
C      1  0.4951890000000  0.4597560000000  0.4484090000000 1.0
C      1  0.5434540000000  0.4591430000000  0.4666750000000 1.0
C      1  0.4719720000000  0.4774510000000  0.5613290000000 1.0
C      1  0.5053350000000  0.5186000000000  0.4815580000000 1.0
C      1  0.5268890000000  0.5636430000000  0.4828810000000 1.0
C      1  0.5599470000000  0.4563060000000  0.4897010000000 1.0
C      1  0.4382770000000  0.5275960000000  0.4622160000000 1.0
C      1  0.4948420000000  0.5112140000000  0.5856850000000 1.0
C      1  0.5202780000000  0.5233320000000  0.4514630000000 1.0
C      1  0.4405120000000  0.4876290000000  0.4840100000000 1.0
C      1  0.4839200000000  0.4238960000000  0.4885330000000 1.0
C      1  0.4754200000000  0.5546330000000  0.4768140000000 1.0
C      1  0.5461340000000  0.5168850000000  0.5416090000000 1.0
C      1  0.5282510000000  0.4793330000000  0.5083680000000 1.0
C      1  0.4576710000000  0.4877800000000  0.4415300000000 1.0
C      1  0.5235050000000  0.5041020000000  0.5227710000000 1.0
C      1  0.5218460000000  0.4349960000000  0.5167490000000 1.0
C      1  0.5030070000000  0.5611990000000  0.4662530000000 1.0
C      1  0.5005740000000  0.4466520000000  0.5332990000000 1.0
C      1  0.4612280000000  0.5414820000000  0.4540570000000 1.0
C      1  0.5464010000000  0.4762560000000  0.5587330000000 1.0
C      1  0.4756540000000  0.4860550000000  0.5191980000000 1.0
C      1  0.5591170000000  0.4678770000000  0.5357380000000 1.0
C      1  0.4683010000000  0.5003850000000  0.4939530000000 1.0
C      1  0.4308150000000  0.5328930000000  0.4900470000000 1.0
C      1  0.5468110000000  0.4859470000000  0.4568110000000 1.0
C      1  0.4790840000000  0.5288940000000  0.4957130000000 1.0
C      1  0.4340480000000  0.5589260000000  0.4977180000000 1.0
C      1  0.4768910000000  0.5772790000000  0.5167220000000 1.0
END
