TITL C-24728-1300-7 -2348.65533498707 125000 -710.817338125403 0 0 100 (C1) n - 1
REM
REM in /rds/project/t2_vol4/rds-t2-cs072/BORA/CARBON/from-Arr/AIRSS/Generating-Clusters/GAP-ML-2020/Only-C1/SD-CG/HFTN-CG
REM
REM
REM
REM
REM
REM ./C.cell (11c1c37f851c82e70ff6c80c92926a4b)
REM AIRSS Version 0.9.1 bugfix July 2018 build 013d7b7c2542+ Fri, 06 Jul 2018 19:26:36 +0100
REM compiler GCC version 9.3.0
REM options -cpp -mtune=generic -march=x86-64 -g -O0
REM seed 1704291845 -2056250292 170380946 726477086 1008521356 914929894 -324128995 -1219422953 -1729499296 -1646725215 -1273522055 1844461022 2015564265 602057930 1671473740 -1531815149 -992933063 -711270767 392441124 -1361256455 -580780715 267635042 1359349019 -1616860491 47301110 -2131619906 136181246 -350062825 -1218156417 -629317508 -476351004 726630292 -1211732396
REM
CELL 1.54180   50.00000   50.00000   50.00000   90.00000   90.00000   90.00000
LATT -1
SFAC C  
C      1  0.5406060000000  0.5654030000000  0.4716970000000 1.0
C      1  0.5192190000000  0.5538620000000  0.5686310000000 1.0
C      1  0.5706380000000  0.5121000000000  0.5561050000000 1.0
C      1  0.4641420000000  0.5686370000000  0.4737980000000 1.0
C      1  0.5437970000000  0.5302020000000  0.4301590000000 1.0
C      1  0.4721820000000  0.4787320000000  0.5820510000000 1.0
C      1  0.5362100000000  0.4568000000000  0.4353380000000 1.0
C      1  0.4808180000000  0.4334790000000  0.5628080000000 1.0
C      1  0.5127440000000  0.4892570000000  0.5313590000000 1.0
C      1  0.5163970000000  0.5623910000000  0.4567530000000 1.0
C      1  0.5748060000000  0.4888420000000  0.5397940000000 1.0
C      1  0.4213450000000  0.5045700000000  0.4748630000000 1.0
C      1  0.4771070000000  0.4893740000000  0.4866220000000 1.0
C      1  0.4802180000000  0.5280070000000  0.4595620000000 1.0
C      1  0.5261540000000  0.5174440000000  0.4111050000000 1.0
C      1  0.5139520000000  0.5052040000000  0.5825060000000 1.0
C      1  0.4954030000000  0.5296900000000  0.5445510000000 1.0
C      1  0.5007520000000  0.5433830000000  0.5014480000000 1.0
C      1  0.5298410000000  0.5171490000000  0.4673650000000 1.0
C      1  0.5079480000000  0.4294930000000  0.5534520000000 1.0
C      1  0.4882740000000  0.4511330000000  0.5147720000000 1.0
C      1  0.5347500000000  0.4319440000000  0.5117260000000 1.0
C      1  0.5223480000000  0.5226750000000  0.4958710000000 1.0
C      1  0.5606280000000  0.4642730000000  0.5450000000000 1.0
C      1  0.4865430000000  0.4787560000000  0.5283610000000 1.0
C      1  0.5396030000000  0.4887810000000  0.5836290000000 1.0
C      1  0.4253000000000  0.4582920000000  0.5282780000000 1.0
C      1  0.4144720000000  0.4822930000000  0.5179610000000 1.0
C      1  0.4434350000000  0.4539920000000  0.4573190000000 1.0
C      1  0.5387990000000  0.5762060000000  0.4977400000000 1.0
C      1  0.4906880000000  0.5892780000000  0.5120900000000 1.0
C      1  0.5428620000000  0.4647570000000  0.5690240000000 1.0
C      1  0.4401240000000  0.4547170000000  0.5520030000000 1.0
C      1  0.5101710000000  0.4316400000000  0.5255440000000 1.0
C      1  0.4740430000000  0.4992200000000  0.5125880000000 1.0
C      1  0.4833920000000  0.4209710000000  0.4715550000000 1.0
C      1  0.5181700000000  0.4499960000000  0.5715970000000 1.0
C      1  0.5242050000000  0.4812600000000  0.4314760000000 1.0
C      1  0.4508040000000  0.5289290000000  0.4489990000000 1.0
C      1  0.5117930000000  0.4261050000000  0.4647440000000 1.0
C      1  0.4506390000000  0.5260900000000  0.5594560000000 1.0
C      1  0.5067040000000  0.5385080000000  0.4114040000000 1.0
C      1  0.5571230000000  0.5597250000000  0.5368600000000 1.0
C      1  0.4522090000000  0.5702280000000  0.4227630000000 1.0
C      1  0.4575000000000  0.5419690000000  0.4227440000000 1.0
C      1  0.4935470000000  0.4649670000000  0.4893240000000 1.0
C      1  0.4164940000000  0.4810040000000  0.4893840000000 1.0
C      1  0.4290130000000  0.4560720000000  0.4819350000000 1.0
C      1  0.4351300000000  0.5023100000000  0.5578880000000 1.0
C      1  0.5545160000000  0.5125660000000  0.5789140000000 1.0
C      1  0.5345980000000  0.4290060000000  0.4827530000000 1.0
C      1  0.5143970000000  0.5095970000000  0.5504610000000 1.0
C      1  0.4916000000000  0.5479860000000  0.5660440000000 1.0
C      1  0.4825270000000  0.4977080000000  0.4105720000000 1.0
C      1  0.4844080000000  0.4515830000000  0.4352020000000 1.0
C      1  0.5683040000000  0.4895730000000  0.4631250000000 1.0
C      1  0.4520610000000  0.5373240000000  0.5326540000000 1.0
C      1  0.4851310000000  0.5036270000000  0.5869900000000 1.0
C      1  0.5576480000000  0.5199870000000  0.4555440000000 1.0
C      1  0.5581380000000  0.4478950000000  0.5209300000000 1.0
C      1  0.5623290000000  0.5682620000000  0.5103190000000 1.0
C      1  0.5708700000000  0.4562200000000  0.4968620000000 1.0
C      1  0.4712010000000  0.5871830000000  0.4958910000000 1.0
C      1  0.5113850000000  0.4933750000000  0.4103040000000 1.0
C      1  0.4696580000000  0.4755520000000  0.4246850000000 1.0
C      1  0.4203600000000  0.5051500000000  0.5328440000000 1.0
C      1  0.4739440000000  0.5282810000000  0.5756850000000 1.0
C      1  0.5244510000000  0.4962620000000  0.5067500000000 1.0
C      1  0.4911520000000  0.5520950000000  0.4724620000000 1.0
C      1  0.4797810000000  0.5293530000000  0.5198580000000 1.0
C      1  0.5195200000000  0.4765740000000  0.4853180000000 1.0
C      1  0.4674940000000  0.4383290000000  0.4535860000000 1.0
C      1  0.5239840000000  0.5515900000000  0.4313960000000 1.0
C      1  0.5160280000000  0.4931920000000  0.4600460000000 1.0
C      1  0.5300430000000  0.5658420000000  0.5441040000000 1.0
C      1  0.5634510000000  0.5462340000000  0.4700730000000 1.0
C      1  0.4352870000000  0.5028390000000  0.4503600000000 1.0
C      1  0.4268790000000  0.5293990000000  0.4896640000000 1.0
C      1  0.4896830000000  0.4557500000000  0.5794690000000 1.0
C      1  0.4286520000000  0.5284330000000  0.5181570000000 1.0
C      1  0.4791090000000  0.5269830000000  0.4101070000000 1.0
C      1  0.4742930000000  0.4139540000000  0.4961120000000 1.0
C      1  0.4451720000000  0.4774320000000  0.4403990000000 1.0
C      1  0.5727990000000  0.5352280000000  0.5395630000000 1.0
C      1  0.4567440000000  0.5778600000000  0.4467290000000 1.0
C      1  0.4587640000000  0.4333780000000  0.5464490000000 1.0
C      1  0.5306740000000  0.5303870000000  0.5813280000000 1.0
C      1  0.5793830000000  0.4826490000000  0.4895870000000 1.0
C      1  0.4423580000000  0.5452020000000  0.4721240000000 1.0
C      1  0.5836540000000  0.4984000000000  0.5132100000000 1.0
C      1  0.5767140000000  0.5482990000000  0.4951110000000 1.0
C      1  0.4359870000000  0.4433810000000  0.5068250000000 1.0
C      1  0.4615770000000  0.4311960000000  0.5155870000000 1.0
C      1  0.4889000000000  0.5030020000000  0.4652480000000 1.0
C      1  0.5832010000000  0.5273530000000  0.5142300000000 1.0
C      1  0.5575010000000  0.4444430000000  0.4745680000000 1.0
C      1  0.5144380000000  0.5709500000000  0.5166240000000 1.0
C      1  0.5121720000000  0.4424650000000  0.4413540000000 1.0
C      1  0.5576810000000  0.4629630000000  0.4536580000000 1.0
C      1  0.4463560000000  0.4775960000000  0.5681660000000 1.0
END
