TITL C-24092-7333-6 838.92887584507 125000 -719.764094949615 0 0 104 (C1) n - 1
REM
REM in /rds/project/t2_vol4/rds-t2-cs072/BORA/CARBON/from-Arr/AIRSS/Generating-Clusters/GAP-ML-2020/Only-C1/SD-CG/HFTN-CG
REM
REM
REM
REM
REM
REM ./C.cell (11c1c37f851c82e70ff6c80c92926a4b)
REM AIRSS Version 0.9.1 bugfix July 2018 build 013d7b7c2542+ Fri, 06 Jul 2018 19:26:36 +0100
REM compiler GCC version 9.3.0
REM options -cpp -mtune=generic -march=x86-64 -g -O0
REM seed 1649824957 383088079 19917666 -263223808 -213251963 -725349307 -238994696 1038356386 745866577 -980547787 -9144061 -1465621990 -42073733 1609067925 1875742507 329838263 1892533807 -1155001889 -323979523 931401886 -1991493606 -1287948844 -1413844408 1716190938 1123985008 1612191216 -1816491454 -716803791 862847612 101812589 1972997068 144957492 1491831359
REM
CELL 1.54180   50.00000   50.00000   50.00000   90.00000   90.00000   90.00000
LATT -1
SFAC C  
C      1  0.5177390000000  0.5418150000000  0.5204170000000 1.0
C      1  0.5044630000000  0.5176770000000  0.5833190000000 1.0
C      1  0.5473780000000  0.5614530000000  0.5464700000000 1.0
C      1  0.4920510000000  0.4364400000000  0.4441970000000 1.0
C      1  0.5452160000000  0.4506030000000  0.4478180000000 1.0
C      1  0.4106070000000  0.4894270000000  0.4941480000000 1.0
C      1  0.4503600000000  0.4785490000000  0.4363760000000 1.0
C      1  0.5762650000000  0.5366720000000  0.4629520000000 1.0
C      1  0.5017200000000  0.4886470000000  0.5259200000000 1.0
C      1  0.4855940000000  0.4603210000000  0.5117450000000 1.0
C      1  0.5171090000000  0.4442770000000  0.4342200000000 1.0
C      1  0.4370720000000  0.4632960000000  0.5280900000000 1.0
C      1  0.5221700000000  0.5119520000000  0.4844190000000 1.0
C      1  0.4915180000000  0.4254080000000  0.4717740000000 1.0
C      1  0.5338310000000  0.5636620000000  0.4784870000000 1.0
C      1  0.4544760000000  0.4604670000000  0.5526760000000 1.0
C      1  0.4623040000000  0.4816960000000  0.5714790000000 1.0
C      1  0.5346580000000  0.4370250000000  0.5131320000000 1.0
C      1  0.5722660000000  0.4711210000000  0.4834260000000 1.0
C      1  0.4648920000000  0.4209880000000  0.4799950000000 1.0
C      1  0.5531430000000  0.4240980000000  0.4926140000000 1.0
C      1  0.5074470000000  0.4869430000000  0.4419260000000 1.0
C      1  0.5793100000000  0.4755080000000  0.5113410000000 1.0
C      1  0.4825290000000  0.5441950000000  0.4946130000000 1.0
C      1  0.5218570000000  0.4689140000000  0.4223870000000 1.0
C      1  0.5619140000000  0.4869980000000  0.5618860000000 1.0
C      1  0.5319290000000  0.4960800000000  0.4598590000000 1.0
C      1  0.5625880000000  0.4712960000000  0.5358250000000 1.0
C      1  0.4831040000000  0.4309770000000  0.5232850000000 1.0
C      1  0.4562980000000  0.5660640000000  0.5572910000000 1.0
C      1  0.5515980000000  0.5053210000000  0.4387290000000 1.0
C      1  0.4945810000000  0.5575570000000  0.4436960000000 1.0
C      1  0.4209750000000  0.5123580000000  0.5307220000000 1.0
C      1  0.5369200000000  0.4092010000000  0.4757070000000 1.0
C      1  0.4905600000000  0.5042140000000  0.4228210000000 1.0
C      1  0.4361410000000  0.5554730000000  0.5162450000000 1.0
C      1  0.5839270000000  0.5329450000000  0.4900680000000 1.0
C      1  0.5241210000000  0.4984410000000  0.5473740000000 1.0
C      1  0.5269740000000  0.4527720000000  0.5611770000000 1.0
C      1  0.4520300000000  0.5459930000000  0.4922560000000 1.0
C      1  0.5135460000000  0.5434500000000  0.4256940000000 1.0
C      1  0.4169320000000  0.4856340000000  0.5219070000000 1.0
C      1  0.4172500000000  0.4711480000000  0.4741290000000 1.0
C      1  0.4599720000000  0.4715590000000  0.5083320000000 1.0
C      1  0.5251010000000  0.5245150000000  0.5650800000000 1.0
C      1  0.5850530000000  0.4942970000000  0.4742700000000 1.0
C      1  0.5603900000000  0.5668900000000  0.5219280000000 1.0
C      1  0.5233710000000  0.4896760000000  0.5052260000000 1.0
C      1  0.4359690000000  0.4404170000000  0.5091050000000 1.0
C      1  0.4623700000000  0.5036490000000  0.4292260000000 1.0
C      1  0.4525490000000  0.5645730000000  0.4693700000000 1.0
C      1  0.4668670000000  0.4559420000000  0.4476850000000 1.0
C      1  0.4276550000000  0.4858540000000  0.4518250000000 1.0
C      1  0.4891780000000  0.5734620000000  0.4863030000000 1.0
C      1  0.4907130000000  0.5340210000000  0.5195570000000 1.0
C      1  0.5766000000000  0.5108490000000  0.4525540000000 1.0
C      1  0.5098630000000  0.4897280000000  0.5870600000000 1.0
C      1  0.5488330000000  0.4743240000000  0.4268970000000 1.0
C      1  0.4199200000000  0.5315300000000  0.5080350000000 1.0
C      1  0.5679180000000  0.5158090000000  0.5247960000000 1.0
C      1  0.5030020000000  0.5243480000000  0.4090990000000 1.0
C      1  0.4284100000000  0.4468570000000  0.4816450000000 1.0
C      1  0.4695790000000  0.5823610000000  0.5363930000000 1.0
C      1  0.5400840000000  0.5370480000000  0.4355430000000 1.0
C      1  0.5524530000000  0.5517240000000  0.4563560000000 1.0
C      1  0.5343360000000  0.5376150000000  0.4961840000000 1.0
C      1  0.5441240000000  0.4481690000000  0.5386130000000 1.0
C      1  0.4648040000000  0.4979780000000  0.5014740000000 1.0
C      1  0.4803680000000  0.5561820000000  0.5679380000000 1.0
C      1  0.4496230000000  0.5264200000000  0.4419980000000 1.0
C      1  0.5445880000000  0.4690750000000  0.4706260000000 1.0
C      1  0.5261680000000  0.4618830000000  0.4924590000000 1.0
C      1  0.4817050000000  0.5082190000000  0.5225830000000 1.0
C      1  0.4648750000000  0.5510850000000  0.4476200000000 1.0
C      1  0.4271840000000  0.5141300000000  0.4572970000000 1.0
C      1  0.4983780000000  0.4501500000000  0.5668290000000 1.0
C      1  0.5097920000000  0.4196120000000  0.5130640000000 1.0
C      1  0.5213940000000  0.5684780000000  0.5324260000000 1.0
C      1  0.5449570000000  0.4954250000000  0.5254060000000 1.0
C      1  0.4561140000000  0.5105520000000  0.5708480000000 1.0
C      1  0.4149860000000  0.5161440000000  0.4839210000000 1.0
C      1  0.5871080000000  0.5047240000000  0.5021570000000 1.0
C      1  0.4981750000000  0.4569770000000  0.4848840000000 1.0
C      1  0.5634120000000  0.5406580000000  0.5090800000000 1.0
C      1  0.5079070000000  0.5708130000000  0.4659350000000 1.0
C      1  0.5686950000000  0.5149330000000  0.5543600000000 1.0
C      1  0.4778770000000  0.4995200000000  0.4772170000000 1.0
C      1  0.4536650000000  0.5801600000000  0.5132300000000 1.0
C      1  0.4355580000000  0.5221790000000  0.5535330000000 1.0
C      1  0.4884550000000  0.4730230000000  0.5811840000000 1.0
C      1  0.4494100000000  0.4385440000000  0.4644980000000 1.0
C      1  0.4391070000000  0.5488980000000  0.5449780000000 1.0
C      1  0.4635690000000  0.5850320000000  0.4865490000000 1.0
C      1  0.4878880000000  0.4752550000000  0.4635460000000 1.0
C      1  0.5339130000000  0.4796560000000  0.5707710000000 1.0
C      1  0.4948700000000  0.5219040000000  0.4777600000000 1.0
C      1  0.5506180000000  0.5368830000000  0.5615730000000 1.0
C      1  0.5384560000000  0.5787580000000  0.5078540000000 1.0
C      1  0.5102270000000  0.4097310000000  0.4865110000000 1.0
C      1  0.4591050000000  0.4235150000000  0.5074770000000 1.0
C      1  0.4768700000000  0.4416100000000  0.5503880000000 1.0
C      1  0.4953950000000  0.5743700000000  0.5470470000000 1.0
C      1  0.4787340000000  0.5287990000000  0.5776490000000 1.0
C      1  0.5543770000000  0.4264320000000  0.4636370000000 1.0
END
