TITL C-24118-7362-9 24.2608957476202 125000 -474.522660352949 0 0 69 (C1) n - 1
REM
REM in /rds/project/t2_vol4/rds-t2-cs072/BORA/CARBON/from-Arr/AIRSS/Generating-Clusters/GAP-ML-2020/Only-C1/SD-CG/HFTN-CG
REM
REM
REM
REM
REM
REM ./C.cell (11c1c37f851c82e70ff6c80c92926a4b)
REM AIRSS Version 0.9.1 bugfix July 2018 build 013d7b7c2542+ Fri, 06 Jul 2018 19:26:36 +0100
REM compiler GCC version 9.3.0
REM options -cpp -mtune=generic -march=x86-64 -g -O0
REM seed 344028509 -1284312014 769956517 -348657770 626744608 496468938 1698631710 -615854906 2108981614 1653303760 454033728 -1036674684 871093040 684896491 955069272 -1684964858 270256686 -68963403 -736498364 -107792161 365714476 -946256240 1888747157 -545042612 -1557374187 775956166 -849291871 -109115596 -2097371119 -1575640584 1568133095 1014382356 -227030235
REM
CELL 1.54180   50.00000   50.00000   50.00000   90.00000   90.00000   90.00000
LATT -1
SFAC C  
C      1  0.4591310000000  0.4749390000000  0.5556180000000 1.0
C      1  0.5695740000000  0.4816150000000  0.4654710000000 1.0
C      1  0.4283440000000  0.5054130000000  0.5110100000000 1.0
C      1  0.4822850000000  0.5747930000000  0.5190060000000 1.0
C      1  0.5639860000000  0.5055370000000  0.4521700000000 1.0
C      1  0.5285080000000  0.5332470000000  0.4385330000000 1.0
C      1  0.5573730000000  0.4959280000000  0.5302590000000 1.0
C      1  0.5387700000000  0.5381660000000  0.5348880000000 1.0
C      1  0.4879650000000  0.5127170000000  0.4654080000000 1.0
C      1  0.5509140000000  0.5494000000000  0.5107840000000 1.0
C      1  0.4732130000000  0.5219420000000  0.4899150000000 1.0
C      1  0.4373870000000  0.5279960000000  0.4664960000000 1.0
C      1  0.4775070000000  0.4411500000000  0.4678470000000 1.0
C      1  0.5300410000000  0.4594940000000  0.5369330000000 1.0
C      1  0.5206540000000  0.5013720000000  0.5622580000000 1.0
C      1  0.5396870000000  0.5065840000000  0.4358640000000 1.0
C      1  0.5574070000000  0.4664800000000  0.5291100000000 1.0
C      1  0.5448620000000  0.5132520000000  0.5498300000000 1.0
C      1  0.4876820000000  0.4402290000000  0.5337710000000 1.0
C      1  0.4722220000000  0.5220480000000  0.5676590000000 1.0
C      1  0.4433000000000  0.5274960000000  0.4953200000000 1.0
C      1  0.5296810000000  0.4870900000000  0.4860590000000 1.0
C      1  0.4464540000000  0.4404260000000  0.5023930000000 1.0
C      1  0.5178620000000  0.5180660000000  0.5127880000000 1.0
C      1  0.5020130000000  0.4704600000000  0.4305370000000 1.0
C      1  0.5285870000000  0.5632270000000  0.4980230000000 1.0
C      1  0.4857610000000  0.4616710000000  0.5534920000000 1.0
C      1  0.5330930000000  0.5161030000000  0.4866330000000 1.0
C      1  0.5090560000000  0.5701410000000  0.5186390000000 1.0
C      1  0.4418070000000  0.4994840000000  0.4577600000000 1.0
C      1  0.5665050000000  0.5311810000000  0.4654260000000 1.0
C      1  0.4504290000000  0.4507680000000  0.4757380000000 1.0
C      1  0.4387610000000  0.4620340000000  0.5431590000000 1.0
C      1  0.5252590000000  0.4849350000000  0.4293660000000 1.0
C      1  0.5253630000000  0.4448900000000  0.4719750000000 1.0
C      1  0.4709450000000  0.4296370000000  0.5127510000000 1.0
C      1  0.5736500000000  0.5060070000000  0.5081870000000 1.0
C      1  0.4306730000000  0.4582740000000  0.5178930000000 1.0
C      1  0.5462310000000  0.5482480000000  0.4550950000000 1.0
C      1  0.4672420000000  0.4984430000000  0.4445510000000 1.0
C      1  0.4871970000000  0.4259800000000  0.4895820000000 1.0
C      1  0.5026160000000  0.5400110000000  0.4534740000000 1.0
C      1  0.5196820000000  0.5572370000000  0.5434500000000 1.0
C      1  0.5022020000000  0.4845770000000  0.4762510000000 1.0
C      1  0.5799920000000  0.4836040000000  0.4920740000000 1.0
C      1  0.4743170000000  0.5492710000000  0.5581360000000 1.0
C      1  0.4897390000000  0.5189830000000  0.5134450000000 1.0
C      1  0.4633720000000  0.5595990000000  0.5334700000000 1.0
C      1  0.5247780000000  0.5579270000000  0.4707760000000 1.0
C      1  0.5286910000000  0.4903260000000  0.5157890000000 1.0
C      1  0.5144570000000  0.4397160000000  0.5233520000000 1.0
C      1  0.5619460000000  0.5282190000000  0.4941570000000 1.0
C      1  0.4770710000000  0.5534400000000  0.4446210000000 1.0
C      1  0.5473730000000  0.4633280000000  0.4770780000000 1.0
C      1  0.5143650000000  0.4325080000000  0.4951930000000 1.0
C      1  0.5028110000000  0.5484380000000  0.5631650000000 1.0
C      1  0.4239510000000  0.4805830000000  0.5001620000000 1.0
C      1  0.5650670000000  0.4613130000000  0.5020700000000 1.0
C      1  0.5016360000000  0.5202250000000  0.5712010000000 1.0
C      1  0.5127570000000  0.4736410000000  0.5561590000000 1.0
C      1  0.4441220000000  0.5414610000000  0.5232050000000 1.0
C      1  0.4372510000000  0.5163160000000  0.5363850000000 1.0
C      1  0.4549020000000  0.5444070000000  0.4528380000000 1.0
C      1  0.4350990000000  0.4762870000000  0.4735240000000 1.0
C      1  0.4537540000000  0.5041430000000  0.5570780000000 1.0
C      1  0.4766170000000  0.4814890000000  0.4246410000000 1.0
C      1  0.4858750000000  0.4749530000000  0.4988960000000 1.0
C      1  0.5015390000000  0.4565520000000  0.4573710000000 1.0
C      1  0.4766350000000  0.4945810000000  0.5138410000000 1.0
END
