TITL C-24755-1271-3 0.135949514816252 125000 -966.241220212235 0 0 137 (C1) n - 1
REM
REM in /rds/project/t2_vol4/rds-t2-cs072/BORA/CARBON/from-Arr/AIRSS/Generating-Clusters/GAP-ML-2020/Only-C1/SD-CG/HFTN-CG
REM
REM
REM
REM
REM
REM ./C.cell (11c1c37f851c82e70ff6c80c92926a4b)
REM AIRSS Version 0.9.1 bugfix July 2018 build 013d7b7c2542+ Fri, 06 Jul 2018 19:26:36 +0100
REM compiler GCC version 9.3.0
REM options -cpp -mtune=generic -march=x86-64 -g -O0
REM seed -467152968 1291455002 -2009418301 846377988 907346521 655188503 1742896528 931064123 -1854464041 1933077230 -518480480 -2038061617 -1819068021 -1864953539 1356539947 -128074189 -1983021697 -859687299 1658581721 -1482343508 -932652007 -2113188049 -2059450455 552348627 484000291 -38624949 391773891 -1575517752 375782490 -863888953 1324003205 555899445 -1284422621
REM
CELL 1.54180   50.00000   50.00000   50.00000   90.00000   90.00000   90.00000
LATT -1
SFAC C  
C      1  0.4523830000000  0.5984080000000  0.4904610000000 1.0
C      1  0.5271710000000  0.5514300000000  0.5096070000000 1.0
C      1  0.4350140000000  0.4705090000000  0.4226460000000 1.0
C      1  0.4402040000000  0.5527660000000  0.4366270000000 1.0
C      1  0.5450980000000  0.5771540000000  0.5143310000000 1.0
C      1  0.5863610000000  0.5238360000000  0.5041300000000 1.0
C      1  0.5403500000000  0.5268480000000  0.4711710000000 1.0
C      1  0.4582970000000  0.4715030000000  0.5782070000000 1.0
C      1  0.5574660000000  0.4364420000000  0.5557590000000 1.0
C      1  0.4901630000000  0.5396280000000  0.5864740000000 1.0
C      1  0.5234220000000  0.5368540000000  0.4143140000000 1.0
C      1  0.4745510000000  0.4970990000000  0.5768600000000 1.0
C      1  0.5111380000000  0.4236970000000  0.5692350000000 1.0
C      1  0.4879610000000  0.4131190000000  0.5560390000000 1.0
C      1  0.5371000000000  0.5261130000000  0.5818640000000 1.0
C      1  0.4456890000000  0.4705230000000  0.4860190000000 1.0
C      1  0.5172020000000  0.4935310000000  0.5496060000000 1.0
C      1  0.5087930000000  0.4458590000000  0.4229110000000 1.0
C      1  0.5402290000000  0.4325680000000  0.4860890000000 1.0
C      1  0.5410420000000  0.5470760000000  0.5621490000000 1.0
C      1  0.4238200000000  0.4913740000000  0.5222990000000 1.0
C      1  0.5571160000000  0.4488050000000  0.4476220000000 1.0
C      1  0.4239330000000  0.5352330000000  0.5491410000000 1.0
C      1  0.4658050000000  0.5633820000000  0.5573940000000 1.0
C      1  0.5610270000000  0.4955500000000  0.4261760000000 1.0
C      1  0.4796060000000  0.5258200000000  0.4844340000000 1.0
C      1  0.5847650000000  0.4924190000000  0.5431710000000 1.0
C      1  0.5336690000000  0.5259630000000  0.4992840000000 1.0
C      1  0.4964480000000  0.4621400000000  0.5117780000000 1.0
C      1  0.5466890000000  0.5786390000000  0.4833080000000 1.0
C      1  0.4768610000000  0.5853030000000  0.4543160000000 1.0
C      1  0.5510990000000  0.5401330000000  0.4133570000000 1.0
C      1  0.5181400000000  0.5649180000000  0.5533830000000 1.0
C      1  0.5590330000000  0.4560130000000  0.5734650000000 1.0
C      1  0.5982740000000  0.5152370000000  0.5306330000000 1.0
C      1  0.4926820000000  0.5228190000000  0.5297770000000 1.0
C      1  0.4135360000000  0.5464150000000  0.5237780000000 1.0
C      1  0.5186700000000  0.4510750000000  0.4723220000000 1.0
C      1  0.4712320000000  0.4885090000000  0.4014520000000 1.0
C      1  0.5687600000000  0.5640380000000  0.5234260000000 1.0
C      1  0.5691300000000  0.4757400000000  0.4445820000000 1.0
C      1  0.5661150000000  0.4406600000000  0.4745420000000 1.0
C      1  0.5042600000000  0.5929430000000  0.5148330000000 1.0
C      1  0.4612670000000  0.4632330000000  0.4124180000000 1.0
C      1  0.4885020000000  0.5539490000000  0.4853990000000 1.0
C      1  0.4451190000000  0.5840520000000  0.5148980000000 1.0
C      1  0.5647700000000  0.5245690000000  0.4312110000000 1.0
C      1  0.4492770000000  0.5774630000000  0.4486130000000 1.0
C      1  0.4785960000000  0.4424830000000  0.4241330000000 1.0
C      1  0.5217170000000  0.5859890000000  0.4716450000000 1.0
C      1  0.5314950000000  0.4804860000000  0.5295160000000 1.0
C      1  0.4538360000000  0.5107410000000  0.4093800000000 1.0
C      1  0.4879460000000  0.4016730000000  0.5302090000000 1.0
C      1  0.5752220000000  0.4659630000000  0.5148340000000 1.0
C      1  0.5053450000000  0.5137770000000  0.5034630000000 1.0
C      1  0.4643330000000  0.5652260000000  0.5279180000000 1.0
C      1  0.4419050000000  0.4402860000000  0.4915550000000 1.0
C      1  0.4683290000000  0.4113770000000  0.5126480000000 1.0
C      1  0.4172000000000  0.5081660000000  0.5465740000000 1.0
C      1  0.4448680000000  0.4380620000000  0.5460830000000 1.0
C      1  0.4475570000000  0.5430050000000  0.5669280000000 1.0
C      1  0.4921490000000  0.5620080000000  0.5693090000000 1.0
C      1  0.4367890000000  0.4628080000000  0.5600740000000 1.0
C      1  0.5789450000000  0.5067370000000  0.5681100000000 1.0
C      1  0.5102150000000  0.4947470000000  0.4570780000000 1.0
C      1  0.4766700000000  0.4778220000000  0.5263160000000 1.0
C      1  0.5553580000000  0.5036960000000  0.5832310000000 1.0
C      1  0.5574050000000  0.5173370000000  0.5168470000000 1.0
C      1  0.4774130000000  0.5317150000000  0.4350650000000 1.0
C      1  0.4894540000000  0.4973080000000  0.5459720000000 1.0
C      1  0.4141020000000  0.5720820000000  0.4836220000000 1.0
C      1  0.5822710000000  0.4852550000000  0.4690310000000 1.0
C      1  0.4713800000000  0.4681250000000  0.4708630000000 1.0
C      1  0.5198720000000  0.5100630000000  0.4028740000000 1.0
C      1  0.4659410000000  0.4289640000000  0.5627150000000 1.0
C      1  0.5631400000000  0.5430260000000  0.5430420000000 1.0
C      1  0.4749450000000  0.4490970000000  0.5810420000000 1.0
C      1  0.4024930000000  0.4722650000000  0.4558690000000 1.0
C      1  0.4803350000000  0.4168500000000  0.4863490000000 1.0
C      1  0.5682760000000  0.5592570000000  0.4768440000000 1.0
C      1  0.4579910000000  0.5175540000000  0.5025560000000 1.0
C      1  0.4827820000000  0.4896450000000  0.4572570000000 1.0
C      1  0.5243060000000  0.4794980000000  0.4761920000000 1.0
C      1  0.5009780000000  0.5675870000000  0.4584180000000 1.0
C      1  0.5388130000000  0.4890260000000  0.4095990000000 1.0
C      1  0.5042990000000  0.6023430000000  0.4884000000000 1.0
C      1  0.4775080000000  0.6015940000000  0.4776870000000 1.0
C      1  0.5115650000000  0.3974530000000  0.5143870000000 1.0
C      1  0.5675220000000  0.4397860000000  0.5266920000000 1.0
C      1  0.5873590000000  0.5294630000000  0.5524190000000 1.0
C      1  0.4235600000000  0.5360660000000  0.4532490000000 1.0
C      1  0.5603820000000  0.4883920000000  0.5260750000000 1.0
C      1  0.5032200000000  0.4476630000000  0.5843590000000 1.0
C      1  0.4992570000000  0.4895580000000  0.3984590000000 1.0
C      1  0.4564150000000  0.5381290000000  0.4180100000000 1.0
C      1  0.5786210000000  0.4644070000000  0.4873400000000 1.0
C      1  0.5354680000000  0.4170730000000  0.5565260000000 1.0
C      1  0.4176950000000  0.4810370000000  0.5497900000000 1.0
C      1  0.5076890000000  0.5490430000000  0.5301040000000 1.0
C      1  0.4356950000000  0.5092350000000  0.4542250000000 1.0
C      1  0.4645550000000  0.5323070000000  0.5248610000000 1.0
C      1  0.5046640000000  0.5433060000000  0.4390380000000 1.0
C      1  0.4682540000000  0.5144350000000  0.4578220000000 1.0
C      1  0.4652900000000  0.5254780000000  0.5818180000000 1.0
C      1  0.5275190000000  0.4378500000000  0.4451240000000 1.0
C      1  0.5111310000000  0.5215230000000  0.5925310000000 1.0
C      1  0.5174380000000  0.4685870000000  0.4078020000000 1.0
C      1  0.5066920000000  0.4032890000000  0.4857590000000 1.0
C      1  0.5187180000000  0.5214790000000  0.4547480000000 1.0
C      1  0.4659840000000  0.4281300000000  0.4439260000000 1.0
C      1  0.5678440000000  0.5322460000000  0.4614110000000 1.0
C      1  0.4219200000000  0.4887690000000  0.4741800000000 1.0
C      1  0.5332350000000  0.4082180000000  0.5290240000000 1.0
C      1  0.4193190000000  0.5720330000000  0.5120280000000 1.0
C      1  0.4465970000000  0.4289510000000  0.5179550000000 1.0
C      1  0.5853390000000  0.5126080000000  0.4766680000000 1.0
C      1  0.5266080000000  0.4141890000000  0.4676510000000 1.0
C      1  0.4058560000000  0.5297250000000  0.5004360000000 1.0
C      1  0.5253000000000  0.5883420000000  0.5331110000000 1.0
C      1  0.4903440000000  0.5667270000000  0.5136390000000 1.0
C      1  0.5455350000000  0.4760460000000  0.5863940000000 1.0
C      1  0.4358460000000  0.4985600000000  0.4265080000000 1.0
C      1  0.5149780000000  0.4862070000000  0.5026630000000 1.0
C      1  0.4528840000000  0.4881310000000  0.5105380000000 1.0
C      1  0.5004730000000  0.4951070000000  0.5939670000000 1.0
C      1  0.4906890000000  0.4493390000000  0.4844980000000 1.0
C      1  0.5407830000000  0.4328370000000  0.5151560000000 1.0
C      1  0.5819880000000  0.5533420000000  0.5006520000000 1.0
C      1  0.5169260000000  0.4718930000000  0.5920930000000 1.0
C      1  0.4341930000000  0.5873370000000  0.4705360000000 1.0
C      1  0.5204890000000  0.4529090000000  0.5269900000000 1.0
C      1  0.5829110000000  0.4172830000000  0.4873270000000 1.0
C      1  0.5858820000000  0.4195720000000  0.5124390000000 1.0
C      1  0.4108700000000  0.5019770000000  0.4989100000000 1.0
C      1  0.4103520000000  0.4611420000000  0.4342270000000 1.0
C      1  0.4094660000000  0.5453140000000  0.4761630000000 1.0
C      1  0.4572650000000  0.4225070000000  0.4690100000000 1.0
END
