TITL C-24751-1378-3 -0.0650814857548525 125000 -366.135184603266 0 0 54 (C1) n - 1
REM
REM in /rds/project/t2_vol4/rds-t2-cs072/BORA/CARBON/from-Arr/AIRSS/Generating-Clusters/GAP-ML-2020/Only-C1/SD-CG/HFTN-CG
REM
REM
REM
REM
REM
REM ./C.cell (11c1c37f851c82e70ff6c80c92926a4b)
REM AIRSS Version 0.9.1 bugfix July 2018 build 013d7b7c2542+ Fri, 06 Jul 2018 19:26:36 +0100
REM compiler GCC version 9.3.0
REM options -cpp -mtune=generic -march=x86-64 -g -O0
REM seed -2105794327 -1835633494 378425119 834044502 -83490403 -1461287655 -506631745 211987115 1781187615 -1090721445 -558156765 315236619 2107022952 612569976 1824678846 -1059725974 -616329811 1062055960 -1537409736 -513274303 -1295323316 1690210930 -1316149795 -1617697193 1933724447 2032732171 -339852130 -1603517873 -1089434386 -1626265800 1239036739 -1105558483 1766786614
REM
CELL 1.54180   50.00000   50.00000   50.00000   90.00000   90.00000   90.00000
LATT -1
SFAC C  
C      1  0.5148780000000  0.5199020000000  0.4864290000000 1.0
C      1  0.5184800000000  0.4526220000000  0.5363170000000 1.0
C      1  0.5449430000000  0.4896460000000  0.5493800000000 1.0
C      1  0.4863680000000  0.4970320000000  0.4403030000000 1.0
C      1  0.5317590000000  0.5182890000000  0.4602090000000 1.0
C      1  0.5323480000000  0.4885920000000  0.4571010000000 1.0
C      1  0.5505440000000  0.5517680000000  0.4850400000000 1.0
C      1  0.5686630000000  0.5071910000000  0.4853660000000 1.0
C      1  0.4951010000000  0.4571600000000  0.4669650000000 1.0
C      1  0.5529830000000  0.4811320000000  0.4768540000000 1.0
C      1  0.4586220000000  0.4412760000000  0.4953500000000 1.0
C      1  0.5467600000000  0.5154610000000  0.5366780000000 1.0
C      1  0.4867170000000  0.5589290000000  0.5095220000000 1.0
C      1  0.4723510000000  0.4442280000000  0.5185030000000 1.0
C      1  0.5162490000000  0.5358700000000  0.4436280000000 1.0
C      1  0.4462290000000  0.5385330000000  0.4856710000000 1.0
C      1  0.4666390000000  0.4568540000000  0.4743480000000 1.0
C      1  0.4994510000000  0.5568690000000  0.4568500000000 1.0
C      1  0.5604030000000  0.5070790000000  0.5122750000000 1.0
C      1  0.5447870000000  0.4654680000000  0.5297530000000 1.0
C      1  0.5167820000000  0.4978540000000  0.5050950000000 1.0
C      1  0.5653520000000  0.4521600000000  0.5147430000000 1.0
C      1  0.5060180000000  0.4781160000000  0.4513620000000 1.0
C      1  0.5218510000000  0.4887860000000  0.5651840000000 1.0
C      1  0.4596430000000  0.5494910000000  0.5102300000000 1.0
C      1  0.4615070000000  0.4623810000000  0.5379960000000 1.0
C      1  0.4733020000000  0.5001850000000  0.4992960000000 1.0
C      1  0.4766000000000  0.5441880000000  0.4444740000000 1.0
C      1  0.4938380000000  0.4840020000000  0.5094590000000 1.0
C      1  0.5054020000000  0.5121160000000  0.5603180000000 1.0
C      1  0.4518710000000  0.4811040000000  0.4722630000000 1.0
C      1  0.5067680000000  0.4646620000000  0.5588610000000 1.0
C      1  0.4440090000000  0.4930250000000  0.4990070000000 1.0
C      1  0.5214890000000  0.5314910000000  0.5433100000000 1.0
C      1  0.5373480000000  0.4369940000000  0.4827010000000 1.0
C      1  0.4201420000000  0.5282740000000  0.5219950000000 1.0
C      1  0.5250290000000  0.5486930000000  0.4963980000000 1.0
C      1  0.4935600000000  0.5231970000000  0.4325650000000 1.0
C      1  0.5118450000000  0.5506180000000  0.5237210000000 1.0
C      1  0.4611460000000  0.5289950000000  0.4631940000000 1.0
C      1  0.4858560000000  0.5179300000000  0.4813780000000 1.0
C      1  0.5416250000000  0.4843750000000  0.5054290000000 1.0
C      1  0.4461430000000  0.4845070000000  0.5287620000000 1.0
C      1  0.5604970000000  0.4528330000000  0.4859320000000 1.0
C      1  0.4778400000000  0.5015050000000  0.5589890000000 1.0
C      1  0.4603800000000  0.4995890000000  0.4530920000000 1.0
C      1  0.4292440000000  0.5181890000000  0.4983730000000 1.0
C      1  0.5011490000000  0.5624230000000  0.4840640000000 1.0
C      1  0.4455250000000  0.5332960000000  0.5315440000000 1.0
C      1  0.5006090000000  0.4507690000000  0.5137560000000 1.0
C      1  0.4539920000000  0.5083130000000  0.5443020000000 1.0
C      1  0.5121370000000  0.4453080000000  0.4870970000000 1.0
C      1  0.5576030000000  0.5284840000000  0.4714670000000 1.0
C      1  0.4796240000000  0.4722430000000  0.5571030000000 1.0
END
