TITL C-240347-526-4 -12.0016976871028 125000 -91.735721746956 0 0 15 (C1) n - 1
REM
REM in /rds/project/t2_vol4/rds-t2-cs072/BORA/CARBON/from-Arr/AIRSS/Generating-Clusters/GAP-ML-2020/Only-C1/SD-CG/HFTN-CG
REM
REM
REM
REM
REM
REM ./C.cell (11c1c37f851c82e70ff6c80c92926a4b)
REM AIRSS Version 0.9.1 bugfix July 2018 build 013d7b7c2542+ Fri, 06 Jul 2018 19:26:36 +0100
REM compiler GCC version 9.3.0
REM options -cpp -mtune=generic -march=x86-64 -g -O0
REM seed 1412295918 -1110946092 1945752512 1040378134 1249582136 -475840458 663566499 617375154 -964453803 -1732086241 1691621024 -932467616 -2125340236 778024377 2104676144 1491333565 -1201904694 -1125297105 1389360602 -1759709536 -830061145 1110085812 1686324183 -1295805961 1548036038 -241707995 -1647488297 885274499 200053905 1905794509 185783494 -555044953 -1880644317
REM
CELL 1.54180   50.00000   50.00000   50.00000   90.00000   90.00000   90.00000
LATT -1
SFAC C  
C      1  0.5085770000000  0.5201620000000  0.5210220000000 1.0
C      1  0.5212520000000  0.5098400000000  0.4746100000000 1.0
C      1  0.5266250000000  0.4732080000000  0.5201200000000 1.0
C      1  0.4683420000000  0.4696860000000  0.4648680000000 1.0
C      1  0.5121400000000  0.5305390000000  0.5457680000000 1.0
C      1  0.5277540000000  0.4993480000000  0.5121570000000 1.0
C      1  0.4867100000000  0.5235950000000  0.5018230000000 1.0
C      1  0.4948380000000  0.5159760000000  0.4754060000000 1.0
C      1  0.4528930000000  0.4920060000000  0.4565930000000 1.0
C      1  0.5096370000000  0.4567760000000  0.5083370000000 1.0
C      1  0.4932440000000  0.4380540000000  0.5012640000000 1.0
C      1  0.4783800000000  0.4984000000000  0.4624200000000 1.0
C      1  0.4595990000000  0.5273350000000  0.4999370000000 1.0
C      1  0.5178960000000  0.5415090000000  0.5677390000000 1.0
C      1  0.5421130000000  0.5035670000000  0.4879360000000 1.0
END
