TITL C-24106-7228-6 465.992513929095 125000 -814.495353881414 0 0 118 (C1) n - 1
REM
REM in /rds/project/t2_vol4/rds-t2-cs072/BORA/CARBON/from-Arr/AIRSS/Generating-Clusters/GAP-ML-2020/Only-C1/SD-CG/HFTN-CG
REM
REM
REM
REM
REM
REM ./C.cell (11c1c37f851c82e70ff6c80c92926a4b)
REM AIRSS Version 0.9.1 bugfix July 2018 build 013d7b7c2542+ Fri, 06 Jul 2018 19:26:36 +0100
REM compiler GCC version 9.3.0
REM options -cpp -mtune=generic -march=x86-64 -g -O0
REM seed 1331448423 -1871452713 154031485 728225978 -780249123 400555364 2038126367 1540562443 -1477997441 -1195393290 -1709728956 725132688 -527320257 -1075461904 -1343512529 -929365980 -1330439301 -264563711 1582523658 576773562 1017385381 -145108133 -1655088480 -212070680 -2070478195 -228120480 -1636035434 -1979113557 582638054 -458149054 -1313303405 862360164 1126301842
REM
CELL 1.54180   50.00000   50.00000   50.00000   90.00000   90.00000   90.00000
LATT -1
SFAC C  
C      1  0.5181810000000  0.4775670000000  0.5101190000000 1.0
C      1  0.5244630000000  0.5906370000000  0.5234060000000 1.0
C      1  0.5279770000000  0.5567800000000  0.4969130000000 1.0
C      1  0.4228820000000  0.4949020000000  0.5646000000000 1.0
C      1  0.4799800000000  0.4615260000000  0.5847370000000 1.0
C      1  0.5084110000000  0.5211460000000  0.5209580000000 1.0
C      1  0.4523200000000  0.4575520000000  0.5805390000000 1.0
C      1  0.4941060000000  0.5072900000000  0.5437360000000 1.0
C      1  0.4395500000000  0.4831880000000  0.5842820000000 1.0
C      1  0.5337070000000  0.5367590000000  0.5212320000000 1.0
C      1  0.4709410000000  0.4447760000000  0.4301080000000 1.0
C      1  0.4681190000000  0.4766090000000  0.5011030000000 1.0
C      1  0.4971790000000  0.5457030000000  0.4171570000000 1.0
C      1  0.5390010000000  0.4701450000000  0.4203630000000 1.0
C      1  0.4845820000000  0.4889520000000  0.5906870000000 1.0
C      1  0.4562730000000  0.4193860000000  0.5194090000000 1.0
C      1  0.5149920000000  0.5646790000000  0.4322000000000 1.0
C      1  0.5438600000000  0.4414630000000  0.4902050000000 1.0
C      1  0.4967650000000  0.4947210000000  0.4103270000000 1.0
C      1  0.4240420000000  0.5533530000000  0.5143220000000 1.0
C      1  0.4549960000000  0.5276570000000  0.5813620000000 1.0
C      1  0.5597450000000  0.4341820000000  0.5433910000000 1.0
C      1  0.4998910000000  0.4597040000000  0.5621720000000 1.0
C      1  0.5783820000000  0.5330540000000  0.4529980000000 1.0
C      1  0.4571360000000  0.5163670000000  0.4269250000000 1.0
C      1  0.5189050000000  0.4314910000000  0.4773740000000 1.0
C      1  0.4932120000000  0.5505820000000  0.4632750000000 1.0
C      1  0.5404460000000  0.5444010000000  0.4737240000000 1.0
C      1  0.4377980000000  0.5422490000000  0.5400500000000 1.0
C      1  0.5043730000000  0.5786890000000  0.4533270000000 1.0
C      1  0.4234690000000  0.5138490000000  0.4716080000000 1.0
C      1  0.5577300000000  0.5382270000000  0.4325900000000 1.0
C      1  0.5610290000000  0.5138670000000  0.5189480000000 1.0
C      1  0.5109870000000  0.5034960000000  0.4976460000000 1.0
C      1  0.4479130000000  0.5191070000000  0.5237640000000 1.0
C      1  0.4314450000000  0.5239320000000  0.5642390000000 1.0
C      1  0.4555930000000  0.5517780000000  0.4770120000000 1.0
C      1  0.5035730000000  0.4117720000000  0.4996840000000 1.0
C      1  0.4871710000000  0.5855270000000  0.4954810000000 1.0
C      1  0.5625330000000  0.5084700000000  0.5483150000000 1.0
C      1  0.4587090000000  0.5771760000000  0.4913710000000 1.0
C      1  0.4743870000000  0.5477520000000  0.5728450000000 1.0
C      1  0.4203060000000  0.5104130000000  0.5136390000000 1.0
C      1  0.5311620000000  0.5873060000000  0.4955460000000 1.0
C      1  0.4990640000000  0.5563910000000  0.4919230000000 1.0
C      1  0.4260790000000  0.4486520000000  0.4942450000000 1.0
C      1  0.4599260000000  0.5022810000000  0.5930990000000 1.0
C      1  0.5661550000000  0.4565720000000  0.4602350000000 1.0
C      1  0.4668240000000  0.5531970000000  0.4520410000000 1.0
C      1  0.5540000000000  0.4842050000000  0.5631520000000 1.0
C      1  0.4644980000000  0.4251240000000  0.4476280000000 1.0
C      1  0.5693650000000  0.5462020000000  0.4778120000000 1.0
C      1  0.4091370000000  0.4709570000000  0.4932490000000 1.0
C      1  0.4085800000000  0.4852900000000  0.5177100000000 1.0
C      1  0.4162950000000  0.5306760000000  0.4946990000000 1.0
C      1  0.4695520000000  0.5416000000000  0.4262440000000 1.0
C      1  0.5458110000000  0.4502860000000  0.4405200000000 1.0
C      1  0.5221650000000  0.4369110000000  0.4476630000000 1.0
C      1  0.5677930000000  0.4865290000000  0.4703510000000 1.0
C      1  0.4693910000000  0.4329600000000  0.4746530000000 1.0
C      1  0.4146400000000  0.4755310000000  0.5439140000000 1.0
C      1  0.4165840000000  0.4862230000000  0.4700400000000 1.0
C      1  0.5149200000000  0.4119440000000  0.5242120000000 1.0
C      1  0.4666450000000  0.4300510000000  0.5434400000000 1.0
C      1  0.5325650000000  0.5016390000000  0.5731190000000 1.0
C      1  0.5032770000000  0.5212070000000  0.4541990000000 1.0
C      1  0.5487500000000  0.4949370000000  0.4277260000000 1.0
C      1  0.5112380000000  0.4705160000000  0.4141190000000 1.0
C      1  0.5051760000000  0.4926270000000  0.5675590000000 1.0
C      1  0.4964530000000  0.5878270000000  0.5233140000000 1.0
C      1  0.4669910000000  0.5008730000000  0.5385030000000 1.0
C      1  0.4876010000000  0.5418120000000  0.5136860000000 1.0
C      1  0.6130800000000  0.4914260000000  0.5009530000000 1.0
C      1  0.4373240000000  0.5758850000000  0.5074060000000 1.0
C      1  0.5442430000000  0.5258640000000  0.5634060000000 1.0
C      1  0.4489790000000  0.5061040000000  0.4536690000000 1.0
C      1  0.5107150000000  0.5198380000000  0.4193940000000 1.0
C      1  0.4415550000000  0.4759710000000  0.4553080000000 1.0
C      1  0.4740670000000  0.4142360000000  0.4977330000000 1.0
C      1  0.4598880000000  0.5592260000000  0.5510590000000 1.0
C      1  0.4648140000000  0.5282140000000  0.5004330000000 1.0
C      1  0.5264090000000  0.5152340000000  0.4717080000000 1.0
C      1  0.4245290000000  0.4479190000000  0.5429550000000 1.0
C      1  0.5306160000000  0.4233600000000  0.5427130000000 1.0
C      1  0.4829050000000  0.4999350000000  0.4617620000000 1.0
C      1  0.5438630000000  0.5759240000000  0.5391700000000 1.0
C      1  0.5789910000000  0.5591890000000  0.5037510000000 1.0
C      1  0.5808080000000  0.4320470000000  0.5274110000000 1.0
C      1  0.4993970000000  0.4532480000000  0.4339550000000 1.0
C      1  0.6020510000000  0.5137500000000  0.4890090000000 1.0
C      1  0.5444680000000  0.4963950000000  0.4576630000000 1.0
C      1  0.5082150000000  0.5938180000000  0.4764700000000 1.0
C      1  0.5315860000000  0.5497800000000  0.5510180000000 1.0
C      1  0.4505450000000  0.4578180000000  0.4797530000000 1.0
C      1  0.5411850000000  0.5196560000000  0.4178180000000 1.0
C      1  0.4945060000000  0.4609100000000  0.5084730000000 1.0
C      1  0.4454250000000  0.4399680000000  0.5603650000000 1.0
C      1  0.5649280000000  0.4853600000000  0.5023780000000 1.0
C      1  0.5892800000000  0.5083370000000  0.4627870000000 1.0
C      1  0.4311230000000  0.4344110000000  0.5177060000000 1.0
C      1  0.4955690000000  0.4504010000000  0.4803100000000 1.0
C      1  0.5709760000000  0.4392800000000  0.4814580000000 1.0
C      1  0.5665180000000  0.5732490000000  0.5222570000000 1.0
C      1  0.4857130000000  0.5639600000000  0.5363780000000 1.0
C      1  0.4793980000000  0.5029210000000  0.4901910000000 1.0
C      1  0.5392360000000  0.5553300000000  0.4446960000000 1.0
C      1  0.4561370000000  0.4694220000000  0.4291250000000 1.0
C      1  0.4687210000000  0.4925110000000  0.4159080000000 1.0
C      1  0.4638440000000  0.4749700000000  0.5300750000000 1.0
C      1  0.5240610000000  0.4439830000000  0.5623840000000 1.0
C      1  0.4845370000000  0.4534370000000  0.5373280000000 1.0
C      1  0.4939810000000  0.4715120000000  0.4592370000000 1.0
C      1  0.5877080000000  0.4449720000000  0.5039990000000 1.0
C      1  0.5819930000000  0.5299320000000  0.5033320000000 1.0
C      1  0.5935000000000  0.4732690000000  0.5064190000000 1.0
C      1  0.5012360000000  0.5539040000000  0.5596400000000 1.0
C      1  0.5430350000000  0.4659890000000  0.5061990000000 1.0
C      1  0.5506460000000  0.4559330000000  0.5620920000000 1.0
END
