TITL C-24113-7355-6 49.8859234935123 125000 -674.541322360312 0 0 97 (C1) n - 1
REM
REM in /rds/project/t2_vol4/rds-t2-cs072/BORA/CARBON/from-Arr/AIRSS/Generating-Clusters/GAP-ML-2020/Only-C1/SD-CG/HFTN-CG
REM
REM
REM
REM
REM
REM ./C.cell (11c1c37f851c82e70ff6c80c92926a4b)
REM AIRSS Version 0.9.1 bugfix July 2018 build 013d7b7c2542+ Fri, 06 Jul 2018 19:26:36 +0100
REM compiler GCC version 9.3.0
REM options -cpp -mtune=generic -march=x86-64 -g -O0
REM seed -1934427403 -1469155254 -1023936016 -579452547 626513275 -1615568739 -1110679908 -704713574 1514288650 -858947962 -901676069 -283882459 -1265680165 -1699525971 482004420 1173042735 1965679832 1422493811 -1946826101 -1075143223 -1190484433 -2020673310 -99007828 1569151927 1159905057 1388930372 -1615467327 386071649 -1938498751 -398010214 -842425860 2110725919 -128641561
REM
CELL 1.54180   50.00000   50.00000   50.00000   90.00000   90.00000   90.00000
LATT -1
SFAC C  
C      1  0.4645110000000  0.5455870000000  0.5607080000000 1.0
C      1  0.5132140000000  0.4328140000000  0.5580450000000 1.0
C      1  0.4156550000000  0.5436220000000  0.5496140000000 1.0
C      1  0.4926700000000  0.5116030000000  0.5814520000000 1.0
C      1  0.5324840000000  0.4295790000000  0.4738030000000 1.0
C      1  0.5579920000000  0.5522620000000  0.4992790000000 1.0
C      1  0.5206350000000  0.5103350000000  0.4181340000000 1.0
C      1  0.4169690000000  0.5220780000000  0.5322700000000 1.0
C      1  0.5202500000000  0.5796410000000  0.5002230000000 1.0
C      1  0.4687050000000  0.4339320000000  0.5410290000000 1.0
C      1  0.5511370000000  0.5575220000000  0.4706250000000 1.0
C      1  0.4236850000000  0.5108980000000  0.4580320000000 1.0
C      1  0.4646260000000  0.4578300000000  0.4331350000000 1.0
C      1  0.4338330000000  0.4905180000000  0.4410280000000 1.0
C      1  0.4847270000000  0.4664390000000  0.5714250000000 1.0
C      1  0.5702370000000  0.5054080000000  0.4816870000000 1.0
C      1  0.5664090000000  0.5393110000000  0.5243370000000 1.0
C      1  0.5455430000000  0.5144970000000  0.4333390000000 1.0
C      1  0.4368840000000  0.5351380000000  0.4498430000000 1.0
C      1  0.4793690000000  0.4344540000000  0.4308320000000 1.0
C      1  0.5488560000000  0.4979560000000  0.5644190000000 1.0
C      1  0.5122250000000  0.5289090000000  0.5718390000000 1.0
C      1  0.4733830000000  0.5326710000000  0.4768400000000 1.0
C      1  0.4283610000000  0.4978240000000  0.5416860000000 1.0
C      1  0.4400160000000  0.4646510000000  0.4493700000000 1.0
C      1  0.5020670000000  0.5283010000000  0.4115800000000 1.0
C      1  0.4564760000000  0.5797510000000  0.4679420000000 1.0
C      1  0.4189420000000  0.5267850000000  0.5037880000000 1.0
C      1  0.4787880000000  0.5023680000000  0.4746820000000 1.0
C      1  0.4737890000000  0.5181780000000  0.5215990000000 1.0
C      1  0.4776360000000  0.5660400000000  0.5200000000000 1.0
C      1  0.4606130000000  0.4499840000000  0.4899740000000 1.0
C      1  0.4839610000000  0.4928450000000  0.5252370000000 1.0
C      1  0.4671390000000  0.4781840000000  0.5511320000000 1.0
C      1  0.5867630000000  0.4681330000000  0.4787170000000 1.0
C      1  0.5705330000000  0.4933150000000  0.5471070000000 1.0
C      1  0.5751350000000  0.4872440000000  0.4598660000000 1.0
C      1  0.4935110000000  0.5466110000000  0.4547900000000 1.0
C      1  0.5123040000000  0.5530980000000  0.5576430000000 1.0
C      1  0.4409020000000  0.5517190000000  0.5452430000000 1.0
C      1  0.5141980000000  0.4960260000000  0.5299040000000 1.0
C      1  0.4833980000000  0.5389460000000  0.4283110000000 1.0
C      1  0.5549240000000  0.4881560000000  0.4395150000000 1.0
C      1  0.4661220000000  0.5197050000000  0.5730810000000 1.0
C      1  0.5144460000000  0.5324830000000  0.4957160000000 1.0
C      1  0.5078110000000  0.4870400000000  0.4318160000000 1.0
C      1  0.5714030000000  0.4666560000000  0.5352650000000 1.0
C      1  0.5797610000000  0.5141380000000  0.5283550000000 1.0
C      1  0.5520150000000  0.4304090000000  0.4951730000000 1.0
C      1  0.5295360000000  0.4418530000000  0.4466250000000 1.0
C      1  0.4815300000000  0.5868760000000  0.4759470000000 1.0
C      1  0.5381650000000  0.5443680000000  0.5393070000000 1.0
C      1  0.5234750000000  0.5060730000000  0.5042470000000 1.0
C      1  0.5023720000000  0.4337850000000  0.4765760000000 1.0
C      1  0.5043040000000  0.4626290000000  0.4922500000000 1.0
C      1  0.5420850000000  0.5353870000000  0.4535500000000 1.0
C      1  0.5083430000000  0.4533540000000  0.5190750000000 1.0
C      1  0.4785870000000  0.4788060000000  0.4958280000000 1.0
C      1  0.4182830000000  0.5046450000000  0.4857250000000 1.0
C      1  0.5271550000000  0.4698560000000  0.5304800000000 1.0
C      1  0.5323620000000  0.4688120000000  0.4351330000000 1.0
C      1  0.5905810000000  0.5034420000000  0.5035580000000 1.0
C      1  0.5475280000000  0.4941250000000  0.4960060000000 1.0
C      1  0.4515300000000  0.4572880000000  0.5373730000000 1.0
C      1  0.4919520000000  0.5852250000000  0.5028280000000 1.0
C      1  0.5565980000000  0.4426860000000  0.5444590000000 1.0
C      1  0.6058510000000  0.4834850000000  0.4938620000000 1.0
C      1  0.4776080000000  0.4272150000000  0.4933830000000 1.0
C      1  0.4306970000000  0.4741740000000  0.5244090000000 1.0
C      1  0.4566380000000  0.5284740000000  0.4300990000000 1.0
C      1  0.5537440000000  0.4714140000000  0.5124530000000 1.0
C      1  0.5309100000000  0.5542260000000  0.5115930000000 1.0
C      1  0.4774980000000  0.4819160000000  0.4253140000000 1.0
C      1  0.5694810000000  0.4527590000000  0.4952130000000 1.0
C      1  0.4558010000000  0.5005710000000  0.4250900000000 1.0
C      1  0.4495680000000  0.4992740000000  0.5609290000000 1.0
C      1  0.5319260000000  0.4770990000000  0.5762700000000 1.0
C      1  0.5010930000000  0.4344510000000  0.4466940000000 1.0
C      1  0.5026240000000  0.5746630000000  0.4597390000000 1.0
C      1  0.5282720000000  0.5768380000000  0.4729180000000 1.0
C      1  0.5436110000000  0.4262790000000  0.5230500000000 1.0
C      1  0.4860510000000  0.5591480000000  0.5482510000000 1.0
C      1  0.4329560000000  0.5506440000000  0.4979630000000 1.0
C      1  0.4481870000000  0.5619320000000  0.5197810000000 1.0
C      1  0.4370560000000  0.4589820000000  0.4775660000000 1.0
C      1  0.4243420000000  0.4776590000000  0.4957920000000 1.0
C      1  0.5142020000000  0.4249330000000  0.5295880000000 1.0
C      1  0.4849110000000  0.4218710000000  0.5205270000000 1.0
C      1  0.5058140000000  0.5007150000000  0.4618930000000 1.0
C      1  0.4444890000000  0.5542920000000  0.4714000000000 1.0
C      1  0.5159650000000  0.5295760000000  0.4650440000000 1.0
C      1  0.5201150000000  0.4857190000000  0.4828880000000 1.0
C      1  0.4872590000000  0.4398890000000  0.5634160000000 1.0
C      1  0.5040910000000  0.4841820000000  0.5817230000000 1.0
C      1  0.5342930000000  0.4529860000000  0.5597480000000 1.0
C      1  0.5302110000000  0.5169450000000  0.5518430000000 1.0
C      1  0.4853420000000  0.5368850000000  0.5031610000000 1.0
END
