TITL C-24757-1290-5 -81.5337399043599 125000 -249.925040887304 0 0 37 (C1) n - 1
REM
REM in /rds/project/t2_vol4/rds-t2-cs072/BORA/CARBON/from-Arr/AIRSS/Generating-Clusters/GAP-ML-2020/Only-C1/SD-CG/HFTN-CG
REM
REM
REM
REM
REM
REM ./C.cell (11c1c37f851c82e70ff6c80c92926a4b)
REM AIRSS Version 0.9.1 bugfix July 2018 build 013d7b7c2542+ Fri, 06 Jul 2018 19:26:36 +0100
REM compiler GCC version 9.3.0
REM options -cpp -mtune=generic -march=x86-64 -g -O0
REM seed 1627588430 1673586480 526824193 -1837268153 1800483942 1730684647 1349000258 -789936246 874303068 -1451496187 250337851 11148967 1040607761 -1988966451 -1792561172 608422913 -1282196520 917662162 -1038653135 2069102267 -1458529447 185517693 256288456 -278019259 1840888830 1715559460 1067636517 -28684941 -603482288 1939105855 -686331868 39169295 115161979
REM
CELL 1.54180   50.00000   50.00000   50.00000   90.00000   90.00000   90.00000
LATT -1
SFAC C  
C      1  0.4844970000000  0.5447220000000  0.4607250000000 1.0
C      1  0.4861770000000  0.4865540000000  0.5474670000000 1.0
C      1  0.5330120000000  0.5471820000000  0.5094130000000 1.0
C      1  0.5044610000000  0.4477240000000  0.4831860000000 1.0
C      1  0.4498640000000  0.4958010000000  0.5200670000000 1.0
C      1  0.5032110000000  0.5062550000000  0.5008090000000 1.0
C      1  0.5491310000000  0.5252480000000  0.5039580000000 1.0
C      1  0.5500750000000  0.5069050000000  0.5261310000000 1.0
C      1  0.5239420000000  0.4619650000000  0.5260010000000 1.0
C      1  0.5654830000000  0.4847100000000  0.5230230000000 1.0
C      1  0.5283720000000  0.5059020000000  0.5455290000000 1.0
C      1  0.4625290000000  0.5072550000000  0.4725610000000 1.0
C      1  0.5458430000000  0.4729340000000  0.5084530000000 1.0
C      1  0.4869310000000  0.4943080000000  0.4860070000000 1.0
C      1  0.4924470000000  0.5557380000000  0.5112290000000 1.0
C      1  0.4608400000000  0.4627490000000  0.4621320000000 1.0
C      1  0.4438130000000  0.4855020000000  0.4708640000000 1.0
C      1  0.4652320000000  0.5348480000000  0.4778300000000 1.0
C      1  0.5331320000000  0.5264420000000  0.4587680000000 1.0
C      1  0.5128770000000  0.5482910000000  0.5306260000000 1.0
C      1  0.5118460000000  0.5448540000000  0.4651220000000 1.0
C      1  0.4673170000000  0.4743800000000  0.5299630000000 1.0
C      1  0.5421250000000  0.4805100000000  0.4801400000000 1.0
C      1  0.4620080000000  0.5217140000000  0.5275140000000 1.0
C      1  0.5455690000000  0.5108960000000  0.4770840000000 1.0
C      1  0.4684050000000  0.5420330000000  0.5072050000000 1.0
C      1  0.5220140000000  0.4648170000000  0.4670100000000 1.0
C      1  0.4367940000000  0.4894980000000  0.4969520000000 1.0
C      1  0.5088470000000  0.5267120000000  0.5467270000000 1.0
C      1  0.4756880000000  0.4536420000000  0.5127960000000 1.0
C      1  0.5136940000000  0.5569260000000  0.4904140000000 1.0
C      1  0.4743720000000  0.4503420000000  0.4836990000000 1.0
C      1  0.5141080000000  0.4810200000000  0.5454290000000 1.0
C      1  0.5068490000000  0.4690190000000  0.4425960000000 1.0
C      1  0.4822740000000  0.5153290000000  0.5471690000000 1.0
C      1  0.4813920000000  0.4684320000000  0.4436170000000 1.0
C      1  0.5048330000000  0.4488410000000  0.5117830000000 1.0
END
