TITL C-240341-508-3 0.139899901705703 125000 -634.21533686666 0 0 91 (C1) n - 1
REM
REM in /rds/project/t2_vol4/rds-t2-cs072/BORA/CARBON/from-Arr/AIRSS/Generating-Clusters/GAP-ML-2020/Only-C1/SD-CG/HFTN-CG
REM
REM
REM
REM
REM
REM ./C.cell (11c1c37f851c82e70ff6c80c92926a4b)
REM AIRSS Version 0.9.1 bugfix July 2018 build 013d7b7c2542+ Fri, 06 Jul 2018 19:26:36 +0100
REM compiler GCC version 9.3.0
REM options -cpp -mtune=generic -march=x86-64 -g -O0
REM seed 903146869 565228937 -978026377 559473881 -162698151 -227565619 187173484 3416609 1355100659 1086188088 -800028212 2022038094 1941512266 -850726791 -1491246540 795356481 -1659174015 -1154705586 1431592612 -877713602 -1943527784 568299836 949145479 -77413847 1180583998 984962193 -458111728 -519137450 -260031402 -1300699223 580563972 1281870375 -1964204207
REM
CELL 1.54180   50.00000   50.00000   50.00000   90.00000   90.00000   90.00000
LATT -1
SFAC C  
C      1  0.5047830000000  0.5733930000000  0.4964590000000 1.0
C      1  0.5324930000000  0.4868320000000  0.5775610000000 1.0
C      1  0.5224910000000  0.4493870000000  0.4367310000000 1.0
C      1  0.4910130000000  0.4233680000000  0.4654130000000 1.0
C      1  0.5533330000000  0.5430570000000  0.4535330000000 1.0
C      1  0.4187990000000  0.4672030000000  0.5205290000000 1.0
C      1  0.5168090000000  0.4834290000000  0.6010040000000 1.0
C      1  0.5506240000000  0.4780400000000  0.5296550000000 1.0
C      1  0.5154780000000  0.5348220000000  0.5749260000000 1.0
C      1  0.5348310000000  0.4851710000000  0.5031090000000 1.0
C      1  0.5471390000000  0.5526530000000  0.5466790000000 1.0
C      1  0.5268850000000  0.5591910000000  0.5652970000000 1.0
C      1  0.4328870000000  0.5395980000000  0.5308860000000 1.0
C      1  0.4352970000000  0.5048260000000  0.4650870000000 1.0
C      1  0.4870810000000  0.5379240000000  0.5706040000000 1.0
C      1  0.5814570000000  0.5167710000000  0.4839450000000 1.0
C      1  0.5462710000000  0.5617590000000  0.4740220000000 1.0
C      1  0.5062690000000  0.5782850000000  0.5622970000000 1.0
C      1  0.4199290000000  0.4868090000000  0.4804810000000 1.0
C      1  0.4777150000000  0.5239870000000  0.4259000000000 1.0
C      1  0.4947630000000  0.4907170000000  0.5901500000000 1.0
C      1  0.5415620000000  0.4283470000000  0.4776120000000 1.0
C      1  0.4810300000000  0.5644380000000  0.5624670000000 1.0
C      1  0.5112150000000  0.4687330000000  0.4975190000000 1.0
C      1  0.5003110000000  0.4846780000000  0.4112270000000 1.0
C      1  0.4625180000000  0.5446190000000  0.4691110000000 1.0
C      1  0.4287450000000  0.4733270000000  0.5470490000000 1.0
C      1  0.5042740000000  0.4889020000000  0.5426610000000 1.0
C      1  0.5166840000000  0.4416420000000  0.5465370000000 1.0
C      1  0.4464440000000  0.5617320000000  0.5197490000000 1.0
C      1  0.4281620000000  0.4596740000000  0.4758330000000 1.0
C      1  0.4705900000000  0.5191750000000  0.5550140000000 1.0
C      1  0.5049110000000  0.5113340000000  0.5230230000000 1.0
C      1  0.5633180000000  0.4677210000000  0.4612700000000 1.0
C      1  0.5827660000000  0.5092000000000  0.5125710000000 1.0
C      1  0.5176150000000  0.5672960000000  0.4720920000000 1.0
C      1  0.5239040000000  0.4730480000000  0.4215640000000 1.0
C      1  0.4748650000000  0.4756470000000  0.4175790000000 1.0
C      1  0.4587730000000  0.5101000000000  0.5066500000000 1.0
C      1  0.4648840000000  0.4802710000000  0.5104090000000 1.0
C      1  0.4404210000000  0.5210700000000  0.5528510000000 1.0
C      1  0.5661810000000  0.5037790000000  0.5348060000000 1.0
C      1  0.5276890000000  0.5194540000000  0.4211970000000 1.0
C      1  0.4503150000000  0.4624820000000  0.4553260000000 1.0
C      1  0.4532680000000  0.4315880000000  0.5083440000000 1.0
C      1  0.4929590000000  0.4801600000000  0.5176730000000 1.0
C      1  0.4293560000000  0.4471740000000  0.5016080000000 1.0
C      1  0.5198770000000  0.5833820000000  0.5181820000000 1.0
C      1  0.4832670000000  0.5560230000000  0.5111360000000 1.0
C      1  0.5645440000000  0.4561840000000  0.5112700000000 1.0
C      1  0.5072570000000  0.5557360000000  0.4481750000000 1.0
C      1  0.4606330000000  0.5163820000000  0.4775490000000 1.0
C      1  0.5454400000000  0.5690700000000  0.5225320000000 1.0
C      1  0.4307160000000  0.5168390000000  0.5141480000000 1.0
C      1  0.4798020000000  0.5255120000000  0.5233730000000 1.0
C      1  0.4645030000000  0.4382310000000  0.5358630000000 1.0
C      1  0.5004250000000  0.5896160000000  0.5379190000000 1.0
C      1  0.5416450000000  0.4948130000000  0.4273130000000 1.0
C      1  0.5765980000000  0.4671350000000  0.4871090000000 1.0
C      1  0.5447600000000  0.4466830000000  0.4556460000000 1.0
C      1  0.4430740000000  0.4895780000000  0.4433130000000 1.0
C      1  0.5364000000000  0.5144090000000  0.5712700000000 1.0
C      1  0.5136880000000  0.5177300000000  0.4773630000000 1.0
C      1  0.4856230000000  0.4959660000000  0.5643550000000 1.0
C      1  0.4753420000000  0.4359340000000  0.4892570000000 1.0
C      1  0.4945810000000  0.4384980000000  0.4419010000000 1.0
C      1  0.4592940000000  0.5582310000000  0.4934950000000 1.0
C      1  0.5247760000000  0.4309530000000  0.5217230000000 1.0
C      1  0.4262370000000  0.4980060000000  0.5585130000000 1.0
C      1  0.5306680000000  0.5423370000000  0.4364850000000 1.0
C      1  0.5681530000000  0.5191430000000  0.4593750000000 1.0
C      1  0.5245740000000  0.5122770000000  0.5016470000000 1.0
C      1  0.4727390000000  0.5728100000000  0.5347600000000 1.0
C      1  0.4538220000000  0.4652390000000  0.5359990000000 1.0
C      1  0.4915550000000  0.5038750000000  0.4695650000000 1.0
C      1  0.4604750000000  0.5000540000000  0.4247250000000 1.0
C      1  0.5610480000000  0.4934510000000  0.4476540000000 1.0
C      1  0.4709680000000  0.4534830000000  0.4350850000000 1.0
C      1  0.4894710000000  0.4333750000000  0.5461190000000 1.0
C      1  0.4800720000000  0.5460940000000  0.4452300000000 1.0
C      1  0.5883770000000  0.4913210000000  0.4930360000000 1.0
C      1  0.5013960000000  0.5131880000000  0.4138000000000 1.0
C      1  0.4150120000000  0.4930990000000  0.5071210000000 1.0
C      1  0.4950600000000  0.4767590000000  0.4743980000000 1.0
C      1  0.5577310000000  0.5636720000000  0.4984570000000 1.0
C      1  0.5150430000000  0.4203570000000  0.4788570000000 1.0
C      1  0.5287380000000  0.4714540000000  0.5506410000000 1.0
C      1  0.5486530000000  0.4342890000000  0.5057450000000 1.0
C      1  0.5053290000000  0.4375470000000  0.5006460000000 1.0
C      1  0.4690690000000  0.4644310000000  0.4816340000000 1.0
C      1  0.5544500000000  0.5240180000000  0.5516020000000 1.0
END
