TITL C-24753-1296-2 -8.02710689760857 125000 -703.892496740572 0 0 98 (C1) n - 1
REM
REM in /rds/project/t2_vol4/rds-t2-cs072/BORA/CARBON/from-Arr/AIRSS/Generating-Clusters/GAP-ML-2020/Only-C1/SD-CG/HFTN-CG
REM
REM
REM
REM
REM
REM ./C.cell (11c1c37f851c82e70ff6c80c92926a4b)
REM AIRSS Version 0.9.1 bugfix July 2018 build 013d7b7c2542+ Fri, 06 Jul 2018 19:26:36 +0100
REM compiler GCC version 9.3.0
REM options -cpp -mtune=generic -march=x86-64 -g -O0
REM seed 1810081126 845114398 -1607115651 1928823969 -84491456 -1982916831 1763295476 -1367109574 -2143915041 1479092885 -674086683 -1967027647 1297771480 -35666662 -1841154197 1234708290 809081548 413684407 938982802 -502044499 454043885 -2136530748 -446847943 932638095 -959660160 -1392497837 1593323895 1035456540 1285966367 -1081559299 871786293 -59051482 -1052009545
REM
CELL 1.54180   50.00000   50.00000   50.00000   90.00000   90.00000   90.00000
LATT -1
SFAC C  
C      1  0.4458360000000  0.5513860000000  0.4568330000000 1.0
C      1  0.4851090000000  0.4888850000000  0.5272850000000 1.0
C      1  0.5760770000000  0.4631250000000  0.4688300000000 1.0
C      1  0.4697050000000  0.5667600000000  0.4576920000000 1.0
C      1  0.5177140000000  0.5224570000000  0.4775780000000 1.0
C      1  0.5785000000000  0.4920840000000  0.5464410000000 1.0
C      1  0.4572470000000  0.5023710000000  0.5657470000000 1.0
C      1  0.4947610000000  0.4703360000000  0.5090460000000 1.0
C      1  0.4901310000000  0.5247160000000  0.4726460000000 1.0
C      1  0.4345550000000  0.5444540000000  0.5312510000000 1.0
C      1  0.5724440000000  0.4463310000000  0.4918780000000 1.0
C      1  0.5231070000000  0.4600120000000  0.5186670000000 1.0
C      1  0.5338200000000  0.5165760000000  0.4284960000000 1.0
C      1  0.5497430000000  0.5529940000000  0.4970500000000 1.0
C      1  0.4438140000000  0.5551230000000  0.5547200000000 1.0
C      1  0.4729080000000  0.4621470000000  0.4326840000000 1.0
C      1  0.4979520000000  0.5522920000000  0.5231830000000 1.0
C      1  0.5205880000000  0.4500600000000  0.5470860000000 1.0
C      1  0.5535750000000  0.5784130000000  0.5063260000000 1.0
C      1  0.4425890000000  0.5030340000000  0.4348710000000 1.0
C      1  0.4564280000000  0.4312830000000  0.5212140000000 1.0
C      1  0.5613210000000  0.4782030000000  0.5650010000000 1.0
C      1  0.4753830000000  0.4820380000000  0.5742550000000 1.0
C      1  0.5881960000000  0.4810020000000  0.5212920000000 1.0
C      1  0.4477410000000  0.4410630000000  0.5690440000000 1.0
C      1  0.5366200000000  0.5634610000000  0.5447530000000 1.0
C      1  0.4654790000000  0.4889670000000  0.4246320000000 1.0
C      1  0.5472120000000  0.4989940000000  0.5808430000000 1.0
C      1  0.5731610000000  0.5077280000000  0.4523730000000 1.0
C      1  0.4497630000000  0.5313620000000  0.4360990000000 1.0
C      1  0.5273620000000  0.4329280000000  0.5062520000000 1.0
C      1  0.4981980000000  0.5339900000000  0.5494960000000 1.0
C      1  0.4764110000000  0.5349180000000  0.4259250000000 1.0
C      1  0.5852560000000  0.5270210000000  0.5044460000000 1.0
C      1  0.5608060000000  0.5623070000000  0.5296180000000 1.0
C      1  0.4272670000000  0.4699410000000  0.5345650000000 1.0
C      1  0.4896240000000  0.5571950000000  0.4396340000000 1.0
C      1  0.5729840000000  0.5201660000000  0.5505410000000 1.0
C      1  0.4853920000000  0.5085480000000  0.4180100000000 1.0
C      1  0.4498120000000  0.5460250000000  0.5057740000000 1.0
C      1  0.5004900000000  0.4538620000000  0.4339400000000 1.0
C      1  0.5279960000000  0.5420700000000  0.5606790000000 1.0
C      1  0.4321160000000  0.5472820000000  0.4812630000000 1.0
C      1  0.4159370000000  0.4690860000000  0.5082960000000 1.0
C      1  0.4729050000000  0.4528550000000  0.5670800000000 1.0
C      1  0.4419950000000  0.4462700000000  0.5422240000000 1.0
C      1  0.5258430000000  0.5839460000000  0.5017830000000 1.0
C      1  0.4576550000000  0.5527570000000  0.5764090000000 1.0
C      1  0.5229790000000  0.5341960000000  0.5053060000000 1.0
C      1  0.4720900000000  0.5298480000000  0.5661080000000 1.0
C      1  0.5383730000000  0.4362200000000  0.4606250000000 1.0
C      1  0.5189290000000  0.4726510000000  0.4235990000000 1.0
C      1  0.4088290000000  0.5026160000000  0.4713990000000 1.0
C      1  0.4570450000000  0.5124990000000  0.5002670000000 1.0
C      1  0.5490940000000  0.5236060000000  0.5679390000000 1.0
C      1  0.5347260000000  0.4870210000000  0.5063990000000 1.0
C      1  0.4750160000000  0.5607390000000  0.5066520000000 1.0
C      1  0.4201560000000  0.5198900000000  0.5334690000000 1.0
C      1  0.4841430000000  0.4268210000000  0.5257160000000 1.0
C      1  0.5121070000000  0.5002680000000  0.4186740000000 1.0
C      1  0.5840250000000  0.4902540000000  0.4722830000000 1.0
C      1  0.4062350000000  0.5164670000000  0.5102970000000 1.0
C      1  0.4370580000000  0.4972290000000  0.5437970000000 1.0
C      1  0.5778780000000  0.5385460000000  0.5301120000000 1.0
C      1  0.4111680000000  0.5288150000000  0.4840700000000 1.0
C      1  0.5565790000000  0.4549280000000  0.4495570000000 1.0
C      1  0.5162440000000  0.5751520000000  0.5271480000000 1.0
C      1  0.5012430000000  0.4923560000000  0.5731380000000 1.0
C      1  0.4749870000000  0.5035820000000  0.4806350000000 1.0
C      1  0.4945910000000  0.4816360000000  0.4830320000000 1.0
C      1  0.5373120000000  0.4609830000000  0.5673020000000 1.0
C      1  0.4556620000000  0.4497730000000  0.4512200000000 1.0
C      1  0.4283200000000  0.4536870000000  0.4877320000000 1.0
C      1  0.5243530000000  0.4821070000000  0.5842440000000 1.0
C      1  0.5159440000000  0.5610440000000  0.4521490000000 1.0
C      1  0.5896320000000  0.4997510000000  0.4990200000000 1.0
C      1  0.4654890000000  0.4322110000000  0.4718550000000 1.0
C      1  0.5851560000000  0.4544350000000  0.5142790000000 1.0
C      1  0.5047780000000  0.5056140000000  0.5419110000000 1.0
C      1  0.5013610000000  0.4224230000000  0.5026510000000 1.0
C      1  0.5466920000000  0.4722120000000  0.4302230000000 1.0
C      1  0.5638650000000  0.5334650000000  0.4589950000000 1.0
C      1  0.5272030000000  0.5096070000000  0.5219300000000 1.0
C      1  0.4326480000000  0.4631860000000  0.4610810000000 1.0
C      1  0.4925830000000  0.4253850000000  0.4748500000000 1.0
C      1  0.4828100000000  0.5732650000000  0.4822900000000 1.0
C      1  0.5103800000000  0.4355730000000  0.4544040000000 1.0
C      1  0.4942410000000  0.4396240000000  0.5499080000000 1.0
C      1  0.5220900000000  0.4920380000000  0.4810930000000 1.0
C      1  0.5715000000000  0.5410890000000  0.4842880000000 1.0
C      1  0.4244740000000  0.4891850000000  0.4522970000000 1.0
C      1  0.4599500000000  0.4986330000000  0.5233560000000 1.0
C      1  0.5105910000000  0.5764000000000  0.4774670000000 1.0
C      1  0.4487380000000  0.4353780000000  0.4945370000000 1.0
C      1  0.5557100000000  0.4989240000000  0.4321220000000 1.0
C      1  0.5476780000000  0.4314630000000  0.4872960000000 1.0
C      1  0.4028020000000  0.4910210000000  0.4974390000000 1.0
C      1  0.5350170000000  0.5373650000000  0.4500890000000 1.0
END
