TITL C-240339-577-1 8.08204170298172 125000 -54.3426518306982 0 0 9 (C1) n - 1
REM
REM in /rds/project/t2_vol4/rds-t2-cs072/BORA/CARBON/from-Arr/AIRSS/Generating-Clusters/GAP-ML-2020/Only-C1/SD-CG/HFTN-CG
REM
REM
REM
REM
REM
REM ./C.cell (11c1c37f851c82e70ff6c80c92926a4b)
REM AIRSS Version 0.9.1 bugfix July 2018 build 013d7b7c2542+ Fri, 06 Jul 2018 19:26:36 +0100
REM compiler GCC version 9.3.0
REM options -cpp -mtune=generic -march=x86-64 -g -O0
REM seed 495483073 39117058 288777484 -463091094 -1322672087 -1175817232 1760999869 283876912 1338248497 1418325618 -1896083304 1057071527 -671020754 -1048125426 -382290656 1392601971 1616261838 2052553871 190689257 615609963 -1735265107 1512073532 -1392424570 -485553427 -453057835 1076922744 571403122 -1352546316 139216919 -1591099621 1855231057 2132620788 1449801073
REM
CELL 1.54180   50.00000   50.00000   50.00000   90.00000   90.00000   90.00000
LATT -1
SFAC C  
C      1  0.4648670000000  0.5059380000000  0.5124520000000 1.0
C      1  0.5306670000000  0.5112340000000  0.4718020000000 1.0
C      1  0.5156740000000  0.5235330000000  0.4934540000000 1.0
C      1  0.4733200000000  0.4817840000000  0.5105630000000 1.0
C      1  0.4992940000000  0.5446840000000  0.5023160000000 1.0
C      1  0.4866670000000  0.5209570000000  0.5038810000000 1.0
C      1  0.4970870000000  0.4378790000000  0.5045370000000 1.0
C      1  0.5417580000000  0.5111950000000  0.4956840000000 1.0
C      1  0.4906670000000  0.4627970000000  0.5053120000000 1.0
END
