TITL C-240325-583-11 -0.0266436542452126 125000 -158.819400245222 0 0 25 (C1) n - 1
REM
REM in /rds/project/t2_vol4/rds-t2-cs072/BORA/CARBON/from-Arr/AIRSS/Generating-Clusters/GAP-ML-2020/Only-C1/SD-CG/HFTN-CG
REM
REM
REM
REM
REM
REM ./C.cell (11c1c37f851c82e70ff6c80c92926a4b)
REM AIRSS Version 0.9.1 bugfix July 2018 build 013d7b7c2542+ Fri, 06 Jul 2018 19:26:36 +0100
REM compiler GCC version 9.3.0
REM options -cpp -mtune=generic -march=x86-64 -g -O0
REM seed 1726176588 93176704 -832414098 980067519 904524442 542601245 446041454 1249802361 -390152049 339446999 502220441 1601751223 -1745612800 -1136004253 1128998645 -561680960 820183698 -2068981195 -1579529866 548688107 205825758 -850527313 -151436507 -1751087747 1059871965 848374081 1452955694 2129587349 -1026006710 -352286066 -251358336 553316155 -840020180
REM
CELL 1.54180   50.00000   50.00000   50.00000   90.00000   90.00000   90.00000
LATT -1
SFAC C  
C      1  0.5228080000000  0.4760460000000  0.4937790000000 1.0
C      1  0.4683000000000  0.5043100000000  0.5395260000000 1.0
C      1  0.4917460000000  0.4942160000000  0.5512310000000 1.0
C      1  0.5115830000000  0.5477320000000  0.4744790000000 1.0
C      1  0.5380520000000  0.5289430000000  0.5139520000000 1.0
C      1  0.4807290000000  0.5327160000000  0.5156550000000 1.0
C      1  0.5288680000000  0.5311950000000  0.4889150000000 1.0
C      1  0.4970010000000  0.5069250000000  0.5080350000000 1.0
C      1  0.4881700000000  0.5324290000000  0.4696940000000 1.0
C      1  0.4546950000000  0.5045720000000  0.4924570000000 1.0
C      1  0.4979600000000  0.4618290000000  0.4571320000000 1.0
C      1  0.4682270000000  0.5315870000000  0.5400820000000 1.0
C      1  0.4955810000000  0.4859910000000  0.4435910000000 1.0
C      1  0.5255550000000  0.4488490000000  0.4562700000000 1.0
C      1  0.4765310000000  0.4853170000000  0.4974350000000 1.0
C      1  0.5068620000000  0.4738230000000  0.5404230000000 1.0
C      1  0.4685440000000  0.5298590000000  0.4897820000000 1.0
C      1  0.5394220000000  0.4597560000000  0.4756140000000 1.0
C      1  0.5298570000000  0.5089140000000  0.5300280000000 1.0
C      1  0.4931660000000  0.4659100000000  0.4858550000000 1.0
C      1  0.5000180000000  0.5072670000000  0.4599820000000 1.0
C      1  0.4574040000000  0.4904530000000  0.5168030000000 1.0
C      1  0.5267360000000  0.4795340000000  0.5222660000000 1.0
C      1  0.5156850000000  0.5077250000000  0.5536020000000 1.0
C      1  0.5165010000000  0.5041020000000  0.4834130000000 1.0
END
