TITL C-24119-8672-6 -0.00182970369185707 125000 -386.790470070324 0 0 55 (C1) n - 1
REM
REM in /rds/project/t2_vol4/rds-t2-cs072/BORA/CARBON/from-Arr/AIRSS/Generating-Clusters/GAP-ML-2020/Only-C1/SD-CG/HFTN-CG
REM
REM
REM
REM
REM
REM ./C.cell (11c1c37f851c82e70ff6c80c92926a4b)
REM AIRSS Version 0.9.1 bugfix July 2018 build 013d7b7c2542+ Fri, 06 Jul 2018 19:26:36 +0100
REM compiler GCC version 9.3.0
REM options -cpp -mtune=generic -march=x86-64 -g -O0
REM seed -2140787099 -1618765130 1099091453 -1251933434 -210621185 1659354431 2088586533 -1886312382 475593715 1976007067 -340248946 143661248 1899363294 -1730855103 829404563 -170738527 1768636099 1925180662 1949174841 -1083919587 1536398755 1164220824 1745411172 -1149556947 -413011368 360025826 -947397369 -1111700306 -285411768 -913062146 1271432885 1373017356 1491721592
REM
CELL 1.54180   50.00000   50.00000   50.00000   90.00000   90.00000   90.00000
LATT -1
SFAC C  
C      1  0.5485210000000  0.5064860000000  0.5298920000000 1.0
C      1  0.5497630000000  0.4681580000000  0.4997440000000 1.0
C      1  0.5423350000000  0.4796610000000  0.5249910000000 1.0
C      1  0.4520510000000  0.4841880000000  0.5226930000000 1.0
C      1  0.4544490000000  0.4653990000000  0.4858290000000 1.0
C      1  0.5521720000000  0.4846770000000  0.4766530000000 1.0
C      1  0.5213750000000  0.4521080000000  0.4665810000000 1.0
C      1  0.4460630000000  0.5145860000000  0.4769530000000 1.0
C      1  0.4799690000000  0.4378640000000  0.5534250000000 1.0
C      1  0.4937630000000  0.4239820000000  0.5078510000000 1.0
C      1  0.4662420000000  0.4598960000000  0.5132300000000 1.0
C      1  0.4657650000000  0.4954300000000  0.5441590000000 1.0
C      1  0.5078140000000  0.5125150000000  0.5601820000000 1.0
C      1  0.5141890000000  0.4711060000000  0.5317230000000 1.0
C      1  0.5494370000000  0.5310470000000  0.4634070000000 1.0
C      1  0.5220550000000  0.4429080000000  0.5379220000000 1.0
C      1  0.5214170000000  0.4303120000000  0.5125710000000 1.0
C      1  0.4933740000000  0.4427420000000  0.4654790000000 1.0
C      1  0.4924580000000  0.4970000000000  0.4330490000000 1.0
C      1  0.5575790000000  0.5215710000000  0.5075820000000 1.0
C      1  0.5301550000000  0.5230700000000  0.5452400000000 1.0
C      1  0.4554830000000  0.5063900000000  0.4510850000000 1.0
C      1  0.4716880000000  0.5565730000000  0.4658060000000 1.0
C      1  0.4616930000000  0.5215570000000  0.5526240000000 1.0
C      1  0.5326390000000  0.4768570000000  0.4566310000000 1.0
C      1  0.4915420000000  0.4594440000000  0.5689990000000 1.0
C      1  0.5073580000000  0.4357310000000  0.5604740000000 1.0
C      1  0.5443820000000  0.5468970000000  0.5072940000000 1.0
C      1  0.4872120000000  0.5314080000000  0.5655370000000 1.0
C      1  0.4880890000000  0.4214570000000  0.4818360000000 1.0
C      1  0.4935600000000  0.4992320000000  0.4994080000000 1.0
C      1  0.4730090000000  0.4353940000000  0.5262380000000 1.0
C      1  0.5306460000000  0.5251440000000  0.4427400000000 1.0
C      1  0.5030070000000  0.5636070000000  0.5317820000000 1.0
C      1  0.4838420000000  0.5452980000000  0.4418080000000 1.0
C      1  0.4591900000000  0.5467780000000  0.5380160000000 1.0
C      1  0.4705850000000  0.4609510000000  0.4628150000000 1.0
C      1  0.5203630000000  0.4977120000000  0.4400990000000 1.0
C      1  0.4448840000000  0.4912550000000  0.4945000000000 1.0
C      1  0.5341930000000  0.4457320000000  0.4919150000000 1.0
C      1  0.4544910000000  0.5423840000000  0.4841090000000 1.0
C      1  0.4961150000000  0.4723900000000  0.5072950000000 1.0
C      1  0.5276730000000  0.5486790000000  0.5307860000000 1.0
C      1  0.4751610000000  0.5203490000000  0.4350370000000 1.0
C      1  0.5592430000000  0.5113320000000  0.4808850000000 1.0
C      1  0.5405740000000  0.5533940000000  0.4795110000000 1.0
C      1  0.4618100000000  0.5538440000000  0.5101090000000 1.0
C      1  0.4930210000000  0.5702890000000  0.4800390000000 1.0
C      1  0.5096070000000  0.5125970000000  0.4856200000000 1.0
C      1  0.4871430000000  0.5684260000000  0.5076300000000 1.0
C      1  0.4962360000000  0.4849200000000  0.5530640000000 1.0
C      1  0.4844720000000  0.5558310000000  0.5518280000000 1.0
C      1  0.5122490000000  0.5475860000000  0.4438090000000 1.0
C      1  0.4702040000000  0.4816690000000  0.4447910000000 1.0
C      1  0.5176920000000  0.5641850000000  0.4667270000000 1.0
END
