TITL C-24740-1319-5 0.104294751982667 125000 -631.139400500445 0 0 91 (C1) n - 1
REM
REM in /rds/project/t2_vol4/rds-t2-cs072/BORA/CARBON/from-Arr/AIRSS/Generating-Clusters/GAP-ML-2020/Only-C1/SD-CG/HFTN-CG
REM
REM
REM
REM
REM
REM ./C.cell (11c1c37f851c82e70ff6c80c92926a4b)
REM AIRSS Version 0.9.1 bugfix July 2018 build 013d7b7c2542+ Fri, 06 Jul 2018 19:26:36 +0100
REM compiler GCC version 9.3.0
REM options -cpp -mtune=generic -march=x86-64 -g -O0
REM seed 86028572 -1076049187 1665074439 1274493351 1105255378 1979180613 780289767 298330764 -704096319 497465147 -68752101 275359685 935124741 1283450938 1320041085 -1571566752 -221063860 -161312644 1956217776 821823268 -842774836 593599879 -171223067 2060241433 1425238625 -2054230278 116199890 -1861936942 1451453420 -795346476 790664730 275906705 -1001684629
REM
CELL 1.54180   50.00000   50.00000   50.00000   90.00000   90.00000   90.00000
LATT -1
SFAC C  
C      1  0.5562460000000  0.4401610000000  0.5010960000000 1.0
C      1  0.5743910000000  0.5075740000000  0.5264830000000 1.0
C      1  0.5716430000000  0.4843060000000  0.5098510000000 1.0
C      1  0.4974380000000  0.5119790000000  0.5400100000000 1.0
C      1  0.4475570000000  0.5188560000000  0.4360560000000 1.0
C      1  0.4949750000000  0.5419300000000  0.5462450000000 1.0
C      1  0.4673570000000  0.4501710000000  0.4741590000000 1.0
C      1  0.4612260000000  0.4463870000000  0.5524150000000 1.0
C      1  0.5632120000000  0.5487940000000  0.4683610000000 1.0
C      1  0.4443020000000  0.4969290000000  0.5618470000000 1.0
C      1  0.5704840000000  0.5466560000000  0.4959750000000 1.0
C      1  0.5288260000000  0.4579490000000  0.5527260000000 1.0
C      1  0.5204620000000  0.5404800000000  0.5640130000000 1.0
C      1  0.4929640000000  0.5318140000000  0.4364730000000 1.0
C      1  0.4207160000000  0.5270120000000  0.4871690000000 1.0
C      1  0.4866760000000  0.4354820000000  0.5605810000000 1.0
C      1  0.4358580000000  0.4549220000000  0.5102550000000 1.0
C      1  0.4336330000000  0.4790160000000  0.4660500000000 1.0
C      1  0.5184560000000  0.4948090000000  0.4271220000000 1.0
C      1  0.4223720000000  0.5390740000000  0.5135280000000 1.0
C      1  0.4468660000000  0.5263990000000  0.5553640000000 1.0
C      1  0.4999840000000  0.5583280000000  0.5219740000000 1.0
C      1  0.5467920000000  0.4695350000000  0.5047900000000 1.0
C      1  0.5453220000000  0.5014600000000  0.5678430000000 1.0
C      1  0.5301300000000  0.4298850000000  0.5420570000000 1.0
C      1  0.4955010000000  0.4738310000000  0.5102160000000 1.0
C      1  0.5531730000000  0.5267360000000  0.4531730000000 1.0
C      1  0.4288630000000  0.5381700000000  0.4411500000000 1.0
C      1  0.4381850000000  0.5625350000000  0.5100270000000 1.0
C      1  0.5140160000000  0.5759120000000  0.4835320000000 1.0
C      1  0.4899430000000  0.4702310000000  0.4789700000000 1.0
C      1  0.5399000000000  0.4223500000000  0.5160950000000 1.0
C      1  0.4510410000000  0.4980070000000  0.5094690000000 1.0
C      1  0.4982610000000  0.5024890000000  0.5686300000000 1.0
C      1  0.4520830000000  0.4371830000000  0.5259570000000 1.0
C      1  0.5779790000000  0.4875290000000  0.4603730000000 1.0
C      1  0.5829560000000  0.4970150000000  0.4865270000000 1.0
C      1  0.4818780000000  0.5810160000000  0.5185270000000 1.0
C      1  0.4435390000000  0.5650650000000  0.4809850000000 1.0
C      1  0.4483650000000  0.4870260000000  0.4409910000000 1.0
C      1  0.5220190000000  0.5151900000000  0.5769970000000 1.0
C      1  0.5318060000000  0.5083040000000  0.4721470000000 1.0
C      1  0.5526420000000  0.5602840000000  0.5148620000000 1.0
C      1  0.5426630000000  0.5552610000000  0.4512680000000 1.0
C      1  0.4775860000000  0.4263330000000  0.4839830000000 1.0
C      1  0.5166450000000  0.4552700000000  0.4387620000000 1.0
C      1  0.4870780000000  0.4780440000000  0.5755350000000 1.0
C      1  0.5248680000000  0.5073020000000  0.5261090000000 1.0
C      1  0.5622870000000  0.4620110000000  0.4597640000000 1.0
C      1  0.4383960000000  0.5041120000000  0.4833090000000 1.0
C      1  0.5059900000000  0.4272260000000  0.4804090000000 1.0
C      1  0.4903250000000  0.5562300000000  0.4506590000000 1.0
C      1  0.5166700000000  0.4123500000000  0.5022580000000 1.0
C      1  0.4580360000000  0.5684910000000  0.5294850000000 1.0
C      1  0.4255410000000  0.5476500000000  0.4668430000000 1.0
C      1  0.5476930000000  0.4752550000000  0.5642330000000 1.0
C      1  0.5240020000000  0.5562070000000  0.5044170000000 1.0
C      1  0.5452500000000  0.4611460000000  0.4344340000000 1.0
C      1  0.5460370000000  0.4878460000000  0.4262490000000 1.0
C      1  0.4874540000000  0.5851370000000  0.4903070000000 1.0
C      1  0.5676000000000  0.4396060000000  0.4765850000000 1.0
C      1  0.4220180000000  0.4957610000000  0.5423990000000 1.0
C      1  0.4735620000000  0.4864940000000  0.4245950000000 1.0
C      1  0.4587020000000  0.5080790000000  0.4623310000000 1.0
C      1  0.4696260000000  0.4191590000000  0.5105730000000 1.0
C      1  0.4653200000000  0.5476140000000  0.5494440000000 1.0
C      1  0.5168820000000  0.5667280000000  0.4565500000000 1.0
C      1  0.5087980000000  0.5095460000000  0.4511940000000 1.0
C      1  0.4301800000000  0.4803260000000  0.5209500000000 1.0
C      1  0.5137170000000  0.4551540000000  0.4686110000000 1.0
C      1  0.4798010000000  0.5419000000000  0.4988760000000 1.0
C      1  0.5035590000000  0.4557910000000  0.5702300000000 1.0
C      1  0.4987970000000  0.4737240000000  0.4241270000000 1.0
C      1  0.5586930000000  0.5669020000000  0.5411940000000 1.0
C      1  0.4808000000000  0.4986720000000  0.5165570000000 1.0
C      1  0.4913100000000  0.5166530000000  0.4941450000000 1.0
C      1  0.5832260000000  0.5216620000000  0.5028810000000 1.0
C      1  0.4865320000000  0.4998360000000  0.4694720000000 1.0
C      1  0.5653440000000  0.5041710000000  0.4400060000000 1.0
C      1  0.5214580000000  0.5214970000000  0.4983560000000 1.0
C      1  0.4941340000000  0.4090820000000  0.5212010000000 1.0
C      1  0.5034580000000  0.4186210000000  0.5455280000000 1.0
C      1  0.4729970000000  0.5635770000000  0.4758110000000 1.0
C      1  0.4239850000000  0.5244290000000  0.5371490000000 1.0
C      1  0.5232530000000  0.4768390000000  0.5223210000000 1.0
C      1  0.4605600000000  0.4735260000000  0.5655660000000 1.0
C      1  0.4733270000000  0.5169570000000  0.4219500000000 1.0
C      1  0.5458610000000  0.5444200000000  0.5514580000000 1.0
C      1  0.5516080000000  0.5157470000000  0.5426800000000 1.0
C      1  0.5373780000000  0.4760870000000  0.4768380000000 1.0
C      1  0.4409540000000  0.4567880000000  0.4813270000000 1.0
END
