TITL C-24730-5298-7 0.0217697992864196 125000 -712.44779712995 0 0 101 (C1) n - 1
REM
REM in /rds/project/t2_vol4/rds-t2-cs072/BORA/CARBON/from-Arr/AIRSS/Generating-Clusters/GAP-ML-2020/Only-C1/SD-CG/HFTN-CG
REM
REM
REM
REM
REM
REM ./C.cell (11c1c37f851c82e70ff6c80c92926a4b)
REM AIRSS Version 0.9.1 bugfix July 2018 build 013d7b7c2542+ Fri, 06 Jul 2018 19:26:36 +0100
REM compiler GCC version 9.3.0
REM options -cpp -mtune=generic -march=x86-64 -g -O0
REM seed 1169101946 -249399725 -468096067 -255846890 -46904999 -327350560 -1477075169 -1682092253 -1642262113 1889219516 -926400783 1888636320 723626408 1960031141 -892660300 -1392376283 2011461625 -1895244990 1488277919 -1426049771 409850342 2088718587 -2035627523 1239517492 -264000902 -904795728 181733657 -114463787 131461397 2086203401 -1458477018 -821897072 280699095
REM
CELL 1.54180   50.00000   50.00000   50.00000   90.00000   90.00000   90.00000
LATT -1
SFAC C  
C      1  0.4763050000000  0.4775100000000  0.4783790000000 1.0
C      1  0.4782980000000  0.4779070000000  0.4197160000000 1.0
C      1  0.5419700000000  0.5718140000000  0.4700460000000 1.0
C      1  0.5380180000000  0.4448930000000  0.4631740000000 1.0
C      1  0.4860960000000  0.4615400000000  0.5837210000000 1.0
C      1  0.5576750000000  0.4926790000000  0.4605820000000 1.0
C      1  0.4848920000000  0.4227370000000  0.5459690000000 1.0
C      1  0.4659910000000  0.5074100000000  0.4792020000000 1.0
C      1  0.4750490000000  0.4544430000000  0.4352580000000 1.0
C      1  0.5689730000000  0.4917410000000  0.5599460000000 1.0
C      1  0.5254220000000  0.4507490000000  0.4375710000000 1.0
C      1  0.4938250000000  0.4449420000000  0.5602430000000 1.0
C      1  0.5842760000000  0.4909300000000  0.5357520000000 1.0
C      1  0.4128400000000  0.5069870000000  0.4760990000000 1.0
C      1  0.5226500000000  0.5333430000000  0.4165300000000 1.0
C      1  0.4719130000000  0.4278610000000  0.4739170000000 1.0
C      1  0.5222290000000  0.5503210000000  0.5019190000000 1.0
C      1  0.5252840000000  0.4891700000000  0.5781010000000 1.0
C      1  0.5807990000000  0.4678880000000  0.5184420000000 1.0
C      1  0.5389660000000  0.5160020000000  0.4681580000000 1.0
C      1  0.4736280000000  0.4932820000000  0.5227320000000 1.0
C      1  0.4613180000000  0.5452360000000  0.5570350000000 1.0
C      1  0.4712410000000  0.4210010000000  0.5011220000000 1.0
C      1  0.5394070000000  0.4531910000000  0.5482360000000 1.0
C      1  0.5140410000000  0.5393560000000  0.5733980000000 1.0
C      1  0.4512220000000  0.5538820000000  0.5318550000000 1.0
C      1  0.4991420000000  0.4399030000000  0.4389440000000 1.0
C      1  0.4362120000000  0.5346870000000  0.4474420000000 1.0
C      1  0.5641040000000  0.5549640000000  0.4647910000000 1.0
C      1  0.5880850000000  0.5199370000000  0.4963620000000 1.0
C      1  0.4801000000000  0.4910670000000  0.5506170000000 1.0
C      1  0.5243430000000  0.5530870000000  0.5504450000000 1.0
C      1  0.5492470000000  0.4732250000000  0.5669650000000 1.0
C      1  0.5706090000000  0.5400890000000  0.4890920000000 1.0
C      1  0.5473450000000  0.5222860000000  0.4247220000000 1.0
C      1  0.5857120000000  0.5175240000000  0.5256990000000 1.0
C      1  0.5519780000000  0.5587770000000  0.5410830000000 1.0
C      1  0.5115780000000  0.4619100000000  0.5429550000000 1.0
C      1  0.4595480000000  0.4532430000000  0.4620590000000 1.0
C      1  0.5147540000000  0.5104200000000  0.5276550000000 1.0
C      1  0.5080700000000  0.4732320000000  0.5946990000000 1.0
C      1  0.4204660000000  0.5116990000000  0.5261380000000 1.0
C      1  0.4975550000000  0.4248350000000  0.4630700000000 1.0
C      1  0.5082190000000  0.5542370000000  0.4323610000000 1.0
C      1  0.5380250000000  0.5760670000000  0.4988710000000 1.0
C      1  0.5797770000000  0.4724360000000  0.4904790000000 1.0
C      1  0.4596690000000  0.5719540000000  0.4680940000000 1.0
C      1  0.4390220000000  0.4777790000000  0.5621500000000 1.0
C      1  0.5415880000000  0.4318460000000  0.5276600000000 1.0
C      1  0.5550150000000  0.4550770000000  0.5217170000000 1.0
C      1  0.4894500000000  0.5228460000000  0.4836880000000 1.0
C      1  0.5180460000000  0.4285780000000  0.5089490000000 1.0
C      1  0.4604180000000  0.4368900000000  0.5435690000000 1.0
C      1  0.5423940000000  0.5273260000000  0.4946170000000 1.0
C      1  0.4611880000000  0.5014190000000  0.4211230000000 1.0
C      1  0.5103180000000  0.5075460000000  0.4678080000000 1.0
C      1  0.5596340000000  0.5184640000000  0.5657280000000 1.0
C      1  0.4191640000000  0.5335240000000  0.4705550000000 1.0
C      1  0.5340180000000  0.5185100000000  0.5791140000000 1.0
C      1  0.5833790000000  0.4973200000000  0.4789230000000 1.0
C      1  0.5164910000000  0.5645000000000  0.4579140000000 1.0
C      1  0.5694190000000  0.5351660000000  0.5443690000000 1.0
C      1  0.5085800000000  0.4902860000000  0.5508990000000 1.0
C      1  0.5051230000000  0.4860690000000  0.4115460000000 1.0
C      1  0.4806430000000  0.5736020000000  0.4897770000000 1.0
C      1  0.5495390000000  0.4937040000000  0.4306860000000 1.0
C      1  0.4243110000000  0.5488770000000  0.4934450000000 1.0
C      1  0.4611070000000  0.5709570000000  0.5111810000000 1.0
C      1  0.4452890000000  0.5229630000000  0.5667540000000 1.0
C      1  0.4683250000000  0.5118860000000  0.5801020000000 1.0
C      1  0.5354930000000  0.4733940000000  0.5033920000000 1.0
C      1  0.4593600000000  0.4437930000000  0.5145680000000 1.0
C      1  0.4134880000000  0.4959350000000  0.5021780000000 1.0
C      1  0.4324160000000  0.4654090000000  0.4685050000000 1.0
C      1  0.4366710000000  0.4542090000000  0.5463470000000 1.0
C      1  0.4778230000000  0.5235660000000  0.4151950000000 1.0
C      1  0.4301090000000  0.5035950000000  0.5526630000000 1.0
C      1  0.4855220000000  0.5354470000000  0.5726770000000 1.0
C      1  0.4796970000000  0.5481780000000  0.4293620000000 1.0
C      1  0.5124180000000  0.5410780000000  0.5278380000000 1.0
C      1  0.4937280000000  0.4156220000000  0.5188810000000 1.0
C      1  0.5521980000000  0.4667890000000  0.4766920000000 1.0
C      1  0.4892890000000  0.5148660000000  0.5133390000000 1.0
C      1  0.4314330000000  0.4532350000000  0.5176010000000 1.0
C      1  0.5037740000000  0.5142630000000  0.4079030000000 1.0
C      1  0.5360350000000  0.5022460000000  0.5111610000000 1.0
C      1  0.5004300000000  0.5537180000000  0.4822080000000 1.0
C      1  0.4572280000000  0.5546670000000  0.4456460000000 1.0
C      1  0.4290860000000  0.5381490000000  0.5193840000000 1.0
C      1  0.5092920000000  0.4597990000000  0.5130530000000 1.0
C      1  0.4250810000000  0.4902410000000  0.4563250000000 1.0
C      1  0.4418510000000  0.5699060000000  0.4894250000000 1.0
C      1  0.4804800000000  0.4691700000000  0.5068910000000 1.0
C      1  0.4387000000000  0.5074630000000  0.4375380000000 1.0
C      1  0.5211100000000  0.4277570000000  0.4787850000000 1.0
C      1  0.5025420000000  0.4814290000000  0.4665270000000 1.0
C      1  0.4216860000000  0.4686380000000  0.4965570000000 1.0
C      1  0.4656980000000  0.4819110000000  0.5749630000000 1.0
C      1  0.5558150000000  0.5339570000000  0.4486400000000 1.0
C      1  0.5296860000000  0.4748760000000  0.4226660000000 1.0
C      1  0.5525330000000  0.5791700000000  0.5211690000000 1.0
END
