TITL C-24727-1465-6 15.9344271672906 125000 -1051.7152156896 0 0 149 (C1) n - 1
REM
REM in /rds/project/t2_vol4/rds-t2-cs072/BORA/CARBON/from-Arr/AIRSS/Generating-Clusters/GAP-ML-2020/Only-C1/SD-CG/HFTN-CG
REM
REM
REM
REM
REM
REM ./C.cell (11c1c37f851c82e70ff6c80c92926a4b)
REM AIRSS Version 0.9.1 bugfix July 2018 build 013d7b7c2542+ Fri, 06 Jul 2018 19:26:36 +0100
REM compiler GCC version 9.3.0
REM options -cpp -mtune=generic -march=x86-64 -g -O0
REM seed -1910751849 2136776798 1724927860 1892025590 1623482033 2011530784 2126608085 -685326280 1846764959 -394723014 -43432152 -1068700162 889300336 1766771445 -1175572314 -1759071783 -1677626924 -583890 1685513282 -1591378329 1843752547 1731248136 -133263707 -1631566981 -2117448558 612694917 -708888061 1939775920 -1731426467 -629285083 -1330234034 -2106874829 2139756080
REM
CELL 1.54180   50.00000   50.00000   50.00000   90.00000   90.00000   90.00000
LATT -1
SFAC C  
C      1  0.4758860000000  0.5241130000000  0.5762670000000 1.0
C      1  0.5394120000000  0.5317220000000  0.4786180000000 1.0
C      1  0.4574830000000  0.5177430000000  0.4667210000000 1.0
C      1  0.4428030000000  0.4458410000000  0.5034330000000 1.0
C      1  0.5450380000000  0.4616270000000  0.4642830000000 1.0
C      1  0.4428300000000  0.5267160000000  0.5542470000000 1.0
C      1  0.5915390000000  0.4839990000000  0.4588040000000 1.0
C      1  0.5007680000000  0.4749520000000  0.4647440000000 1.0
C      1  0.5101100000000  0.6042220000000  0.5367520000000 1.0
C      1  0.5898560000000  0.5090020000000  0.5392510000000 1.0
C      1  0.5120680000000  0.5710060000000  0.5694600000000 1.0
C      1  0.4550480000000  0.4123900000000  0.4583670000000 1.0
C      1  0.4369390000000  0.5513440000000  0.4254690000000 1.0
C      1  0.4521150000000  0.4790490000000  0.5485940000000 1.0
C      1  0.5558360000000  0.5488870000000  0.5284210000000 1.0
C      1  0.5404800000000  0.4164840000000  0.4532600000000 1.0
C      1  0.4043470000000  0.4696750000000  0.4996110000000 1.0
C      1  0.5301430000000  0.3971500000000  0.4709820000000 1.0
C      1  0.5810350000000  0.4279870000000  0.5074830000000 1.0
C      1  0.4226440000000  0.5828770000000  0.4666000000000 1.0
C      1  0.4644320000000  0.5464560000000  0.4229330000000 1.0
C      1  0.5482630000000  0.4842650000000  0.4449630000000 1.0
C      1  0.5171720000000  0.4502410000000  0.4657780000000 1.0
C      1  0.5301740000000  0.5219180000000  0.5762520000000 1.0
C      1  0.4254480000000  0.4551280000000  0.4549700000000 1.0
C      1  0.4922670000000  0.5091640000000  0.5345130000000 1.0
C      1  0.5392870000000  0.4908780000000  0.5236670000000 1.0
C      1  0.5147630000000  0.4403940000000  0.4961910000000 1.0
C      1  0.5261970000000  0.4886530000000  0.4259940000000 1.0
C      1  0.5401250000000  0.3943370000000  0.4984300000000 1.0
C      1  0.5745250000000  0.5256690000000  0.4455020000000 1.0
C      1  0.5000360000000  0.6123170000000  0.4638920000000 1.0
C      1  0.4912160000000  0.4265570000000  0.4350020000000 1.0
C      1  0.5060640000000  0.5305190000000  0.4154460000000 1.0
C      1  0.5182800000000  0.4902840000000  0.4824270000000 1.0
C      1  0.5749210000000  0.5100720000000  0.4210450000000 1.0
C      1  0.5873260000000  0.5113580000000  0.4669110000000 1.0
C      1  0.4412660000000  0.4560400000000  0.5642420000000 1.0
C      1  0.5605890000000  0.4078960000000  0.5156000000000 1.0
C      1  0.4526160000000  0.6124590000000  0.4844030000000 1.0
C      1  0.5556280000000  0.5164000000000  0.4033980000000 1.0
C      1  0.5479350000000  0.4083700000000  0.5419670000000 1.0
C      1  0.4777700000000  0.5233560000000  0.4124720000000 1.0
C      1  0.5096710000000  0.5537350000000  0.4355180000000 1.0
C      1  0.5250030000000  0.5545170000000  0.4650590000000 1.0
C      1  0.4240310000000  0.5267110000000  0.4310540000000 1.0
C      1  0.5691240000000  0.4937070000000  0.5768020000000 1.0
C      1  0.4564260000000  0.4910790000000  0.4762130000000 1.0
C      1  0.5962480000000  0.5014800000000  0.5127770000000 1.0
C      1  0.4229830000000  0.4443810000000  0.5450550000000 1.0
C      1  0.5268970000000  0.4676800000000  0.5334920000000 1.0
C      1  0.5010570000000  0.3935620000000  0.4708950000000 1.0
C      1  0.5217520000000  0.3971180000000  0.5398040000000 1.0
C      1  0.5350860000000  0.4538060000000  0.5093720000000 1.0
C      1  0.5643160000000  0.5905500000000  0.4915820000000 1.0
C      1  0.5857320000000  0.4587010000000  0.5509920000000 1.0
C      1  0.4081410000000  0.4947780000000  0.5424110000000 1.0
C      1  0.4056890000000  0.5198550000000  0.5108350000000 1.0
C      1  0.4531360000000  0.5331020000000  0.5258770000000 1.0
C      1  0.4204910000000  0.4524530000000  0.4837340000000 1.0
C      1  0.4570010000000  0.4538970000000  0.5863970000000 1.0
C      1  0.4138890000000  0.5271120000000  0.4576460000000 1.0
C      1  0.4012070000000  0.4968650000000  0.4905160000000 1.0
C      1  0.4825690000000  0.4059220000000  0.4523070000000 1.0
C      1  0.4193420000000  0.4822180000000  0.4445080000000 1.0
C      1  0.4358400000000  0.5380490000000  0.4774610000000 1.0
C      1  0.5602300000000  0.4357380000000  0.4623640000000 1.0
C      1  0.4436060000000  0.4729610000000  0.5202300000000 1.0
C      1  0.5253910000000  0.6086600000000  0.5122430000000 1.0
C      1  0.4059830000000  0.5007130000000  0.4632190000000 1.0
C      1  0.4646300000000  0.3950510000000  0.5036260000000 1.0
C      1  0.4830660000000  0.5975280000000  0.5454860000000 1.0
C      1  0.4901360000000  0.5334400000000  0.5526610000000 1.0
C      1  0.5576470000000  0.5188880000000  0.5706330000000 1.0
C      1  0.4352310000000  0.5909170000000  0.4917640000000 1.0
C      1  0.5519020000000  0.5149200000000  0.4585320000000 1.0
C      1  0.5173470000000  0.5161640000000  0.4925400000000 1.0
C      1  0.4360490000000  0.4274320000000  0.5263160000000 1.0
C      1  0.5551360000000  0.4705050000000  0.5846730000000 1.0
C      1  0.4299640000000  0.5424570000000  0.5072400000000 1.0
C      1  0.4699100000000  0.4461260000000  0.4296830000000 1.0
C      1  0.4925430000000  0.3876840000000  0.4975940000000 1.0
C      1  0.5291950000000  0.5125440000000  0.4104780000000 1.0
C      1  0.5218780000000  0.5818980000000  0.4324440000000 1.0
C      1  0.5189330000000  0.4286390000000  0.5739970000000 1.0
C      1  0.5035420000000  0.5695680000000  0.4848250000000 1.0
C      1  0.4725320000000  0.5138430000000  0.5132570000000 1.0
C      1  0.4758890000000  0.5735980000000  0.4678890000000 1.0
C      1  0.4820150000000  0.5296100000000  0.4653870000000 1.0
C      1  0.4997250000000  0.5531390000000  0.5100310000000 1.0
C      1  0.4822610000000  0.5548500000000  0.4458200000000 1.0
C      1  0.4593530000000  0.5777540000000  0.5374810000000 1.0
C      1  0.5987370000000  0.4728370000000  0.5060940000000 1.0
C      1  0.5708250000000  0.5298570000000  0.5473250000000 1.0
C      1  0.4820850000000  0.4203820000000  0.5372310000000 1.0
C      1  0.5414170000000  0.5768460000000  0.4525980000000 1.0
C      1  0.4821200000000  0.4644330000000  0.5898580000000 1.0
C      1  0.5653830000000  0.4482140000000  0.5694110000000 1.0
C      1  0.4577070000000  0.4088350000000  0.5282840000000 1.0
C      1  0.4827510000000  0.4846430000000  0.5492820000000 1.0
C      1  0.4729620000000  0.6040740000000  0.4691190000000 1.0
C      1  0.5252850000000  0.5421890000000  0.5291490000000 1.0
C      1  0.4764560000000  0.4736060000000  0.4219010000000 1.0
C      1  0.5091780000000  0.4522470000000  0.5887680000000 1.0
C      1  0.5166520000000  0.5431340000000  0.5598440000000 1.0
C      1  0.4761330000000  0.5529950000000  0.5312440000000 1.0
C      1  0.4912470000000  0.5294300000000  0.4930390000000 1.0
C      1  0.4569490000000  0.4921980000000  0.5032830000000 1.0
C      1  0.5416060000000  0.4773060000000  0.4933710000000 1.0
C      1  0.5278550000000  0.5872620000000  0.5523170000000 1.0
C      1  0.5176350000000  0.6000500000000  0.4849680000000 1.0
C      1  0.4131000000000  0.4692450000000  0.5278800000000 1.0
C      1  0.5865490000000  0.5196260000000  0.4935430000000 1.0
C      1  0.5524300000000  0.5981410000000  0.5165100000000 1.0
C      1  0.4337320000000  0.5000110000000  0.4252670000000 1.0
C      1  0.5945630000000  0.4642910000000  0.4790130000000 1.0
C      1  0.4325070000000  0.5008950000000  0.5556700000000 1.0
C      1  0.4546020000000  0.5422720000000  0.5752400000000 1.0
C      1  0.4362060000000  0.5745070000000  0.5158880000000 1.0
C      1  0.4876920000000  0.4953950000000  0.5798390000000 1.0
C      1  0.5757280000000  0.4840390000000  0.4340710000000 1.0
C      1  0.4711030000000  0.4471540000000  0.4936850000000 1.0
C      1  0.5094210000000  0.6054970000000  0.4383720000000 1.0
C      1  0.4616540000000  0.4975870000000  0.4157380000000 1.0
C      1  0.5468710000000  0.4267080000000  0.5650410000000 1.0
C      1  0.5750810000000  0.5664090000000  0.4879270000000 1.0
C      1  0.5011470000000  0.4803600000000  0.4350680000000 1.0
C      1  0.5514110000000  0.5789910000000  0.5368950000000 1.0
C      1  0.5207690000000  0.5129550000000  0.5221940000000 1.0
C      1  0.3916830000000  0.5152260000000  0.5344300000000 1.0
C      1  0.4484900000000  0.4015950000000  0.4823830000000 1.0
C      1  0.5166970000000  0.3879000000000  0.5135780000000 1.0
C      1  0.5915400000000  0.4506520000000  0.5236900000000 1.0
C      1  0.4854910000000  0.5820940000000  0.5703080000000 1.0
C      1  0.4599330000000  0.5689520000000  0.5671170000000 1.0
C      1  0.5031970000000  0.4121480000000  0.5552050000000 1.0
C      1  0.4909550000000  0.4429560000000  0.5143060000000 1.0
C      1  0.5446000000000  0.5959110000000  0.4724420000000 1.0
C      1  0.5882540000000  0.4869030000000  0.5571170000000 1.0
C      1  0.4327410000000  0.5737890000000  0.4429660000000 1.0
C      1  0.5655820000000  0.5418660000000  0.4978930000000 1.0
C      1  0.5821470000000  0.4376020000000  0.4799040000000 1.0
C      1  0.5180060000000  0.4320730000000  0.4425780000000 1.0
C      1  0.4985940000000  0.4652220000000  0.5339460000000 1.0
C      1  0.5277970000000  0.4737370000000  0.5905910000000 1.0
C      1  0.4462880000000  0.4371990000000  0.4449510000000 1.0
C      1  0.5157150000000  0.4992980000000  0.5856800000000 1.0
C      1  0.4468530000000  0.5643360000000  0.4698990000000 1.0
C      1  0.4754800000000  0.4704950000000  0.4780030000000 1.0
END
