TITL C-24113-7355-2 -0.0585992350860504 125000 -592.963526626798 0 0 86 (C1) n - 1
REM
REM in /rds/project/t2_vol4/rds-t2-cs072/BORA/CARBON/from-Arr/AIRSS/Generating-Clusters/GAP-ML-2020/Only-C1/SD-CG/HFTN-CG
REM
REM
REM
REM
REM
REM ./C.cell (11c1c37f851c82e70ff6c80c92926a4b)
REM AIRSS Version 0.9.1 bugfix July 2018 build 013d7b7c2542+ Fri, 06 Jul 2018 19:26:36 +0100
REM compiler GCC version 9.3.0
REM options -cpp -mtune=generic -march=x86-64 -g -O0
REM seed 1432686494 -482796271 -1286796978 -1299023758 584231226 -1246702194 -515361841 -77361631 -1331808233 -757357745 -1186690042 329391226 74163704 -1879249105 1562985095 1481623452 1903663747 430658842 -61123787 -2120354122 -191378168 1745114801 -1618966283 -1412944156 -881294 -975758730 2110155639 323589300 2145428491 36043902 -121348986 -1646125754 -1925991976
REM
CELL 1.54180   50.00000   50.00000   50.00000   90.00000   90.00000   90.00000
LATT -1
SFAC C  
C      1  0.4682590000000  0.5128990000000  0.4196790000000 1.0
C      1  0.5836290000000  0.5145430000000  0.4700670000000 1.0
C      1  0.5570760000000  0.5308950000000  0.5424320000000 1.0
C      1  0.5418600000000  0.5513370000000  0.4535950000000 1.0
C      1  0.4946080000000  0.4340220000000  0.5323440000000 1.0
C      1  0.4390360000000  0.4730130000000  0.4865760000000 1.0
C      1  0.4380270000000  0.5218250000000  0.5696480000000 1.0
C      1  0.4918270000000  0.5537800000000  0.5601140000000 1.0
C      1  0.4815950000000  0.4468590000000  0.4670360000000 1.0
C      1  0.4326120000000  0.4906980000000  0.4648010000000 1.0
C      1  0.4645290000000  0.4862280000000  0.4331730000000 1.0
C      1  0.5286200000000  0.5199200000000  0.5485930000000 1.0
C      1  0.5462110000000  0.4905520000000  0.4837900000000 1.0
C      1  0.5613010000000  0.5667700000000  0.5224270000000 1.0
C      1  0.4398420000000  0.5338640000000  0.5209510000000 1.0
C      1  0.4394470000000  0.4764350000000  0.5587600000000 1.0
C      1  0.5060810000000  0.5269430000000  0.4512340000000 1.0
C      1  0.5128050000000  0.5314340000000  0.4231050000000 1.0
C      1  0.5382820000000  0.4729510000000  0.5399160000000 1.0
C      1  0.4934440000000  0.5099000000000  0.5853350000000 1.0
C      1  0.4680800000000  0.4479040000000  0.5293100000000 1.0
C      1  0.5658010000000  0.5574920000000  0.5467920000000 1.0
C      1  0.4413660000000  0.4484000000000  0.4447470000000 1.0
C      1  0.5155260000000  0.4823520000000  0.4824390000000 1.0
C      1  0.4833940000000  0.5363590000000  0.5816850000000 1.0
C      1  0.4856870000000  0.4685160000000  0.4222770000000 1.0
C      1  0.4943150000000  0.5665180000000  0.4750590000000 1.0
C      1  0.5399910000000  0.5318230000000  0.4313530000000 1.0
C      1  0.5175700000000  0.5020780000000  0.5711440000000 1.0
C      1  0.4319740000000  0.4905050000000  0.5353980000000 1.0
C      1  0.5003000000000  0.4933820000000  0.5092100000000 1.0
C      1  0.5615430000000  0.5000840000000  0.4602180000000 1.0
C      1  0.4700730000000  0.4710950000000  0.4792690000000 1.0
C      1  0.4753810000000  0.4746570000000  0.5101860000000 1.0
C      1  0.5170530000000  0.4328280000000  0.4399960000000 1.0
C      1  0.5419370000000  0.5127370000000  0.5039910000000 1.0
C      1  0.4516830000000  0.5591950000000  0.5260850000000 1.0
C      1  0.4752680000000  0.4940130000000  0.4618980000000 1.0
C      1  0.5221280000000  0.4749380000000  0.5648000000000 1.0
C      1  0.5059250000000  0.4868300000000  0.4136010000000 1.0
C      1  0.5691870000000  0.5162560000000  0.5174040000000 1.0
C      1  0.5376320000000  0.4487010000000  0.5208960000000 1.0
C      1  0.4389130000000  0.4752610000000  0.4410880000000 1.0
C      1  0.4859140000000  0.5179740000000  0.5084260000000 1.0
C      1  0.4783990000000  0.4630420000000  0.5771980000000 1.0
C      1  0.5101810000000  0.5426060000000  0.5424820000000 1.0
C      1  0.4728170000000  0.4895530000000  0.5877250000000 1.0
C      1  0.4594710000000  0.4567990000000  0.5570000000000 1.0
C      1  0.4460130000000  0.4957940000000  0.5791320000000 1.0
C      1  0.5526050000000  0.4314310000000  0.4775380000000 1.0
C      1  0.5620550000000  0.5567700000000  0.4723980000000 1.0
C      1  0.4653790000000  0.5625160000000  0.4736290000000 1.0
C      1  0.5572430000000  0.4474830000000  0.4995650000000 1.0
C      1  0.4640610000000  0.5603710000000  0.5519430000000 1.0
C      1  0.5866150000000  0.5421380000000  0.4736650000000 1.0
C      1  0.5274080000000  0.5398460000000  0.4976580000000 1.0
C      1  0.5078270000000  0.4494480000000  0.4829890000000 1.0
C      1  0.4530140000000  0.5405340000000  0.4577990000000 1.0
C      1  0.4632000000000  0.5695820000000  0.5020250000000 1.0
C      1  0.4934410000000  0.4469240000000  0.4386850000000 1.0
C      1  0.5124170000000  0.4401640000000  0.5116170000000 1.0
C      1  0.5051960000000  0.4975800000000  0.4586420000000 1.0
C      1  0.5053290000000  0.4302910000000  0.5573440000000 1.0
C      1  0.4916150000000  0.5688590000000  0.5035300000000 1.0
C      1  0.4556190000000  0.5159850000000  0.5015890000000 1.0
C      1  0.4558370000000  0.5428080000000  0.5741120000000 1.0
C      1  0.5873780000000  0.5237940000000  0.4962950000000 1.0
C      1  0.5033210000000  0.5430420000000  0.5148690000000 1.0
C      1  0.4471680000000  0.4884750000000  0.5107010000000 1.0
C      1  0.4528400000000  0.4343740000000  0.4655590000000 1.0
C      1  0.5047570000000  0.4535280000000  0.5726870000000 1.0
C      1  0.5283900000000  0.4337730000000  0.4651120000000 1.0
C      1  0.4523080000000  0.5138850000000  0.4713640000000 1.0
C      1  0.4382400000000  0.4426640000000  0.4896590000000 1.0
C      1  0.4564750000000  0.5345100000000  0.4311440000000 1.0
C      1  0.5253920000000  0.4874820000000  0.4338830000000 1.0
C      1  0.5669540000000  0.4786690000000  0.5440080000000 1.0
C      1  0.4959570000000  0.5128400000000  0.4104480000000 1.0
C      1  0.5664930000000  0.4738010000000  0.4987070000000 1.0
C      1  0.5492590000000  0.5608910000000  0.4983890000000 1.0
C      1  0.5769370000000  0.4876770000000  0.5211700000000 1.0
C      1  0.5480520000000  0.5044160000000  0.4360990000000 1.0
C      1  0.5259450000000  0.4990790000000  0.5255910000000 1.0
C      1  0.5165610000000  0.5477430000000  0.4690970000000 1.0
C      1  0.4465820000000  0.4357180000000  0.5139010000000 1.0
C      1  0.4295170000000  0.5183510000000  0.5422020000000 1.0
END
