TITL C-240320-591-1 27.1095842740935 125000 -270.745319673338 0 0 41 (C1) n - 1
REM
REM in /rds/project/t2_vol4/rds-t2-cs072/BORA/CARBON/from-Arr/AIRSS/Generating-Clusters/GAP-ML-2020/Only-C1/SD-CG/HFTN-CG
REM
REM
REM
REM
REM
REM ./C.cell (11c1c37f851c82e70ff6c80c92926a4b)
REM AIRSS Version 0.9.1 bugfix July 2018 build 013d7b7c2542+ Fri, 06 Jul 2018 19:26:36 +0100
REM compiler GCC version 9.3.0
REM options -cpp -mtune=generic -march=x86-64 -g -O0
REM seed -540042160 -1944065109 671492902 -477584162 -1572851902 -1424331035 2017145885 124342372 -627561377 -740256620 -1461961434 512166750 -1188955254 76496671 -787083327 -1097208113 -1063511803 1045122145 -1216141457 2056901387 -1372879664 186784764 -2017376538 -1677921992 -553631155 1185201660 439371222 816470780 -1053498889 1457746839 1831861754 1728563112 -1335005340
REM
CELL 1.54180   50.00000   50.00000   50.00000   90.00000   90.00000   90.00000
LATT -1
SFAC C  
C      1  0.4943650000000  0.4869830000000  0.5136160000000 1.0
C      1  0.5463800000000  0.4954490000000  0.4423250000000 1.0
C      1  0.5299930000000  0.4584620000000  0.4625150000000 1.0
C      1  0.4925410000000  0.4715120000000  0.5420800000000 1.0
C      1  0.5208050000000  0.5445380000000  0.4865200000000 1.0
C      1  0.4648160000000  0.4812210000000  0.5461730000000 1.0
C      1  0.4657430000000  0.4861920000000  0.4737640000000 1.0
C      1  0.5221480000000  0.4400950000000  0.4841150000000 1.0
C      1  0.4725060000000  0.4732300000000  0.4974960000000 1.0
C      1  0.5408040000000  0.4963720000000  0.4916410000000 1.0
C      1  0.5142320000000  0.4829850000000  0.5564130000000 1.0
C      1  0.4475900000000  0.5089010000000  0.4749350000000 1.0
C      1  0.5510670000000  0.5348300000000  0.5212390000000 1.0
C      1  0.4931690000000  0.5447570000000  0.4805460000000 1.0
C      1  0.4364710000000  0.5136720000000  0.5002030000000 1.0
C      1  0.4792430000000  0.5384670000000  0.5054490000000 1.0
C      1  0.4995730000000  0.4454070000000  0.5276420000000 1.0
C      1  0.5482300000000  0.4798790000000  0.4655600000000 1.0
C      1  0.5290790000000  0.5512330000000  0.5133510000000 1.0
C      1  0.4942390000000  0.4398790000000  0.4741160000000 1.0
C      1  0.5250970000000  0.5076210000000  0.5529360000000 1.0
C      1  0.5579160000000  0.5091490000000  0.5128770000000 1.0
C      1  0.5086590000000  0.5528550000000  0.5335330000000 1.0
C      1  0.5048640000000  0.5253650000000  0.5421470000000 1.0
C      1  0.5212360000000  0.4794290000000  0.5056660000000 1.0
C      1  0.4579880000000  0.5513930000000  0.5217360000000 1.0
C      1  0.4611320000000  0.5068770000000  0.5381290000000 1.0
C      1  0.4816970000000  0.5618760000000  0.5281510000000 1.0
C      1  0.4863150000000  0.5143140000000  0.5233060000000 1.0
C      1  0.4756250000000  0.4452200000000  0.4947050000000 1.0
C      1  0.5019750000000  0.4606830000000  0.4545520000000 1.0
C      1  0.4791710000000  0.4312130000000  0.5185640000000 1.0
C      1  0.5220040000000  0.4509640000000  0.5097470000000 1.0
C      1  0.4978370000000  0.5099700000000  0.4464100000000 1.0
C      1  0.4864940000000  0.4845160000000  0.4535580000000 1.0
C      1  0.5260620000000  0.5127670000000  0.4494720000000 1.0
C      1  0.4549150000000  0.5287340000000  0.4563850000000 1.0
C      1  0.5506820000000  0.5145180000000  0.5403050000000 1.0
C      1  0.4421680000000  0.5244420000000  0.5250570000000 1.0
C      1  0.5327840000000  0.5219190000000  0.4757490000000 1.0
C      1  0.4823860000000  0.5321130000000  0.4573160000000 1.0
END
