TITL C-24120-7325-4 -187.17160999366 125000 -787.171726599264 0 0 113 (C1) n - 1
REM
REM in /rds/project/t2_vol4/rds-t2-cs072/BORA/CARBON/from-Arr/AIRSS/Generating-Clusters/GAP-ML-2020/Only-C1/SD-CG/HFTN-CG
REM
REM
REM
REM
REM
REM ./C.cell (11c1c37f851c82e70ff6c80c92926a4b)
REM AIRSS Version 0.9.1 bugfix July 2018 build 013d7b7c2542+ Fri, 06 Jul 2018 19:26:36 +0100
REM compiler GCC version 9.3.0
REM options -cpp -mtune=generic -march=x86-64 -g -O0
REM seed 2144365723 373088830 33995042 1699641237 -538400493 -333477270 -452845641 -933826270 917341419 971834250 -1075653763 1315092975 -1055724513 -1607994719 2038092332 1398081477 -1998521637 1488003652 1456032270 256372165 -905750126 229572021 1149398958 -1849327686 1996889608 -1692966843 -1896478237 459502538 -2100817197 -1920495928 1430125336 -1867880375 -1947595623
REM
CELL 1.54180   50.00000   50.00000   50.00000   90.00000   90.00000   90.00000
LATT -1
SFAC C  
C      1  0.4579800000000  0.4884660000000  0.4796960000000 1.0
C      1  0.5641380000000  0.5630520000000  0.4965930000000 1.0
C      1  0.4802310000000  0.4908170000000  0.4198090000000 1.0
C      1  0.4556630000000  0.5571110000000  0.4436180000000 1.0
C      1  0.4716210000000  0.5204830000000  0.4123020000000 1.0
C      1  0.5822420000000  0.5233300000000  0.5111360000000 1.0
C      1  0.5076140000000  0.4750140000000  0.5503270000000 1.0
C      1  0.5397870000000  0.5313030000000  0.4834320000000 1.0
C      1  0.5263160000000  0.5550160000000  0.4685780000000 1.0
C      1  0.5415760000000  0.4300390000000  0.5263680000000 1.0
C      1  0.4950610000000  0.5571250000000  0.4752870000000 1.0
C      1  0.4997970000000  0.5684020000000  0.5585720000000 1.0
C      1  0.4777990000000  0.5929250000000  0.4912630000000 1.0
C      1  0.5645590000000  0.4460770000000  0.5269010000000 1.0
C      1  0.4324000000000  0.4731730000000  0.4332190000000 1.0
C      1  0.4312830000000  0.4479730000000  0.4463180000000 1.0
C      1  0.5272090000000  0.5644730000000  0.5623690000000 1.0
C      1  0.4913520000000  0.4385500000000  0.5722700000000 1.0
C      1  0.4968690000000  0.4210100000000  0.4734570000000 1.0
C      1  0.5098440000000  0.5292490000000  0.5941620000000 1.0
C      1  0.5219700000000  0.4441250000000  0.5101550000000 1.0
C      1  0.5095910000000  0.4884950000000  0.4120940000000 1.0
C      1  0.5793360000000  0.5162840000000  0.4620640000000 1.0
C      1  0.5269300000000  0.5997690000000  0.4909110000000 1.0
C      1  0.4479490000000  0.4999480000000  0.5655010000000 1.0
C      1  0.5555110000000  0.5096550000000  0.4430210000000 1.0
C      1  0.5232850000000  0.4562820000000  0.4514490000000 1.0
C      1  0.5076510000000  0.4998330000000  0.4673710000000 1.0
C      1  0.4249350000000  0.4984410000000  0.5179890000000 1.0
C      1  0.4815120000000  0.4970320000000  0.5153470000000 1.0
C      1  0.5640460000000  0.4401850000000  0.4746320000000 1.0
C      1  0.5847890000000  0.4959550000000  0.5166430000000 1.0
C      1  0.5124900000000  0.5009140000000  0.5958580000000 1.0
C      1  0.5419050000000  0.5765650000000  0.4835100000000 1.0
C      1  0.5211560000000  0.4271640000000  0.4582790000000 1.0
C      1  0.4702250000000  0.4143920000000  0.5322220000000 1.0
C      1  0.4477620000000  0.4242000000000  0.5137040000000 1.0
C      1  0.4846390000000  0.4677260000000  0.5729170000000 1.0
C      1  0.4465290000000  0.4282340000000  0.4856150000000 1.0
C      1  0.4247190000000  0.4439070000000  0.4732490000000 1.0
C      1  0.4817120000000  0.5352440000000  0.5886190000000 1.0
C      1  0.5628950000000  0.5615520000000  0.5253650000000 1.0
C      1  0.5276680000000  0.4719730000000  0.4256610000000 1.0
C      1  0.4777510000000  0.4650790000000  0.4836180000000 1.0
C      1  0.4545980000000  0.5834540000000  0.4796170000000 1.0
C      1  0.5260650000000  0.4719970000000  0.4981860000000 1.0
C      1  0.5360880000000  0.4917880000000  0.5825030000000 1.0
C      1  0.4893450000000  0.5573890000000  0.5313390000000 1.0
C      1  0.4768620000000  0.5328380000000  0.4827760000000 1.0
C      1  0.5225160000000  0.4181960000000  0.5441420000000 1.0
C      1  0.5053110000000  0.4200510000000  0.5001510000000 1.0
C      1  0.5496540000000  0.5170930000000  0.5754340000000 1.0
C      1  0.5603450000000  0.4660590000000  0.5477860000000 1.0
C      1  0.4958280000000  0.5342070000000  0.4093350000000 1.0
C      1  0.5193870000000  0.4354850000000  0.5658900000000 1.0
C      1  0.4607810000000  0.4688280000000  0.4244560000000 1.0
C      1  0.4097070000000  0.4928430000000  0.4730980000000 1.0
C      1  0.5093810000000  0.5314320000000  0.5316480000000 1.0
C      1  0.4206770000000  0.4955140000000  0.4462230000000 1.0
C      1  0.5389340000000  0.5274830000000  0.4263310000000 1.0
C      1  0.5015820000000  0.6057080000000  0.4813180000000 1.0
C      1  0.4627750000000  0.5533650000000  0.5460280000000 1.0
C      1  0.4290860000000  0.5385910000000  0.4859930000000 1.0
C      1  0.4337010000000  0.4480820000000  0.5243120000000 1.0
C      1  0.5535090000000  0.4809260000000  0.4349330000000 1.0
C      1  0.4725600000000  0.4235230000000  0.5584390000000 1.0
C      1  0.4946130000000  0.5713510000000  0.5055040000000 1.0
C      1  0.5017070000000  0.5552980000000  0.4275130000000 1.0
C      1  0.5019850000000  0.5023290000000  0.5366670000000 1.0
C      1  0.5185150000000  0.5160100000000  0.4099080000000 1.0
C      1  0.4513150000000  0.5331720000000  0.5033530000000 1.0
C      1  0.4644800000000  0.5116570000000  0.4623690000000 1.0
C      1  0.5270180000000  0.5505190000000  0.4387490000000 1.0
C      1  0.4867140000000  0.4891890000000  0.5924310000000 1.0
C      1  0.5917800000000  0.4940000000000  0.4702080000000 1.0
C      1  0.5528600000000  0.4633700000000  0.4590470000000 1.0
C      1  0.5500370000000  0.4821400000000  0.4820410000000 1.0
C      1  0.5745080000000  0.5367210000000  0.5344850000000 1.0
C      1  0.4984070000000  0.4103710000000  0.5261170000000 1.0
C      1  0.4390480000000  0.5165310000000  0.4441130000000 1.0
C      1  0.4180930000000  0.4689740000000  0.5129050000000 1.0
C      1  0.4438630000000  0.5377320000000  0.5334530000000 1.0
C      1  0.5705440000000  0.5348800000000  0.4866370000000 1.0
C      1  0.5802290000000  0.4794380000000  0.4936250000000 1.0
C      1  0.4676440000000  0.5097850000000  0.5856300000000 1.0
C      1  0.5380860000000  0.5062810000000  0.4677920000000 1.0
C      1  0.4138910000000  0.5140400000000  0.4920030000000 1.0
C      1  0.5753820000000  0.4505060000000  0.4996490000000 1.0
C      1  0.4707830000000  0.4363430000000  0.4688280000000 1.0
C      1  0.4592820000000  0.4439890000000  0.4412310000000 1.0
C      1  0.4967340000000  0.5137870000000  0.4923300000000 1.0
C      1  0.5064110000000  0.4716150000000  0.4746100000000 1.0
C      1  0.5385320000000  0.5723460000000  0.5362920000000 1.0
C      1  0.4113830000000  0.4666490000000  0.4857580000000 1.0
C      1  0.5218360000000  0.5225900000000  0.5060870000000 1.0
C      1  0.4830650000000  0.5636530000000  0.4469730000000 1.0
C      1  0.4770190000000  0.5565200000000  0.5712520000000 1.0
C      1  0.4333530000000  0.5129400000000  0.5433200000000 1.0
C      1  0.5321180000000  0.5405340000000  0.5801020000000 1.0
C      1  0.4405120000000  0.5625550000000  0.4688690000000 1.0
C      1  0.4555900000000  0.4609190000000  0.5359270000000 1.0
C      1  0.5215070000000  0.5819570000000  0.5135290000000 1.0
C      1  0.4582830000000  0.4738190000000  0.5603210000000 1.0
C      1  0.4793620000000  0.4669530000000  0.5144810000000 1.0
C      1  0.4532160000000  0.5029010000000  0.5061520000000 1.0
C      1  0.5263170000000  0.4951850000000  0.5167120000000 1.0
C      1  0.5015880000000  0.4563760000000  0.5279710000000 1.0
C      1  0.5748700000000  0.4904810000000  0.5428240000000 1.0
C      1  0.4873960000000  0.5050810000000  0.4468580000000 1.0
C      1  0.5694730000000  0.5162100000000  0.5548200000000 1.0
C      1  0.5466610000000  0.4195500000000  0.4686800000000 1.0
C      1  0.4504980000000  0.5346460000000  0.4263030000000 1.0
C      1  0.5345030000000  0.4667070000000  0.5641630000000 1.0
END
