TITL C-240317-540-6 7.02445126143629 125000 -577.629550622626 0 0 83 (C1) n - 1
REM
REM in /rds/project/t2_vol4/rds-t2-cs072/BORA/CARBON/from-Arr/AIRSS/Generating-Clusters/GAP-ML-2020/Only-C1/SD-CG/HFTN-CG
REM
REM
REM
REM
REM
REM ./C.cell (11c1c37f851c82e70ff6c80c92926a4b)
REM AIRSS Version 0.9.1 bugfix July 2018 build 013d7b7c2542+ Fri, 06 Jul 2018 19:26:36 +0100
REM compiler GCC version 9.3.0
REM options -cpp -mtune=generic -march=x86-64 -g -O0
REM seed -16911821 -1753422736 -1001049818 1127428744 645820258 -1959797607 1432728318 1702295515 -101989578 -1165768136 -1263191118 -451230061 1065185513 -954056723 46414908 -793937507 -783630105 -695731005 1419195171 -948030292 518326194 1385456435 1571105946 -661357568 2101613958 -1932293495 -719572120 223307385 1040129155 -1039243790 -468474189 143235351 1982926989
REM
CELL 1.54180   50.00000   50.00000   50.00000   90.00000   90.00000   90.00000
LATT -1
SFAC C  
C      1  0.5334060000000  0.5242750000000  0.5534060000000 1.0
C      1  0.4947250000000  0.5452260000000  0.4456320000000 1.0
C      1  0.5516790000000  0.4446950000000  0.4669750000000 1.0
C      1  0.4869440000000  0.5377700000000  0.4970350000000 1.0
C      1  0.5188020000000  0.5678610000000  0.5236930000000 1.0
C      1  0.4499420000000  0.4572450000000  0.5401430000000 1.0
C      1  0.4204130000000  0.5332670000000  0.4836420000000 1.0
C      1  0.5630920000000  0.5399680000000  0.4726700000000 1.0
C      1  0.5355230000000  0.4694380000000  0.4272490000000 1.0
C      1  0.5314130000000  0.4672700000000  0.5670330000000 1.0
C      1  0.5784190000000  0.5383620000000  0.5684910000000 1.0
C      1  0.4994450000000  0.5246800000000  0.5892100000000 1.0
C      1  0.4713260000000  0.5141650000000  0.5441740000000 1.0
C      1  0.4772590000000  0.5860740000000  0.4997020000000 1.0
C      1  0.5678630000000  0.4777220000000  0.5301260000000 1.0
C      1  0.5351560000000  0.4974450000000  0.5408750000000 1.0
C      1  0.5549200000000  0.4649080000000  0.4469050000000 1.0
C      1  0.5269420000000  0.4292110000000  0.4661840000000 1.0
C      1  0.5482980000000  0.5109310000000  0.4425490000000 1.0
C      1  0.4892610000000  0.4713580000000  0.4256870000000 1.0
C      1  0.4842520000000  0.5188930000000  0.4427340000000 1.0
C      1  0.5169300000000  0.4843150000000  0.5229840000000 1.0
C      1  0.4151260000000  0.5070860000000  0.4943040000000 1.0
C      1  0.4813130000000  0.4350890000000  0.4535980000000 1.0
C      1  0.5345480000000  0.5658880000000  0.4997000000000 1.0
C      1  0.5582380000000  0.5474180000000  0.4980070000000 1.0
C      1  0.4383130000000  0.4499000000000  0.4960990000000 1.0
C      1  0.4517840000000  0.4743210000000  0.5606560000000 1.0
C      1  0.4674020000000  0.4952110000000  0.5670980000000 1.0
C      1  0.4796640000000  0.4873000000000  0.4819370000000 1.0
C      1  0.4936330000000  0.5801820000000  0.5222950000000 1.0
C      1  0.4660240000000  0.5087240000000  0.4665380000000 1.0
C      1  0.5634260000000  0.5329430000000  0.5474780000000 1.0
C      1  0.5057180000000  0.5245910000000  0.5125430000000 1.0
C      1  0.4614140000000  0.5267730000000  0.4936150000000 1.0
C      1  0.4283320000000  0.4956900000000  0.5169000000000 1.0
C      1  0.5186160000000  0.5702170000000  0.4762800000000 1.0
C      1  0.4902510000000  0.5787950000000  0.4761850000000 1.0
C      1  0.4984180000000  0.4987410000000  0.4282050000000 1.0
C      1  0.5122810000000  0.4542130000000  0.4260020000000 1.0
C      1  0.4390950000000  0.4999320000000  0.4539620000000 1.0
C      1  0.5721950000000  0.4854590000000  0.4845320000000 1.0
C      1  0.5641600000000  0.4905680000000  0.4569020000000 1.0
C      1  0.5682220000000  0.5271510000000  0.5173540000000 1.0
C      1  0.4703180000000  0.4380100000000  0.5290870000000 1.0
C      1  0.4732340000000  0.4886960000000  0.5091470000000 1.0
C      1  0.5458620000000  0.5378910000000  0.4515870000000 1.0
C      1  0.5605530000000  0.4533380000000  0.5176330000000 1.0
C      1  0.4324770000000  0.4662090000000  0.5189200000000 1.0
C      1  0.5281390000000  0.4971900000000  0.4272600000000 1.0
C      1  0.4493100000000  0.5553080000000  0.4613890000000 1.0
C      1  0.4419870000000  0.5523510000000  0.4914370000000 1.0
C      1  0.4711930000000  0.5652260000000  0.5341810000000 1.0
C      1  0.4621790000000  0.4336760000000  0.5014590000000 1.0
C      1  0.5036090000000  0.4750040000000  0.4766830000000 1.0
C      1  0.5161010000000  0.4246310000000  0.5152670000000 1.0
C      1  0.4537610000000  0.5097980000000  0.5186700000000 1.0
C      1  0.5216330000000  0.4864690000000  0.4935060000000 1.0
C      1  0.5222520000000  0.4452790000000  0.5508590000000 1.0
C      1  0.5740130000000  0.4992050000000  0.5100250000000 1.0
C      1  0.4677310000000  0.4567920000000  0.4387370000000 1.0
C      1  0.5390910000000  0.4375270000000  0.5282510000000 1.0
C      1  0.5649020000000  0.4570210000000  0.4895950000000 1.0
C      1  0.4979720000000  0.4338010000000  0.5364240000000 1.0
C      1  0.4829420000000  0.5431210000000  0.5502540000000 1.0
C      1  0.5168490000000  0.4866900000000  0.5818250000000 1.0
C      1  0.4811460000000  0.4263730000000  0.4810920000000 1.0
C      1  0.4862520000000  0.5455030000000  0.5791660000000 1.0
C      1  0.5133500000000  0.5417990000000  0.5378610000000 1.0
C      1  0.5084660000000  0.4341280000000  0.4449590000000 1.0
C      1  0.5215670000000  0.5530300000000  0.4538730000000 1.0
C      1  0.4898840000000  0.4963530000000  0.5863750000000 1.0
C      1  0.4315990000000  0.5318670000000  0.4562850000000 1.0
C      1  0.4439490000000  0.4685160000000  0.4470410000000 1.0
C      1  0.5092630000000  0.4223620000000  0.4882030000000 1.0
C      1  0.4755660000000  0.5633010000000  0.4567170000000 1.0
C      1  0.4185870000000  0.4888270000000  0.4727740000000 1.0
C      1  0.4539830000000  0.5702470000000  0.5113870000000 1.0
C      1  0.5539040000000  0.4811130000000  0.5544900000000 1.0
C      1  0.5234100000000  0.5143600000000  0.4918210000000 1.0
C      1  0.5257690000000  0.5154830000000  0.5807220000000 1.0
C      1  0.4296340000000  0.4619480000000  0.4714140000000 1.0
C      1  0.4933800000000  0.5002840000000  0.5263310000000 1.0
END
