TITL C-24757-1290-7 0.00350266411521759 125000 -363.585776978938 0 0 54 (C1) n - 1
REM
REM in /rds/project/t2_vol4/rds-t2-cs072/BORA/CARBON/from-Arr/AIRSS/Generating-Clusters/GAP-ML-2020/Only-C1/SD-CG/HFTN-CG
REM
REM
REM
REM
REM
REM ./C.cell (11c1c37f851c82e70ff6c80c92926a4b)
REM AIRSS Version 0.9.1 bugfix July 2018 build 013d7b7c2542+ Fri, 06 Jul 2018 19:26:36 +0100
REM compiler GCC version 9.3.0
REM options -cpp -mtune=generic -march=x86-64 -g -O0
REM seed 227432177 -822607606 -548410224 -426554960 -1271769826 1209790878 -739179748 -767748291 134472738 -619925501 671513098 -464465025 -1522032203 -245054277 1437259181 1674952110 1739994567 -1937486735 -351040913 -968345272 -1037780411 -1882145167 652765768 -1014503944 1725646504 -239943696 34247555 -554508088 -815839747 -946197730 -1389271020 -146671966 1289010406
REM
CELL 1.54180   50.00000   50.00000   50.00000   90.00000   90.00000   90.00000
LATT -1
SFAC C  
C      1  0.4727930000000  0.4988800000000  0.5202580000000 1.0
C      1  0.5494270000000  0.4654360000000  0.4759750000000 1.0
C      1  0.4934130000000  0.4374640000000  0.5509310000000 1.0
C      1  0.5522890000000  0.4636300000000  0.5238610000000 1.0
C      1  0.5540850000000  0.5101430000000  0.4741800000000 1.0
C      1  0.4614860000000  0.5434420000000  0.5143850000000 1.0
C      1  0.4778530000000  0.5093800000000  0.4772430000000 1.0
C      1  0.5186440000000  0.4471610000000  0.5492710000000 1.0
C      1  0.5260950000000  0.5398840000000  0.4884580000000 1.0
C      1  0.5453400000000  0.4849890000000  0.5418810000000 1.0
C      1  0.5587360000000  0.5035580000000  0.5023840000000 1.0
C      1  0.4867710000000  0.4749210000000  0.5180460000000 1.0
C      1  0.5470070000000  0.4874260000000  0.4587710000000 1.0
C      1  0.5260260000000  0.4739910000000  0.5592670000000 1.0
C      1  0.5462440000000  0.5104960000000  0.5290380000000 1.0
C      1  0.5007380000000  0.4887530000000  0.4743400000000 1.0
C      1  0.4517550000000  0.4925750000000  0.4728010000000 1.0
C      1  0.4510980000000  0.4687650000000  0.4882140000000 1.0
C      1  0.5118240000000  0.5193640000000  0.5077350000000 1.0
C      1  0.4357920000000  0.5137600000000  0.4862580000000 1.0
C      1  0.4981270000000  0.5691500000000  0.5096840000000 1.0
C      1  0.4917940000000  0.4409650000000  0.4908460000000 1.0
C      1  0.4715540000000  0.4568100000000  0.5003880000000 1.0
C      1  0.4919110000000  0.5254600000000  0.4359970000000 1.0
C      1  0.4777870000000  0.4817080000000  0.5634560000000 1.0
C      1  0.5196910000000  0.5216790000000  0.4435450000000 1.0
C      1  0.4776140000000  0.5329320000000  0.4587960000000 1.0
C      1  0.4807320000000  0.4999050000000  0.4285980000000 1.0
C      1  0.4800440000000  0.4601840000000  0.5444760000000 1.0
C      1  0.5206950000000  0.5276290000000  0.5358970000000 1.0
C      1  0.5273290000000  0.4487070000000  0.4748660000000 1.0
C      1  0.4765840000000  0.5476810000000  0.5405800000000 1.0
C      1  0.5608460000000  0.4749890000000  0.5003870000000 1.0
C      1  0.4718010000000  0.5641360000000  0.4976560000000 1.0
C      1  0.5215490000000  0.4929890000000  0.4457060000000 1.0
C      1  0.5161750000000  0.5658000000000  0.4882530000000 1.0
C      1  0.4615880000000  0.5046140000000  0.5552470000000 1.0
C      1  0.4633490000000  0.4841040000000  0.4448930000000 1.0
C      1  0.5016180000000  0.4805110000000  0.4281950000000 1.0
C      1  0.5371010000000  0.5308940000000  0.4646680000000 1.0
C      1  0.5326550000000  0.4431070000000  0.5243270000000 1.0
C      1  0.5020740000000  0.5705310000000  0.4645610000000 1.0
C      1  0.4818670000000  0.5203090000000  0.5038600000000 1.0
C      1  0.5188350000000  0.4381110000000  0.5002300000000 1.0
C      1  0.4990060000000  0.4568210000000  0.4671800000000 1.0
C      1  0.4837090000000  0.4621530000000  0.4432720000000 1.0
C      1  0.5030540000000  0.5545090000000  0.5325110000000 1.0
C      1  0.5047350000000  0.4908400000000  0.5671590000000 1.0
C      1  0.4776620000000  0.5587040000000  0.4694490000000 1.0
C      1  0.4780790000000  0.5276140000000  0.5591440000000 1.0
C      1  0.5059540000000  0.5181750000000  0.5596960000000 1.0
C      1  0.4466620000000  0.5028400000000  0.5306330000000 1.0
C      1  0.5120610000000  0.4881250000000  0.5012910000000 1.0
C      1  0.4383430000000  0.5232980000000  0.5112540000000 1.0
END
