TITL C-24118-7362-5 24.6842305821372 125000 -205.264828915569 0 0 31 (C1) n - 1
REM
REM in /rds/project/t2_vol4/rds-t2-cs072/BORA/CARBON/from-Arr/AIRSS/Generating-Clusters/GAP-ML-2020/Only-C1/SD-CG/HFTN-CG
REM
REM
REM
REM
REM
REM ./C.cell (11c1c37f851c82e70ff6c80c92926a4b)
REM AIRSS Version 0.9.1 bugfix July 2018 build 013d7b7c2542+ Fri, 06 Jul 2018 19:26:36 +0100
REM compiler GCC version 9.3.0
REM options -cpp -mtune=generic -march=x86-64 -g -O0
REM seed -289780968 -114104438 506609571 -779189828 945963454 -1730637180 -216933414 -1618941802 593387373 -1346861418 -1531352757 51430642 -1716289389 672513355 715516333 1565369228 -1417671743 1159535459 1593529648 2142565710 127909331 185371211 -1287673461 275885847 1732652956 1130156340 1182934032 506851004 -1610608133 1333258815 -1642653143 -352060704 -490644519
REM
CELL 1.54180   50.00000   50.00000   50.00000   90.00000   90.00000   90.00000
LATT -1
SFAC C  
C      1  0.5044370000000  0.4913150000000  0.4449340000000 1.0
C      1  0.5656850000000  0.4932630000000  0.4730980000000 1.0
C      1  0.4531820000000  0.5143500000000  0.5076860000000 1.0
C      1  0.5249020000000  0.4785040000000  0.4916680000000 1.0
C      1  0.5030960000000  0.4919260000000  0.4760330000000 1.0
C      1  0.4527430000000  0.4923930000000  0.4881220000000 1.0
C      1  0.4629970000000  0.5094650000000  0.5339720000000 1.0
C      1  0.4884470000000  0.5431480000000  0.5175050000000 1.0
C      1  0.4764780000000  0.5322870000000  0.4698810000000 1.0
C      1  0.4641560000000  0.5113050000000  0.4539860000000 1.0
C      1  0.4807200000000  0.5003720000000  0.4348190000000 1.0
C      1  0.5137580000000  0.4606310000000  0.5099610000000 1.0
C      1  0.4551630000000  0.4868530000000  0.5464740000000 1.0
C      1  0.5310540000000  0.4922740000000  0.4352560000000 1.0
C      1  0.5540290000000  0.5012200000000  0.5241450000000 1.0
C      1  0.4784860000000  0.4805280000000  0.4891980000000 1.0
C      1  0.4850900000000  0.4665100000000  0.5120070000000 1.0
C      1  0.5206470000000  0.4595620000000  0.5562360000000 1.0
C      1  0.4880900000000  0.5237380000000  0.5386290000000 1.0
C      1  0.5034190000000  0.5247320000000  0.4735630000000 1.0
C      1  0.5020920000000  0.4803050000000  0.5543990000000 1.0
C      1  0.4677390000000  0.5356340000000  0.4974490000000 1.0
C      1  0.5107380000000  0.5070150000000  0.5492860000000 1.0
C      1  0.5509630000000  0.4935130000000  0.4514080000000 1.0
C      1  0.5165020000000  0.5457120000000  0.4879050000000 1.0
C      1  0.5386070000000  0.5094050000000  0.5423540000000 1.0
C      1  0.5274190000000  0.4524280000000  0.5322980000000 1.0
C      1  0.5512760000000  0.4903050000000  0.4973700000000 1.0
C      1  0.4423600000000  0.4980570000000  0.4631900000000 1.0
C      1  0.5085050000000  0.5602620000000  0.5083370000000 1.0
C      1  0.4772200000000  0.4729880000000  0.5388310000000 1.0
END
