TITL C-24737-1410-4 0.029025137653257 125000 -623.543852251796 0 0 90 (C1) n - 1
REM
REM in /rds/project/t2_vol4/rds-t2-cs072/BORA/CARBON/from-Arr/AIRSS/Generating-Clusters/GAP-ML-2020/Only-C1/SD-CG/HFTN-CG
REM
REM
REM
REM
REM
REM ./C.cell (11c1c37f851c82e70ff6c80c92926a4b)
REM AIRSS Version 0.9.1 bugfix July 2018 build 013d7b7c2542+ Fri, 06 Jul 2018 19:26:36 +0100
REM compiler GCC version 9.3.0
REM options -cpp -mtune=generic -march=x86-64 -g -O0
REM seed -1635035685 -563353592 1887115590 -1964880072 1972089007 -593301641 94781612 65891633 -1218534265 1915862868 -682560253 -112180415 -46544628 40346661 -34989800 685556964 -1122461481 -1247069583 -171617021 -2031584863 1610082620 1574312220 -151242232 70982684 1802987553 447520001 -1376736292 -932656693 -1409933673 279768680 -1159520241 -249402414 -1609562241
REM
CELL 1.54180   50.00000   50.00000   50.00000   90.00000   90.00000   90.00000
LATT -1
SFAC C  
C      1  0.4298910000000  0.5180730000000  0.5488600000000 1.0
C      1  0.4636220000000  0.5173880000000  0.4210010000000 1.0
C      1  0.4776000000000  0.4919280000000  0.4182240000000 1.0
C      1  0.4747010000000  0.4411520000000  0.5246570000000 1.0
C      1  0.4808580000000  0.5661990000000  0.5017210000000 1.0
C      1  0.4703870000000  0.4877290000000  0.5279040000000 1.0
C      1  0.5570480000000  0.5633630000000  0.5273070000000 1.0
C      1  0.5220680000000  0.4865740000000  0.4711360000000 1.0
C      1  0.4821820000000  0.5164250000000  0.4878800000000 1.0
C      1  0.5504290000000  0.5016490000000  0.5703090000000 1.0
C      1  0.4455430000000  0.5358030000000  0.5354880000000 1.0
C      1  0.4983500000000  0.5732590000000  0.4563420000000 1.0
C      1  0.5269520000000  0.5689490000000  0.4556930000000 1.0
C      1  0.5083160000000  0.5153700000000  0.4714660000000 1.0
C      1  0.5556110000000  0.5662020000000  0.4986670000000 1.0
C      1  0.4816530000000  0.4531790000000  0.4496660000000 1.0
C      1  0.4628490000000  0.5462520000000  0.4904430000000 1.0
C      1  0.4539120000000  0.5522390000000  0.4627390000000 1.0
C      1  0.4193870000000  0.4720950000000  0.5292490000000 1.0
C      1  0.5571700000000  0.5281790000000  0.5585810000000 1.0
C      1  0.5711180000000  0.5445740000000  0.4869930000000 1.0
C      1  0.4837480000000  0.4224190000000  0.4813300000000 1.0
C      1  0.5566410000000  0.4390920000000  0.5045800000000 1.0
C      1  0.4661850000000  0.4409640000000  0.4973050000000 1.0
C      1  0.5528740000000  0.4876680000000  0.4774610000000 1.0
C      1  0.5768870000000  0.4748060000000  0.5090090000000 1.0
C      1  0.4276080000000  0.4911250000000  0.5503350000000 1.0
C      1  0.4163550000000  0.5376820000000  0.4942020000000 1.0
C      1  0.4632500000000  0.4575980000000  0.5642320000000 1.0
C      1  0.4650730000000  0.4740000000000  0.4363990000000 1.0
C      1  0.5102600000000  0.5727890000000  0.5368710000000 1.0
C      1  0.4422100000000  0.5137880000000  0.4380860000000 1.0
C      1  0.5709740000000  0.4523680000000  0.5260130000000 1.0
C      1  0.5637770000000  0.4611480000000  0.4866870000000 1.0
C      1  0.5315410000000  0.4260650000000  0.5089470000000 1.0
C      1  0.4176550000000  0.5194470000000  0.4741660000000 1.0
C      1  0.4534150000000  0.4407550000000  0.5439630000000 1.0
C      1  0.5081590000000  0.4660550000000  0.4889570000000 1.0
C      1  0.5122650000000  0.4356570000000  0.5602150000000 1.0
C      1  0.5348080000000  0.5449480000000  0.5642110000000 1.0
C      1  0.5252710000000  0.4235590000000  0.5366180000000 1.0
C      1  0.5619490000000  0.4780210000000  0.5646970000000 1.0
C      1  0.5124900000000  0.5297060000000  0.5741630000000 1.0
C      1  0.4562190000000  0.4855950000000  0.5578240000000 1.0
C      1  0.4660220000000  0.4922930000000  0.4805400000000 1.0
C      1  0.5466580000000  0.4939840000000  0.4323440000000 1.0
C      1  0.4933140000000  0.4593810000000  0.5632970000000 1.0
C      1  0.5437400000000  0.5497340000000  0.4433700000000 1.0
C      1  0.5618090000000  0.4535010000000  0.5529910000000 1.0
C      1  0.5280770000000  0.5346040000000  0.4262910000000 1.0
C      1  0.5702570000000  0.5390080000000  0.5343650000000 1.0
C      1  0.5131980000000  0.4749390000000  0.5164120000000 1.0
C      1  0.5399250000000  0.4343360000000  0.5574680000000 1.0
C      1  0.5293780000000  0.5320060000000  0.4839430000000 1.0
C      1  0.4763980000000  0.5015410000000  0.5727220000000 1.0
C      1  0.4221320000000  0.4904500000000  0.4731530000000 1.0
C      1  0.4268150000000  0.4739650000000  0.4989190000000 1.0
C      1  0.4374040000000  0.4460610000000  0.5010960000000 1.0
C      1  0.5127950000000  0.4329490000000  0.4871810000000 1.0
C      1  0.5245900000000  0.4348850000000  0.4612680000000 1.0
C      1  0.5321330000000  0.5096300000000  0.4134980000000 1.0
C      1  0.4904040000000  0.4654900000000  0.5323080000000 1.0
C      1  0.4331290000000  0.5343590000000  0.4546370000000 1.0
C      1  0.4991020000000  0.4853840000000  0.5772730000000 1.0
C      1  0.4757600000000  0.4251050000000  0.4557730000000 1.0
C      1  0.5345780000000  0.5666000000000  0.5452440000000 1.0
C      1  0.4300900000000  0.4456880000000  0.5297150000000 1.0
C      1  0.4801970000000  0.4654490000000  0.4795940000000 1.0
C      1  0.4390590000000  0.5432150000000  0.5084370000000 1.0
C      1  0.5008410000000  0.5759940000000  0.4850610000000 1.0
C      1  0.4865110000000  0.5125910000000  0.5194010000000 1.0
C      1  0.5348880000000  0.5186180000000  0.5095820000000 1.0
C      1  0.4519720000000  0.4876140000000  0.5053490000000 1.0
C      1  0.5639510000000  0.5012930000000  0.5040040000000 1.0
C      1  0.4870830000000  0.5622390000000  0.5288050000000 1.0
C      1  0.4752440000000  0.5598130000000  0.4453950000000 1.0
C      1  0.5059270000000  0.4966260000000  0.4235960000000 1.0
C      1  0.4814230000000  0.5372170000000  0.4295000000000 1.0
C      1  0.4751830000000  0.5374760000000  0.5400680000000 1.0
C      1  0.5221620000000  0.5033200000000  0.5792350000000 1.0
C      1  0.4464610000000  0.4896590000000  0.4546910000000 1.0
C      1  0.5043750000000  0.5224670000000  0.4404820000000 1.0
C      1  0.5289660000000  0.5647180000000  0.4850250000000 1.0
C      1  0.5223600000000  0.4778590000000  0.4410180000000 1.0
C      1  0.5119050000000  0.4508660000000  0.4429840000000 1.0
C      1  0.5563270000000  0.5323370000000  0.4638970000000 1.0
C      1  0.5144320000000  0.5034220000000  0.5199300000000 1.0
C      1  0.5781640000000  0.5268180000000  0.5083760000000 1.0
C      1  0.4848630000000  0.5280080000000  0.5665570000000 1.0
C      1  0.5607360000000  0.5046540000000  0.4546110000000 1.0
END
