TITL C-240337-613-9 -35.8427911690125 125000 -580.945947039424 0 0 85 (C1) n - 1
REM
REM in /rds/project/t2_vol4/rds-t2-cs072/BORA/CARBON/from-Arr/AIRSS/Generating-Clusters/GAP-ML-2020/Only-C1/SD-CG/HFTN-CG
REM
REM
REM
REM
REM
REM ./C.cell (11c1c37f851c82e70ff6c80c92926a4b)
REM AIRSS Version 0.9.1 bugfix July 2018 build 013d7b7c2542+ Fri, 06 Jul 2018 19:26:36 +0100
REM compiler GCC version 9.3.0
REM options -cpp -mtune=generic -march=x86-64 -g -O0
REM seed 107862050 919911185 -2005132151 1263286556 1409479904 1921069552 546172532 167933986 -528173651 883940746 -2126518488 29763203 348499021 390236442 -824247992 1756780731 -289168953 -451145527 -1709864168 -1655476961 -204007777 1348137496 -847381873 -2090290095 1298693001 -271415978 555646799 707722092 -126955735 1685816357 -616653962 -741313237 -1240644000
REM
CELL 1.54180   50.00000   50.00000   50.00000   90.00000   90.00000   90.00000
LATT -1
SFAC C  
C      1  0.5883890000000  0.5513250000000  0.4956220000000 1.0
C      1  0.4855010000000  0.5717660000000  0.4888050000000 1.0
C      1  0.4935250000000  0.5048740000000  0.4946580000000 1.0
C      1  0.5853130000000  0.5006720000000  0.4817570000000 1.0
C      1  0.4644150000000  0.5377980000000  0.4327810000000 1.0
C      1  0.5100190000000  0.5081120000000  0.4705850000000 1.0
C      1  0.4216730000000  0.5219050000000  0.5170180000000 1.0
C      1  0.5543170000000  0.4864380000000  0.4460620000000 1.0
C      1  0.5531540000000  0.5296990000000  0.4582930000000 1.0
C      1  0.4928380000000  0.4482530000000  0.5627390000000 1.0
C      1  0.5082450000000  0.4875140000000  0.4433170000000 1.0
C      1  0.5317920000000  0.4942460000000  0.5240090000000 1.0
C      1  0.4976010000000  0.4391930000000  0.4528890000000 1.0
C      1  0.5329900000000  0.4995200000000  0.4323230000000 1.0
C      1  0.4931660000000  0.4683810000000  0.5219550000000 1.0
C      1  0.5464460000000  0.5460070000000  0.5185960000000 1.0
C      1  0.5858710000000  0.5246100000000  0.4995010000000 1.0
C      1  0.4918970000000  0.4870650000000  0.5863890000000 1.0
C      1  0.4591940000000  0.5168020000000  0.5624410000000 1.0
C      1  0.4910000000000  0.5415240000000  0.4213980000000 1.0
C      1  0.4730740000000  0.4208490000000  0.4929130000000 1.0
C      1  0.5242960000000  0.5358960000000  0.5028270000000 1.0
C      1  0.4972800000000  0.5332800000000  0.4635540000000 1.0
C      1  0.5135170000000  0.4281290000000  0.5005470000000 1.0
C      1  0.4594490000000  0.5488510000000  0.5091990000000 1.0
C      1  0.5713260000000  0.5053080000000  0.4579030000000 1.0
C      1  0.4177410000000  0.5252990000000  0.4902180000000 1.0
C      1  0.4857860000000  0.4770030000000  0.4945210000000 1.0
C      1  0.5577720000000  0.4890550000000  0.5618400000000 1.0
C      1  0.5854610000000  0.4778800000000  0.5239240000000 1.0
C      1  0.4485170000000  0.4540900000000  0.5295110000000 1.0
C      1  0.4353070000000  0.4482280000000  0.5051220000000 1.0
C      1  0.4665000000000  0.5179160000000  0.5048690000000 1.0
C      1  0.5522240000000  0.5577930000000  0.4677580000000 1.0
C      1  0.4543150000000  0.5426740000000  0.5536630000000 1.0
C      1  0.4620070000000  0.4701650000000  0.4340050000000 1.0
C      1  0.4819450000000  0.5525890000000  0.5567070000000 1.0
C      1  0.4386700000000  0.5426390000000  0.5286030000000 1.0
C      1  0.5228350000000  0.4648410000000  0.5256910000000 1.0
C      1  0.4883430000000  0.4257830000000  0.5167480000000 1.0
C      1  0.4715450000000  0.4444910000000  0.4429880000000 1.0
C      1  0.5509980000000  0.5006410000000  0.5031980000000 1.0
C      1  0.4995150000000  0.5643930000000  0.5372850000000 1.0
C      1  0.4186750000000  0.4796070000000  0.4678300000000 1.0
C      1  0.5537560000000  0.4580210000000  0.4867800000000 1.0
C      1  0.4976210000000  0.4236770000000  0.4767570000000 1.0
C      1  0.5767560000000  0.4962270000000  0.5413450000000 1.0
C      1  0.5455100000000  0.4650950000000  0.5682430000000 1.0
C      1  0.4809250000000  0.5130640000000  0.5811210000000 1.0
C      1  0.4635350000000  0.5024000000000  0.5349780000000 1.0
C      1  0.4780210000000  0.4460250000000  0.5357970000000 1.0
C      1  0.4813480000000  0.5690570000000  0.5165210000000 1.0
C      1  0.4850210000000  0.4598190000000  0.5868660000000 1.0
C      1  0.4980140000000  0.5342070000000  0.5721300000000 1.0
C      1  0.4783200000000  0.5165990000000  0.4205250000000 1.0
C      1  0.4429630000000  0.4816930000000  0.5330560000000 1.0
C      1  0.4469610000000  0.4397860000000  0.4580940000000 1.0
C      1  0.5272130000000  0.5532690000000  0.5400830000000 1.0
C      1  0.5200890000000  0.4598870000000  0.5559130000000 1.0
C      1  0.5726840000000  0.4789800000000  0.4976660000000 1.0
C      1  0.5084630000000  0.5548980000000  0.4818210000000 1.0
C      1  0.5260230000000  0.5639110000000  0.4603240000000 1.0
C      1  0.4360050000000  0.4654740000000  0.4497560000000 1.0
C      1  0.5660250000000  0.5196980000000  0.5203420000000 1.0
C      1  0.5346710000000  0.4461750000000  0.5052500000000 1.0
C      1  0.5086700000000  0.5114110000000  0.5179570000000 1.0
C      1  0.4631500000000  0.4806170000000  0.4803810000000 1.0
C      1  0.5329910000000  0.5045950000000  0.5552300000000 1.0
C      1  0.5361740000000  0.5270610000000  0.4348620000000 1.0
C      1  0.5364140000000  0.5169610000000  0.4822180000000 1.0
C      1  0.4227290000000  0.4919310000000  0.5170050000000 1.0
C      1  0.5442410000000  0.4634400000000  0.4600590000000 1.0
C      1  0.4614440000000  0.5573030000000  0.4812610000000 1.0
C      1  0.4529410000000  0.5109190000000  0.4777980000000 1.0
C      1  0.4202060000000  0.4717400000000  0.4960690000000 1.0
C      1  0.4480060000000  0.4315700000000  0.4850730000000 1.0
C      1  0.5172430000000  0.4601660000000  0.4499400000000 1.0
C      1  0.4821520000000  0.4900630000000  0.4291430000000 1.0
C      1  0.5142450000000  0.5452340000000  0.4386440000000 1.0
C      1  0.4236540000000  0.5076210000000  0.4711110000000 1.0
C      1  0.5239900000000  0.5326410000000  0.5599720000000 1.0
C      1  0.4656110000000  0.5355290000000  0.4624610000000 1.0
C      1  0.4911110000000  0.4937120000000  0.5375460000000 1.0
C      1  0.5087110000000  0.4877880000000  0.5618650000000 1.0
C      1  0.5619430000000  0.5586330000000  0.4954760000000 1.0
END
