TITL C-24741-1350-7 -86.3998257155402 125000 -419.588287597214 0 0 62 (C1) n - 1
REM
REM in /rds/project/t2_vol4/rds-t2-cs072/BORA/CARBON/from-Arr/AIRSS/Generating-Clusters/GAP-ML-2020/Only-C1/SD-CG/HFTN-CG
REM
REM
REM
REM
REM
REM ./C.cell (11c1c37f851c82e70ff6c80c92926a4b)
REM AIRSS Version 0.9.1 bugfix July 2018 build 013d7b7c2542+ Fri, 06 Jul 2018 19:26:36 +0100
REM compiler GCC version 9.3.0
REM options -cpp -mtune=generic -march=x86-64 -g -O0
REM seed 1481964370 -2007899301 1018510113 -1122717083 1209992116 -1638800191 261782787 2024402775 1726193695 1629119387 1357739259 -1672870084 300320656 2079207221 -664316219 -529127420 1865806116 115940057 891995181 -1984644735 -1153300286 677936242 1544133263 -1887567581 334678877 282619257 239089044 726158736 1408575739 1443337196 -116205435 -1982257387 402476142
REM
CELL 1.54180   50.00000   50.00000   50.00000   90.00000   90.00000   90.00000
LATT -1
SFAC C  
C      1  0.5343520000000  0.4699780000000  0.5639250000000 1.0
C      1  0.5570700000000  0.4558000000000  0.5195480000000 1.0
C      1  0.5695150000000  0.5040890000000  0.5055780000000 1.0
C      1  0.4225920000000  0.4698790000000  0.4748670000000 1.0
C      1  0.5487900000000  0.4958980000000  0.4659600000000 1.0
C      1  0.5359860000000  0.4973290000000  0.4403490000000 1.0
C      1  0.5437410000000  0.5519740000000  0.4969570000000 1.0
C      1  0.4281530000000  0.5109270000000  0.5139700000000 1.0
C      1  0.5262560000000  0.5434550000000  0.5546790000000 1.0
C      1  0.4971790000000  0.5244780000000  0.5148070000000 1.0
C      1  0.5215330000000  0.4322460000000  0.5034280000000 1.0
C      1  0.5405520000000  0.5688920000000  0.5204580000000 1.0
C      1  0.4451340000000  0.4664860000000  0.4566880000000 1.0
C      1  0.5302870000000  0.5033400000000  0.4884260000000 1.0
C      1  0.4435400000000  0.4420190000000  0.5112150000000 1.0
C      1  0.4897180000000  0.5476130000000  0.4556650000000 1.0
C      1  0.4701630000000  0.5276280000000  0.4559670000000 1.0
C      1  0.4245250000000  0.4628590000000  0.5023460000000 1.0
C      1  0.4705410000000  0.4314050000000  0.5127770000000 1.0
C      1  0.4775150000000  0.4921530000000  0.4913150000000 1.0
C      1  0.4928070000000  0.4465800000000  0.4721480000000 1.0
C      1  0.5282170000000  0.5236510000000  0.4356870000000 1.0
C      1  0.5451800000000  0.4930340000000  0.5527890000000 1.0
C      1  0.4220730000000  0.4977750000000  0.4647960000000 1.0
C      1  0.5189660000000  0.4574740000000  0.5451360000000 1.0
C      1  0.5292950000000  0.4822140000000  0.5080200000000 1.0
C      1  0.5843130000000  0.4635120000000  0.4797450000000 1.0
C      1  0.4955490000000  0.5633560000000  0.4793410000000 1.0
C      1  0.4596970000000  0.5206380000000  0.4831190000000 1.0
C      1  0.5371560000000  0.4416220000000  0.4805540000000 1.0
C      1  0.4315510000000  0.5148550000000  0.4849440000000 1.0
C      1  0.5456130000000  0.5610850000000  0.5469550000000 1.0
C      1  0.5027390000000  0.5089060000000  0.4915620000000 1.0
C      1  0.5559110000000  0.4849800000000  0.5257130000000 1.0
C      1  0.5189520000000  0.5862100000000  0.5204290000000 1.0
C      1  0.4416500000000  0.4918240000000  0.4435420000000 1.0
C      1  0.5188750000000  0.5431680000000  0.4513150000000 1.0
C      1  0.4629800000000  0.4540040000000  0.5271300000000 1.0
C      1  0.4737650000000  0.5010950000000  0.5436990000000 1.0
C      1  0.4758520000000  0.4805290000000  0.5204910000000 1.0
C      1  0.5025000000000  0.5057220000000  0.5388930000000 1.0
C      1  0.4684400000000  0.5364280000000  0.5073890000000 1.0
C      1  0.5342960000000  0.4403750000000  0.5275640000000 1.0
C      1  0.5149560000000  0.4760660000000  0.4430380000000 1.0
C      1  0.4975240000000  0.5548340000000  0.5499970000000 1.0
C      1  0.5723400000000  0.4878760000000  0.4814070000000 1.0
C      1  0.4738700000000  0.4693470000000  0.4675700000000 1.0
C      1  0.4871860000000  0.4827720000000  0.4442360000000 1.0
C      1  0.4751790000000  0.5450430000000  0.5608380000000 1.0
C      1  0.4481150000000  0.5271230000000  0.5266430000000 1.0
C      1  0.4960550000000  0.5729920000000  0.5255350000000 1.0
C      1  0.4587740000000  0.5239450000000  0.5527700000000 1.0
C      1  0.5627390000000  0.4510920000000  0.4913560000000 1.0
C      1  0.4806460000000  0.5634100000000  0.5034310000000 1.0
C      1  0.4223510000000  0.4851190000000  0.5201110000000 1.0
C      1  0.5505920000000  0.5242700000000  0.4980550000000 1.0
C      1  0.5241780000000  0.5578530000000  0.4766160000000 1.0
C      1  0.5180520000000  0.4529150000000  0.4614700000000 1.0
C      1  0.4673030000000  0.5041000000000  0.4396870000000 1.0
C      1  0.5066340000000  0.4780870000000  0.5269490000000 1.0
C      1  0.4939950000000  0.4308960000000  0.4962590000000 1.0
C      1  0.5259940000000  0.5147730000000  0.5541450000000 1.0
END
