TITL C-24741-1350-3 1347.6504221095 125000 -679.964375671809 0 0 99 (C1) n - 1
REM
REM in /rds/project/t2_vol4/rds-t2-cs072/BORA/CARBON/from-Arr/AIRSS/Generating-Clusters/GAP-ML-2020/Only-C1/SD-CG/HFTN-CG
REM
REM
REM
REM
REM
REM ./C.cell (11c1c37f851c82e70ff6c80c92926a4b)
REM AIRSS Version 0.9.1 bugfix July 2018 build 013d7b7c2542+ Fri, 06 Jul 2018 19:26:36 +0100
REM compiler GCC version 9.3.0
REM options -cpp -mtune=generic -march=x86-64 -g -O0
REM seed 524277579 -1850237280 -1173026370 456646627 139793684 1483316283 -1302660759 1689050857 -570805845 -536115225 1706931006 -807101987 -1764039559 959167899 36741557 -1453067138 -86003709 -46135593 855411826 -1145010607 491904629 1670750956 1105525294 46085464 -1173891487 2127944344 -1126115553 754225698 -969626089 1710731494 939522359 146657710 808768032
REM
CELL 1.54180   50.00000   50.00000   50.00000   90.00000   90.00000   90.00000
LATT -1
SFAC C  
C      1  0.4250840000000  0.4980500000000  0.4513220000000 1.0
C      1  0.4690880000000  0.4448300000000  0.4436500000000 1.0
C      1  0.4669370000000  0.5265450000000  0.4841070000000 1.0
C      1  0.5775170000000  0.5054820000000  0.4942580000000 1.0
C      1  0.5267370000000  0.4440280000000  0.5610330000000 1.0
C      1  0.4358970000000  0.5443660000000  0.4552240000000 1.0
C      1  0.5070070000000  0.5657570000000  0.5295540000000 1.0
C      1  0.5896150000000  0.4944000000000  0.4700800000000 1.0
C      1  0.4733040000000  0.4635540000000  0.5735180000000 1.0
C      1  0.4965720000000  0.5813770000000  0.4831980000000 1.0
C      1  0.5122710000000  0.5227500000000  0.4823470000000 1.0
C      1  0.4467350000000  0.4480260000000  0.4911760000000 1.0
C      1  0.5447480000000  0.4794370000000  0.5308540000000 1.0
C      1  0.5699040000000  0.4539000000000  0.5047690000000 1.0
C      1  0.5894550000000  0.5094580000000  0.5207170000000 1.0
C      1  0.4168670000000  0.5599550000000  0.5293690000000 1.0
C      1  0.5375760000000  0.5135590000000  0.4731160000000 1.0
C      1  0.4436780000000  0.4927000000000  0.5393040000000 1.0
C      1  0.4975260000000  0.5076530000000  0.5791770000000 1.0
C      1  0.4218640000000  0.4868190000000  0.5171490000000 1.0
C      1  0.5354620000000  0.4676330000000  0.4533520000000 1.0
C      1  0.5176630000000  0.4919240000000  0.4386410000000 1.0
C      1  0.4990310000000  0.4160800000000  0.5333100000000 1.0
C      1  0.5433620000000  0.4772560000000  0.5919610000000 1.0
C      1  0.5599600000000  0.4681910000000  0.4366590000000 1.0
C      1  0.4621950000000  0.4961400000000  0.4900100000000 1.0
C      1  0.4815140000000  0.5787880000000  0.5367290000000 1.0
C      1  0.5220730000000  0.4797580000000  0.4113220000000 1.0
C      1  0.5443380000000  0.4999290000000  0.5764590000000 1.0
C      1  0.4183640000000  0.5322660000000  0.5332330000000 1.0
C      1  0.5094460000000  0.5183500000000  0.5107740000000 1.0
C      1  0.4481650000000  0.4699970000000  0.5583040000000 1.0
C      1  0.4732420000000  0.4229070000000  0.5245930000000 1.0
C      1  0.4685950000000  0.4982570000000  0.5190550000000 1.0
C      1  0.5930560000000  0.4598580000000  0.5195650000000 1.0
C      1  0.4578990000000  0.4280650000000  0.5487290000000 1.0
C      1  0.5562830000000  0.5509410000000  0.5034730000000 1.0
C      1  0.4462340000000  0.5044750000000  0.4313870000000 1.0
C      1  0.5158600000000  0.4740020000000  0.5222400000000 1.0
C      1  0.5443100000000  0.4106830000000  0.5062670000000 1.0
C      1  0.5510400000000  0.4804600000000  0.4124990000000 1.0
C      1  0.5548380000000  0.5459200000000  0.5318980000000 1.0
C      1  0.5597260000000  0.5273570000000  0.4871020000000 1.0
C      1  0.5583650000000  0.4799000000000  0.5012840000000 1.0
C      1  0.5199080000000  0.5663080000000  0.4377430000000 1.0
C      1  0.5366670000000  0.4782210000000  0.4813200000000 1.0
C      1  0.5052820000000  0.4575510000000  0.4169450000000 1.0
C      1  0.5166390000000  0.5422010000000  0.5666260000000 1.0
C      1  0.5285530000000  0.5410840000000  0.4304020000000 1.0
C      1  0.4601420000000  0.5389650000000  0.5603270000000 1.0
C      1  0.4884060000000  0.5303940000000  0.5604760000000 1.0
C      1  0.4704870000000  0.4367310000000  0.5003100000000 1.0
C      1  0.5357560000000  0.3870610000000  0.5044160000000 1.0
C      1  0.4943620000000  0.5370870000000  0.5268530000000 1.0
C      1  0.4802910000000  0.5386950000000  0.4376310000000 1.0
C      1  0.5153800000000  0.5831000000000  0.4599050000000 1.0
C      1  0.5436600000000  0.4388980000000  0.5114280000000 1.0
C      1  0.5235600000000  0.5187770000000  0.5817000000000 1.0
C      1  0.4257590000000  0.4681730000000  0.4951130000000 1.0
C      1  0.5611330000000  0.5036010000000  0.4276560000000 1.0
C      1  0.4954460000000  0.4794090000000  0.5807080000000 1.0
C      1  0.5685900000000  0.5210310000000  0.5376610000000 1.0
C      1  0.4528020000000  0.5532830000000  0.4766960000000 1.0
C      1  0.5148050000000  0.5772300000000  0.5043150000000 1.0
C      1  0.4891130000000  0.5219260000000  0.4638240000000 1.0
C      1  0.4403180000000  0.5730390000000  0.5306640000000 1.0
C      1  0.5421300000000  0.5858280000000  0.4687860000000 1.0
C      1  0.4390450000000  0.5211610000000  0.5497020000000 1.0
C      1  0.4767740000000  0.4616990000000  0.4210520000000 1.0
C      1  0.5199460000000  0.4581090000000  0.4983520000000 1.0
C      1  0.4679650000000  0.5761240000000  0.4874180000000 1.0
C      1  0.4040710000000  0.5209410000000  0.4870720000000 1.0
C      1  0.4693860000000  0.4888580000000  0.4273890000000 1.0
C      1  0.4928510000000  0.4503290000000  0.4851940000000 1.0
C      1  0.5158210000000  0.4467210000000  0.4420530000000 1.0
C      1  0.5017500000000  0.5496350000000  0.4239180000000 1.0
C      1  0.5549530000000  0.4996340000000  0.5499260000000 1.0
C      1  0.5415130000000  0.5732220000000  0.4934550000000 1.0
C      1  0.4693160000000  0.5295780000000  0.5142750000000 1.0
C      1  0.4162980000000  0.5230590000000  0.4633970000000 1.0
C      1  0.4597630000000  0.5653270000000  0.5505240000000 1.0
C      1  0.4271610000000  0.4740230000000  0.4659150000000 1.0
C      1  0.5778790000000  0.4896990000000  0.4474590000000 1.0
C      1  0.5372720000000  0.5155230000000  0.4419950000000 1.0
C      1  0.5307670000000  0.5556260000000  0.5462590000000 1.0
C      1  0.4782400000000  0.4361670000000  0.5681640000000 1.0
C      1  0.5986340000000  0.4838980000000  0.5264020000000 1.0
C      1  0.4100110000000  0.5125100000000  0.5124790000000 1.0
C      1  0.4524510000000  0.5327400000000  0.4344680000000 1.0
C      1  0.4628760000000  0.5836490000000  0.5145240000000 1.0
C      1  0.4769820000000  0.4766070000000  0.4735790000000 1.0
C      1  0.4367850000000  0.4453180000000  0.5500210000000 1.0
C      1  0.4979950000000  0.4945970000000  0.5213750000000 1.0
C      1  0.4896560000000  0.4940640000000  0.4509240000000 1.0
C      1  0.5218340000000  0.4654450000000  0.5803260000000 1.0
C      1  0.5039970000000  0.4282100000000  0.5579940000000 1.0
C      1  0.4942570000000  0.4387310000000  0.4574640000000 1.0
C      1  0.5433480000000  0.4508760000000  0.5392080000000 1.0
C      1  0.4518170000000  0.4575400000000  0.4634390000000 1.0
END
