TITL C-240317-540-5 -139.080587892864 125000 -489.575676106799 0 0 70 (C1) n - 1
REM
REM in /rds/project/t2_vol4/rds-t2-cs072/BORA/CARBON/from-Arr/AIRSS/Generating-Clusters/GAP-ML-2020/Only-C1/SD-CG/HFTN-CG
REM
REM
REM
REM
REM
REM ./C.cell (11c1c37f851c82e70ff6c80c92926a4b)
REM AIRSS Version 0.9.1 bugfix July 2018 build 013d7b7c2542+ Fri, 06 Jul 2018 19:26:36 +0100
REM compiler GCC version 9.3.0
REM options -cpp -mtune=generic -march=x86-64 -g -O0
REM seed 71752468 425186844 -1810462496 1331273018 1427903393 -1303051763 -1648011099 -1802441336 1407341662 -1068228769 1164349064 1369509998 -550244457 677664403 -83164587 1007830737 -1660929836 658679949 1935285425 -531877332 589455000 -1444758149 516817846 -2043522357 -1524912761 578543135 -1156625260 1620124186 -1136877161 -152713131 -528533373 -1321885098 -147179807
REM
CELL 1.54180   50.00000   50.00000   50.00000   90.00000   90.00000   90.00000
LATT -1
SFAC C  
C      1  0.5626680000000  0.4920780000000  0.5493810000000 1.0
C      1  0.5466570000000  0.4745600000000  0.5317220000000 1.0
C      1  0.4635850000000  0.4370510000000  0.4514040000000 1.0
C      1  0.4723810000000  0.5580710000000  0.4575450000000 1.0
C      1  0.4504300000000  0.4544470000000  0.5210100000000 1.0
C      1  0.5045730000000  0.4647360000000  0.4405420000000 1.0
C      1  0.4863180000000  0.5670470000000  0.4814030000000 1.0
C      1  0.5515810000000  0.5319140000000  0.5569900000000 1.0
C      1  0.4887210000000  0.4292140000000  0.5285250000000 1.0
C      1  0.4800400000000  0.4253210000000  0.5012320000000 1.0
C      1  0.5641160000000  0.4778640000000  0.4593990000000 1.0
C      1  0.5213630000000  0.4941460000000  0.5290210000000 1.0
C      1  0.5525350000000  0.5343470000000  0.4698450000000 1.0
C      1  0.4987010000000  0.5226780000000  0.5633620000000 1.0
C      1  0.4348140000000  0.5442890000000  0.4814980000000 1.0
C      1  0.4750610000000  0.4937400000000  0.5233210000000 1.0
C      1  0.4514410000000  0.5178400000000  0.4454930000000 1.0
C      1  0.5448180000000  0.5063420000000  0.5678360000000 1.0
C      1  0.5004770000000  0.4306600000000  0.4819940000000 1.0
C      1  0.5010020000000  0.4950330000000  0.4336730000000 1.0
C      1  0.5502600000000  0.4517620000000  0.4618720000000 1.0
C      1  0.5366530000000  0.5305700000000  0.4463830000000 1.0
C      1  0.5141850000000  0.5627930000000  0.4734540000000 1.0
C      1  0.4501260000000  0.4788360000000  0.4784950000000 1.0
C      1  0.4549110000000  0.5373100000000  0.5504100000000 1.0
C      1  0.5170780000000  0.4339930000000  0.5273860000000 1.0
C      1  0.5579910000000  0.4688940000000  0.5050190000000 1.0
C      1  0.4255860000000  0.5176030000000  0.4853160000000 1.0
C      1  0.4507870000000  0.4494590000000  0.4722090000000 1.0
C      1  0.5684730000000  0.4882260000000  0.4853030000000 1.0
C      1  0.4408450000000  0.5326930000000  0.5258940000000 1.0
C      1  0.4903370000000  0.4427700000000  0.4553840000000 1.0
C      1  0.4772170000000  0.5183790000000  0.4853220000000 1.0
C      1  0.4985530000000  0.4775740000000  0.5166650000000 1.0
C      1  0.4794460000000  0.5152630000000  0.4348140000000 1.0
C      1  0.4544470000000  0.4371950000000  0.4981220000000 1.0
C      1  0.5321470000000  0.4596590000000  0.4406890000000 1.0
C      1  0.4867520000000  0.5196170000000  0.5117040000000 1.0
C      1  0.4779710000000  0.4908280000000  0.4768710000000 1.0
C      1  0.5093370000000  0.4689360000000  0.5618950000000 1.0
C      1  0.4893100000000  0.5418980000000  0.4405240000000 1.0
C      1  0.5203360000000  0.5006480000000  0.4839740000000 1.0
C      1  0.4480180000000  0.5446490000000  0.4565440000000 1.0
C      1  0.4470500000000  0.5530710000000  0.5053880000000 1.0
C      1  0.4316550000000  0.5088040000000  0.5123910000000 1.0
C      1  0.5644400000000  0.5269290000000  0.5132490000000 1.0
C      1  0.5468640000000  0.4470110000000  0.4895810000000 1.0
C      1  0.4691450000000  0.4914170000000  0.5532450000000 1.0
C      1  0.4363140000000  0.5013490000000  0.4640920000000 1.0
C      1  0.5276450000000  0.4538810000000  0.5450940000000 1.0
C      1  0.4622150000000  0.5633760000000  0.5538630000000 1.0
C      1  0.4728870000000  0.5660100000000  0.5071980000000 1.0
C      1  0.5389140000000  0.5418900000000  0.5136230000000 1.0
C      1  0.5332750000000  0.5478610000000  0.5420830000000 1.0
C      1  0.4810630000000  0.4662640000000  0.5595540000000 1.0
C      1  0.4703610000000  0.4468030000000  0.5411700000000 1.0
C      1  0.5677310000000  0.5167470000000  0.4872250000000 1.0
C      1  0.4829160000000  0.5624890000000  0.5361700000000 1.0
C      1  0.5471860000000  0.4850760000000  0.4380270000000 1.0
C      1  0.5174420000000  0.4987410000000  0.5601530000000 1.0
C      1  0.5019860000000  0.4795790000000  0.4878520000000 1.0
C      1  0.5058390000000  0.5474760000000  0.5494510000000 1.0
C      1  0.4478080000000  0.4826920000000  0.5108190000000 1.0
C      1  0.5174660000000  0.5159600000000  0.5091860000000 1.0
C      1  0.4709720000000  0.5170920000000  0.5636960000000 1.0
C      1  0.5706250000000  0.5177430000000  0.5387660000000 1.0
C      1  0.5242630000000  0.4328780000000  0.4988800000000 1.0
C      1  0.5381500000000  0.5538400000000  0.4864590000000 1.0
C      1  0.5150710000000  0.5486390000000  0.4482640000000 1.0
C      1  0.5286680000000  0.5054430000000  0.4350790000000 1.0
END
