TITL C-240331-584-7 -41.3658350911875 125000 -205.298262968631 0 0 32 (C1) n - 1
REM
REM in /rds/project/t2_vol4/rds-t2-cs072/BORA/CARBON/from-Arr/AIRSS/Generating-Clusters/GAP-ML-2020/Only-C1/SD-CG/HFTN-CG
REM
REM
REM
REM
REM
REM ./C.cell (11c1c37f851c82e70ff6c80c92926a4b)
REM AIRSS Version 0.9.1 bugfix July 2018 build 013d7b7c2542+ Fri, 06 Jul 2018 19:26:36 +0100
REM compiler GCC version 9.3.0
REM options -cpp -mtune=generic -march=x86-64 -g -O0
REM seed -280319828 -88985502 -1670472702 966519045 -1841028159 -1123981290 95838486 684152072 -1370411723 -217929782 2063358790 486513218 1353427841 -166719762 178194432 -1395999253 -1617340967 968173011 -1632548928 488916495 -50617344 521848176 879997263 536201488 -1973437011 919097382 53808455 1786275487 -1554047676 -1699255264 344201439 -1712687567 1737706407
REM
CELL 1.54180   50.00000   50.00000   50.00000   90.00000   90.00000   90.00000
LATT -1
SFAC C  
C      1  0.5367470000000  0.5333580000000  0.5294160000000 1.0
C      1  0.4433980000000  0.5036340000000  0.4906390000000 1.0
C      1  0.4834120000000  0.4536150000000  0.5147930000000 1.0
C      1  0.4852840000000  0.4970220000000  0.5024910000000 1.0
C      1  0.5424870000000  0.5111910000000  0.4618810000000 1.0
C      1  0.5037650000000  0.4802120000000  0.5170080000000 1.0
C      1  0.4631110000000  0.5019860000000  0.5394100000000 1.0
C      1  0.4574660000000  0.4947880000000  0.4668930000000 1.0
C      1  0.4982280000000  0.4962380000000  0.4497260000000 1.0
C      1  0.5001870000000  0.5406970000000  0.4651820000000 1.0
C      1  0.5257970000000  0.5451910000000  0.4779450000000 1.0
C      1  0.4684760000000  0.4783850000000  0.5502180000000 1.0
C      1  0.4820400000000  0.5243990000000  0.5361800000000 1.0
C      1  0.5241990000000  0.4746900000000  0.4952930000000 1.0
C      1  0.4976540000000  0.5351580000000  0.5554420000000 1.0
C      1  0.5011770000000  0.4612090000000  0.4806050000000 1.0
C      1  0.4832920000000  0.4556070000000  0.5435430000000 1.0
C      1  0.4800770000000  0.5357350000000  0.4825270000000 1.0
C      1  0.4918730000000  0.4391140000000  0.4944760000000 1.0
C      1  0.5328300000000  0.5017460000000  0.4876020000000 1.0
C      1  0.4577370000000  0.4962280000000  0.5119770000000 1.0
C      1  0.4850950000000  0.4854460000000  0.4731230000000 1.0
C      1  0.5409630000000  0.4570170000000  0.5113700000000 1.0
C      1  0.4923110000000  0.5252750000000  0.5073400000000 1.0
C      1  0.5479830000000  0.5389970000000  0.4634680000000 1.0
C      1  0.5237510000000  0.5268800000000  0.5039950000000 1.0
C      1  0.5354700000000  0.4518710000000  0.5365350000000 1.0
C      1  0.5113350000000  0.4654530000000  0.5419960000000 1.0
C      1  0.5232700000000  0.5048500000000  0.4421710000000 1.0
C      1  0.4568860000000  0.5214260000000  0.4734800000000 1.0
C      1  0.5001060000000  0.5238000000000  0.4420230000000 1.0
C      1  0.5235930000000  0.5387820000000  0.5512550000000 1.0
END
