TITL C-240336-483-1 -586.474199899297 125000 -1036.23926806178 0 0 148 (C1) n - 1
REM
REM in /rds/project/t2_vol4/rds-t2-cs072/BORA/CARBON/from-Arr/AIRSS/Generating-Clusters/GAP-ML-2020/Only-C1/SD-CG/HFTN-CG
REM
REM
REM
REM
REM
REM ./C.cell (11c1c37f851c82e70ff6c80c92926a4b)
REM AIRSS Version 0.9.1 bugfix July 2018 build 013d7b7c2542+ Fri, 06 Jul 2018 19:26:36 +0100
REM compiler GCC version 9.3.0
REM options -cpp -mtune=generic -march=x86-64 -g -O0
REM seed 327604040 69263353 -889647010 2046629774 1257779623 458636694 -1302666236 -1028856139 -722970380 -324237220 -1881386913 -938970229 -2087647350 1797960708 -1077822637 458278831 387403313 -724151010 1301644062 313309673 -1443932616 -511442936 1122437313 -1014298053 196711318 820909355 -131252846 -599985849 229964977 1827121184 -1855780457 -1259719766 314801497
REM
CELL 1.54180   50.00000   50.00000   50.00000   90.00000   90.00000   90.00000
LATT -1
SFAC C  
C      1  0.4418670000000  0.5642190000000  0.5431670000000 1.0
C      1  0.4824000000000  0.4704020000000  0.6067260000000 1.0
C      1  0.4324310000000  0.5196330000000  0.4407040000000 1.0
C      1  0.3972950000000  0.4773450000000  0.5033780000000 1.0
C      1  0.4512160000000  0.5146820000000  0.4186210000000 1.0
C      1  0.4600400000000  0.5077650000000  0.5853000000000 1.0
C      1  0.4049610000000  0.4502480000000  0.5078030000000 1.0
C      1  0.4936680000000  0.5896710000000  0.4678570000000 1.0
C      1  0.5070510000000  0.5341570000000  0.5827490000000 1.0
C      1  0.4869120000000  0.5263640000000  0.4588400000000 1.0
C      1  0.4742220000000  0.4365500000000  0.5114140000000 1.0
C      1  0.5744680000000  0.5176850000000  0.4943280000000 1.0
C      1  0.4625730000000  0.4631740000000  0.5589010000000 1.0
C      1  0.3992280000000  0.5207510000000  0.4867340000000 1.0
C      1  0.4926980000000  0.3939300000000  0.4949250000000 1.0
C      1  0.5126880000000  0.5583860000000  0.5002000000000 1.0
C      1  0.4605810000000  0.4361630000000  0.4654230000000 1.0
C      1  0.5609560000000  0.4564960000000  0.5672130000000 1.0
C      1  0.4802510000000  0.4311610000000  0.5731170000000 1.0
C      1  0.5218620000000  0.5674490000000  0.5578140000000 1.0
C      1  0.4799890000000  0.5811850000000  0.4265850000000 1.0
C      1  0.4568620000000  0.4483770000000  0.4394760000000 1.0
C      1  0.5463280000000  0.4828350000000  0.4128640000000 1.0
C      1  0.5579460000000  0.5393550000000  0.5367600000000 1.0
C      1  0.5092760000000  0.5350300000000  0.5199570000000 1.0
C      1  0.5847770000000  0.4715830000000  0.4783720000000 1.0
C      1  0.4380270000000  0.5080850000000  0.4676980000000 1.0
C      1  0.4853670000000  0.5679820000000  0.4877970000000 1.0
C      1  0.5571810000000  0.4249560000000  0.5293440000000 1.0
C      1  0.5816250000000  0.5365870000000  0.5186030000000 1.0
C      1  0.5117090000000  0.5354500000000  0.4499450000000 1.0
C      1  0.4824130000000  0.4969190000000  0.6010580000000 1.0
C      1  0.4578630000000  0.4617870000000  0.5146140000000 1.0
C      1  0.5324340000000  0.4546560000000  0.4711720000000 1.0
C      1  0.5335330000000  0.4800080000000  0.4564420000000 1.0
C      1  0.5100710000000  0.5081610000000  0.5916570000000 1.0
C      1  0.5052480000000  0.4833790000000  0.5336640000000 1.0
C      1  0.4454610000000  0.5853870000000  0.4583960000000 1.0
C      1  0.4559230000000  0.4352080000000  0.5595130000000 1.0
C      1  0.5312520000000  0.5490270000000  0.5757900000000 1.0
C      1  0.5302770000000  0.4630120000000  0.4053210000000 1.0
C      1  0.5467680000000  0.4547840000000  0.5155500000000 1.0
C      1  0.5584970000000  0.4906130000000  0.4389510000000 1.0
C      1  0.4823010000000  0.5382430000000  0.5639300000000 1.0
C      1  0.5083080000000  0.4831470000000  0.4421370000000 1.0
C      1  0.5275120000000  0.4219650000000  0.4630590000000 1.0
C      1  0.5150860000000  0.4566540000000  0.5178460000000 1.0
C      1  0.5515060000000  0.4316130000000  0.5572500000000 1.0
C      1  0.5310570000000  0.5010010000000  0.4804130000000 1.0
C      1  0.4867380000000  0.4817540000000  0.5562870000000 1.0
C      1  0.6053370000000  0.4537230000000  0.4940020000000 1.0
C      1  0.5355260000000  0.5218520000000  0.5266830000000 1.0
C      1  0.4506670000000  0.5045660000000  0.5386670000000 1.0
C      1  0.5763770000000  0.5297870000000  0.4667450000000 1.0
C      1  0.5820000000000  0.5018810000000  0.5577540000000 1.0
C      1  0.3938090000000  0.5202340000000  0.5145890000000 1.0
C      1  0.5409740000000  0.4676300000000  0.5845050000000 1.0
C      1  0.4667300000000  0.5382870000000  0.4094520000000 1.0
C      1  0.5407710000000  0.4073910000000  0.5087260000000 1.0
C      1  0.5621880000000  0.5655220000000  0.4271310000000 1.0
C      1  0.5536050000000  0.4803320000000  0.5277530000000 1.0
C      1  0.5077290000000  0.4614210000000  0.4887960000000 1.0
C      1  0.4940240000000  0.5035070000000  0.4027040000000 1.0
C      1  0.4588600000000  0.5631810000000  0.4196850000000 1.0
C      1  0.5024300000000  0.4158380000000  0.4786400000000 1.0
C      1  0.5749660000000  0.5858440000000  0.5046970000000 1.0
C      1  0.4980900000000  0.5540660000000  0.5439360000000 1.0
C      1  0.4685600000000  0.4920030000000  0.4115140000000 1.0
C      1  0.4220110000000  0.5154420000000  0.5526890000000 1.0
C      1  0.4945870000000  0.5318670000000  0.4045320000000 1.0
C      1  0.5670550000000  0.5725120000000  0.4535720000000 1.0
C      1  0.6181720000000  0.4692770000000  0.5126780000000 1.0
C      1  0.5807060000000  0.4785780000000  0.4513300000000 1.0
C      1  0.4157650000000  0.4420080000000  0.5334090000000 1.0
C      1  0.4457270000000  0.4744690000000  0.5397900000000 1.0
C      1  0.4927490000000  0.4489250000000  0.4101780000000 1.0
C      1  0.5005550000000  0.4299470000000  0.5267590000000 1.0
C      1  0.4524500000000  0.5485000000000  0.5650320000000 1.0
C      1  0.5263500000000  0.5839620000000  0.5121950000000 1.0
C      1  0.5830580000000  0.5562460000000  0.4712250000000 1.0
C      1  0.4715950000000  0.5937210000000  0.4506910000000 1.0
C      1  0.4091500000000  0.4924650000000  0.4792970000000 1.0
C      1  0.4939480000000  0.5073700000000  0.5130490000000 1.0
C      1  0.5080060000000  0.5748340000000  0.4278170000000 1.0
C      1  0.4079190000000  0.5348360000000  0.5341080000000 1.0
C      1  0.5492830000000  0.5900880000000  0.4957570000000 1.0
C      1  0.4046060000000  0.4906250000000  0.5487750000000 1.0
C      1  0.4517860000000  0.4156680000000  0.5094180000000 1.0
C      1  0.4182000000000  0.5649180000000  0.4956600000000 1.0
C      1  0.4587610000000  0.4871200000000  0.4673400000000 1.0
C      1  0.5164390000000  0.5465860000000  0.4220860000000 1.0
C      1  0.3910060000000  0.4940600000000  0.5247660000000 1.0
C      1  0.4200620000000  0.5578780000000  0.5248470000000 1.0
C      1  0.5585980000000  0.4537880000000  0.4863950000000 1.0
C      1  0.5849820000000  0.4202120000000  0.5226200000000 1.0
C      1  0.5293600000000  0.5885790000000  0.5417180000000 1.0
C      1  0.4383570000000  0.5257150000000  0.5759910000000 1.0
C      1  0.4185950000000  0.4662170000000  0.5487020000000 1.0
C      1  0.5732940000000  0.4755550000000  0.5496300000000 1.0
C      1  0.4531860000000  0.5269820000000  0.4900100000000 1.0
C      1  0.5262140000000  0.4274560000000  0.5694690000000 1.0
C      1  0.5265910000000  0.4207590000000  0.4346190000000 1.0
C      1  0.4164880000000  0.4666270000000  0.4657020000000 1.0
C      1  0.5934830000000  0.4966130000000  0.4928620000000 1.0
C      1  0.4417420000000  0.4673620000000  0.4529210000000 1.0
C      1  0.5179180000000  0.4387240000000  0.4157920000000 1.0
C      1  0.5064910000000  0.5985160000000  0.5289730000000 1.0
C      1  0.5017750000000  0.4235670000000  0.5561720000000 1.0
C      1  0.5178230000000  0.5865320000000  0.4528330000000 1.0
C      1  0.5214330000000  0.4471900000000  0.5893630000000 1.0
C      1  0.4928960000000  0.4483580000000  0.5945190000000 1.0
C      1  0.4730840000000  0.5086160000000  0.5591740000000 1.0
C      1  0.5160820000000  0.4886280000000  0.4138490000000 1.0
C      1  0.5348600000000  0.4955770000000  0.5779520000000 1.0
C      1  0.4092450000000  0.5452900000000  0.4757230000000 1.0
C      1  0.5494190000000  0.4103520000000  0.4815630000000 1.0
C      1  0.5034240000000  0.4926400000000  0.4870670000000 1.0
C      1  0.4731170000000  0.5420790000000  0.4767400000000 1.0
C      1  0.4368600000000  0.5663460000000  0.4388760000000 1.0
C      1  0.5614540000000  0.5122800000000  0.5746670000000 1.0
C      1  0.4860220000000  0.5818030000000  0.5372480000000 1.0
C      1  0.5554720000000  0.5380710000000  0.5664930000000 1.0
C      1  0.5424370000000  0.5789420000000  0.4677820000000 1.0
C      1  0.5569640000000  0.5219340000000  0.4454900000000 1.0
C      1  0.5474290000000  0.5433800000000  0.4240060000000 1.0
C      1  0.6084580000000  0.4947880000000  0.5167750000000 1.0
C      1  0.4629580000000  0.5088090000000  0.5108780000000 1.0
C      1  0.5711820000000  0.4274500000000  0.4816020000000 1.0
C      1  0.4701860000000  0.4618180000000  0.4174550000000 1.0
C      1  0.5339130000000  0.5266250000000  0.4650430000000 1.0
C      1  0.4385310000000  0.5824280000000  0.4857280000000 1.0
C      1  0.4162320000000  0.4430330000000  0.4827940000000 1.0
C      1  0.4390210000000  0.4255660000000  0.5372630000000 1.0
C      1  0.5864970000000  0.5616140000000  0.5001640000000 1.0
C      1  0.5941020000000  0.4272660000000  0.4981840000000 1.0
C      1  0.5304380000000  0.4954870000000  0.5437160000000 1.0
C      1  0.5317150000000  0.5524330000000  0.4784430000000 1.0
C      1  0.4597880000000  0.5812370000000  0.5294980000000 1.0
C      1  0.4617600000000  0.5827090000000  0.5016980000000 1.0
C      1  0.5486140000000  0.5040700000000  0.5047120000000 1.0
C      1  0.4214040000000  0.5449060000000  0.4488270000000 1.0
C      1  0.4671360000000  0.3924020000000  0.5028220000000 1.0
C      1  0.4853320000000  0.4394040000000  0.4831810000000 1.0
C      1  0.5965000000000  0.5145110000000  0.5357490000000 1.0
C      1  0.4877240000000  0.4969300000000  0.4611890000000 1.0
C      1  0.4397640000000  0.4273290000000  0.4830600000000 1.0
C      1  0.4595880000000  0.4825250000000  0.4969000000000 1.0
C      1  0.5127730000000  0.4080290000000  0.5107530000000 1.0
END
