TITL C-24729-1324-3 -0.00766263216452879 125000 -67.8180207565741 0 0 11 (C1) n - 1
REM
REM in /rds/project/t2_vol4/rds-t2-cs072/BORA/CARBON/from-Arr/AIRSS/Generating-Clusters/GAP-ML-2020/Only-C1/SD-CG/HFTN-CG
REM
REM
REM
REM
REM
REM ./C.cell (11c1c37f851c82e70ff6c80c92926a4b)
REM AIRSS Version 0.9.1 bugfix July 2018 build 013d7b7c2542+ Fri, 06 Jul 2018 19:26:36 +0100
REM compiler GCC version 9.3.0
REM options -cpp -mtune=generic -march=x86-64 -g -O0
REM seed -17650214 -1957708483 -1929915847 -1267948615 796239546 359847560 1429962064 1674515095 334411998 -1236313052 537265720 -1206917585 1810193967 -808579617 178787551 2113024227 -760212718 1742325345 190599758 -176140952 1888550388 1295719046 -92034055 1597819514 2132688450 -657292736 -1684332587 -1614949738 1966972067 469127157 1878114058 296151067 185936364
REM
CELL 1.54180   50.00000   50.00000   50.00000   90.00000   90.00000   90.00000
LATT -1
SFAC C  
C      1  0.4939450000000  0.4757880000000  0.5560460000000 1.0
C      1  0.5323780000000  0.4966980000000  0.4826290000000 1.0
C      1  0.5419920000000  0.4771710000000  0.4982680000000 1.0
C      1  0.5098370000000  0.4766780000000  0.5360490000000 1.0
C      1  0.4851090000000  0.5212720000000  0.4853440000000 1.0
C      1  0.5301820000000  0.4713380000000  0.5202850000000 1.0
C      1  0.4654110000000  0.5168240000000  0.5047480000000 1.0
C      1  0.5106410000000  0.5180010000000  0.4789510000000 1.0
C      1  0.5325630000000  0.5145290000000  0.4623430000000 1.0
C      1  0.4578040000000  0.5188370000000  0.4781370000000 1.0
C      1  0.4401370000000  0.5128650000000  0.4971990000000 1.0
END
