TITL C-24092-7333-8 -23.8648161523132 125000 -174.814541283082 0 0 27 (C1) n - 1
REM
REM in /rds/project/t2_vol4/rds-t2-cs072/BORA/CARBON/from-Arr/AIRSS/Generating-Clusters/GAP-ML-2020/Only-C1/SD-CG/HFTN-CG
REM
REM
REM
REM
REM
REM ./C.cell (11c1c37f851c82e70ff6c80c92926a4b)
REM AIRSS Version 0.9.1 bugfix July 2018 build 013d7b7c2542+ Fri, 06 Jul 2018 19:26:36 +0100
REM compiler GCC version 9.3.0
REM options -cpp -mtune=generic -march=x86-64 -g -O0
REM seed -1824529568 -1320417896 -300785738 -2107165110 -1059424391 -28488388 -1221992575 1523708859 -239172656 -747902029 -2088981718 344436051 -768442573 -1985488076 -1842137016 -584249923 -473618000 158487420 1891322158 -1904013607 -1813674234 1081078306 -189768858 -1206987311 -1670346420 1805210397 -421924313 -861247611 -2031523419 634998615 -693239001 86835803 1853449407
REM
CELL 1.54180   50.00000   50.00000   50.00000   90.00000   90.00000   90.00000
LATT -1
SFAC C  
C      1  0.4963580000000  0.4823350000000  0.5534560000000 1.0
C      1  0.5198900000000  0.5474800000000  0.5217490000000 1.0
C      1  0.4905420000000  0.4996360000000  0.4427330000000 1.0
C      1  0.5244410000000  0.5270370000000  0.5393840000000 1.0
C      1  0.5291780000000  0.4703030000000  0.4933450000000 1.0
C      1  0.4992610000000  0.5494920000000  0.4801880000000 1.0
C      1  0.5024270000000  0.4581580000000  0.4893650000000 1.0
C      1  0.4718360000000  0.4966950000000  0.5441660000000 1.0
C      1  0.5008710000000  0.4753330000000  0.4413550000000 1.0
C      1  0.4640370000000  0.5186930000000  0.4997900000000 1.0
C      1  0.4764450000000  0.5195670000000  0.4502940000000 1.0
C      1  0.4901270000000  0.4608330000000  0.4626020000000 1.0
C      1  0.5221480000000  0.4842390000000  0.5594810000000 1.0
C      1  0.5232640000000  0.5479930000000  0.4937830000000 1.0
C      1  0.5460640000000  0.5327650000000  0.4850970000000 1.0
C      1  0.4748430000000  0.5202130000000  0.5268100000000 1.0
C      1  0.5499280000000  0.5083670000000  0.4927840000000 1.0
C      1  0.4787760000000  0.4714890000000  0.5337830000000 1.0
C      1  0.4978300000000  0.5351390000000  0.5343810000000 1.0
C      1  0.4567720000000  0.4722970000000  0.4900790000000 1.0
C      1  0.5408240000000  0.4906500000000  0.5129070000000 1.0
C      1  0.4462010000000  0.4971760000000  0.4943610000000 1.0
C      1  0.4616880000000  0.4611260000000  0.4647230000000 1.0
C      1  0.4797620000000  0.4624840000000  0.5075520000000 1.0
C      1  0.5450970000000  0.4787730000000  0.4710940000000 1.0
C      1  0.5331270000000  0.5000620000000  0.5380560000000 1.0
C      1  0.4782660000000  0.5316630000000  0.4766830000000 1.0
END
