TITL C-240334-458-6 0.183618349571656 125000 -447.859377882158 0 0 67 (C1) n - 1
REM
REM in /rds/project/t2_vol4/rds-t2-cs072/BORA/CARBON/from-Arr/AIRSS/Generating-Clusters/GAP-ML-2020/Only-C1/SD-CG/HFTN-CG
REM
REM
REM
REM
REM
REM ./C.cell (11c1c37f851c82e70ff6c80c92926a4b)
REM AIRSS Version 0.9.1 bugfix July 2018 build 013d7b7c2542+ Fri, 06 Jul 2018 19:26:36 +0100
REM compiler GCC version 9.3.0
REM options -cpp -mtune=generic -march=x86-64 -g -O0
REM seed 1049850392 462050802 -731521981 456877794 -1525144275 1484899028 1163904946 -1934063282 -1564059051 1013079784 -1223074165 1087950040 -54626973 -927461440 1918857742 -149930127 1321033812 1344149541 465255749 1954672405 -22218776 2005265295 2057042642 -112625588 -729986737 1925988118 2084880957 -77409168 604126002 -948165949 -1800143601 -78327027 900616891
REM
CELL 1.54180   50.00000   50.00000   50.00000   90.00000   90.00000   90.00000
LATT -1
SFAC C  
C      1  0.5059100000000  0.4427460000000  0.5300710000000 1.0
C      1  0.4622710000000  0.4362470000000  0.5180070000000 1.0
C      1  0.5294380000000  0.5003440000000  0.5031470000000 1.0
C      1  0.5336630000000  0.5451240000000  0.4710070000000 1.0
C      1  0.5060330000000  0.5751650000000  0.4999210000000 1.0
C      1  0.4610950000000  0.4744380000000  0.4881250000000 1.0
C      1  0.5628300000000  0.4621920000000  0.4880310000000 1.0
C      1  0.5364360000000  0.5244060000000  0.4285150000000 1.0
C      1  0.5066260000000  0.5319070000000  0.4777800000000 1.0
C      1  0.4927150000000  0.5664650000000  0.5249040000000 1.0
C      1  0.5249390000000  0.5460420000000  0.4395510000000 1.0
C      1  0.4891720000000  0.5186150000000  0.5689810000000 1.0
C      1  0.5785080000000  0.4863090000000  0.5202840000000 1.0
C      1  0.5714020000000  0.5136740000000  0.5198900000000 1.0
C      1  0.4468330000000  0.4740990000000  0.5399100000000 1.0
C      1  0.4703680000000  0.4522240000000  0.4630480000000 1.0
C      1  0.4464300000000  0.4495460000000  0.4767340000000 1.0
C      1  0.5172460000000  0.4723070000000  0.5697630000000 1.0
C      1  0.4404430000000  0.4484490000000  0.5034850000000 1.0
C      1  0.4971120000000  0.5446040000000  0.4361520000000 1.0
C      1  0.5031430000000  0.4709980000000  0.5239620000000 1.0
C      1  0.5580470000000  0.4659420000000  0.5169650000000 1.0
C      1  0.5119450000000  0.4862030000000  0.4813770000000 1.0
C      1  0.4433030000000  0.4964520000000  0.4810250000000 1.0
C      1  0.4649990000000  0.4981880000000  0.5363640000000 1.0
C      1  0.5071650000000  0.4461180000000  0.5587340000000 1.0
C      1  0.4946030000000  0.4892880000000  0.5715740000000 1.0
C      1  0.4808060000000  0.4410470000000  0.5611870000000 1.0
C      1  0.5539510000000  0.5291910000000  0.5347750000000 1.0
C      1  0.4508920000000  0.5398070000000  0.5370190000000 1.0
C      1  0.4496980000000  0.4956090000000  0.4519540000000 1.0
C      1  0.4890100000000  0.4346960000000  0.5068820000000 1.0
C      1  0.4796730000000  0.5091110000000  0.5086280000000 1.0
C      1  0.4862190000000  0.5525600000000  0.4632240000000 1.0
C      1  0.4258160000000  0.4982000000000  0.5053950000000 1.0
C      1  0.5168870000000  0.4730750000000  0.4382600000000 1.0
C      1  0.5779750000000  0.4856130000000  0.4902480000000 1.0
C      1  0.5057550000000  0.5067110000000  0.4633460000000 1.0
C      1  0.5067900000000  0.5231810000000  0.5071620000000 1.0
C      1  0.5442530000000  0.4804270000000  0.4444020000000 1.0
C      1  0.5596120000000  0.5096060000000  0.4921300000000 1.0
C      1  0.4922640000000  0.5766990000000  0.4770220000000 1.0
C      1  0.4889940000000  0.4859370000000  0.5442230000000 1.0
C      1  0.5368860000000  0.5153930000000  0.5542430000000 1.0
C      1  0.4602580000000  0.4476930000000  0.5446070000000 1.0
C      1  0.4941530000000  0.4923280000000  0.4376130000000 1.0
C      1  0.5357400000000  0.4867700000000  0.5539410000000 1.0
C      1  0.4585410000000  0.5208670000000  0.4425790000000 1.0
C      1  0.4274670000000  0.4716970000000  0.5190070000000 1.0
C      1  0.4667100000000  0.5621890000000  0.5334120000000 1.0
C      1  0.5106730000000  0.5440530000000  0.5309120000000 1.0
C      1  0.4942950000000  0.4410830000000  0.4775080000000 1.0
C      1  0.5325000000000  0.4793130000000  0.5247820000000 1.0
C      1  0.4885040000000  0.4825880000000  0.4991560000000 1.0
C      1  0.5515420000000  0.5084030000000  0.4454520000000 1.0
C      1  0.5331380000000  0.5620920000000  0.4958190000000 1.0
C      1  0.4637430000000  0.5211960000000  0.5544230000000 1.0
C      1  0.5380250000000  0.5493550000000  0.5209230000000 1.0
C      1  0.4368610000000  0.5246660000000  0.5136040000000 1.0
C      1  0.4604740000000  0.5377790000000  0.4652570000000 1.0
C      1  0.5161760000000  0.4586520000000  0.4665180000000 1.0
C      1  0.5460100000000  0.4605930000000  0.4657760000000 1.0
C      1  0.5548550000000  0.5247530000000  0.4692480000000 1.0
C      1  0.4706040000000  0.4767740000000  0.4460500000000 1.0
C      1  0.5121990000000  0.5296470000000  0.5566320000000 1.0
C      1  0.4560440000000  0.5224550000000  0.4907190000000 1.0
C      1  0.4833300000000  0.5200970000000  0.4286510000000 1.0
END
