TITL C-24727-1465-4 22.5514610204795 125000 -122.970611198823 0 0 19 (C1) n - 1
REM
REM in /rds/project/t2_vol4/rds-t2-cs072/BORA/CARBON/from-Arr/AIRSS/Generating-Clusters/GAP-ML-2020/Only-C1/SD-CG/HFTN-CG
REM
REM
REM
REM
REM
REM ./C.cell (11c1c37f851c82e70ff6c80c92926a4b)
REM AIRSS Version 0.9.1 bugfix July 2018 build 013d7b7c2542+ Fri, 06 Jul 2018 19:26:36 +0100
REM compiler GCC version 9.3.0
REM options -cpp -mtune=generic -march=x86-64 -g -O0
REM seed 425092782 -209430152 -1824537861 -701114976 -985329838 1169883046 114947950 -1070358981 -924547335 -946435322 -1331995 1830086269 479948171 680644173 1302172767 -546231274 783609283 -2044641983 -62301926 620891241 -1749715750 1552726258 -1893764266 2104651970 -1897556862 1429529988 -73428487 722352406 -1942287842 -412130090 -607950074 1229287213 1606313609
REM
CELL 1.54180   50.00000   50.00000   50.00000   90.00000   90.00000   90.00000
LATT -1
SFAC C  
C      1  0.5174510000000  0.4977470000000  0.4567590000000 1.0
C      1  0.4701380000000  0.4470600000000  0.5182070000000 1.0
C      1  0.4997180000000  0.5236500000000  0.5366130000000 1.0
C      1  0.4458080000000  0.4889220000000  0.4676080000000 1.0
C      1  0.5267140000000  0.5417080000000  0.5030050000000 1.0
C      1  0.5653040000000  0.5107620000000  0.5257670000000 1.0
C      1  0.5030150000000  0.4743640000000  0.5432320000000 1.0
C      1  0.4587180000000  0.5103070000000  0.4594640000000 1.0
C      1  0.5186230000000  0.4760630000000  0.4699020000000 1.0
C      1  0.5452290000000  0.5243710000000  0.5142520000000 1.0
C      1  0.4432310000000  0.4670940000000  0.4806180000000 1.0
C      1  0.5067940000000  0.5237260000000  0.4583560000000 1.0
C      1  0.5139330000000  0.4993330000000  0.5422980000000 1.0
C      1  0.5399500000000  0.5050240000000  0.5347910000000 1.0
C      1  0.5035230000000  0.5429650000000  0.5207770000000 1.0
C      1  0.4533420000000  0.4515490000000  0.4994800000000 1.0
C      1  0.4790780000000  0.5245460000000  0.4558270000000 1.0
C      1  0.4886390000000  0.4554770000000  0.5350600000000 1.0
C      1  0.5207900000000  0.5353310000000  0.4779840000000 1.0
END
