TITL C-240341-508-4 16.3724072988734 125000 -242.915704695011 0 0 37 (C1) n - 1
REM
REM in /rds/project/t2_vol4/rds-t2-cs072/BORA/CARBON/from-Arr/AIRSS/Generating-Clusters/GAP-ML-2020/Only-C1/SD-CG/HFTN-CG
REM
REM
REM
REM
REM
REM ./C.cell (11c1c37f851c82e70ff6c80c92926a4b)
REM AIRSS Version 0.9.1 bugfix July 2018 build 013d7b7c2542+ Fri, 06 Jul 2018 19:26:36 +0100
REM compiler GCC version 9.3.0
REM options -cpp -mtune=generic -march=x86-64 -g -O0
REM seed 63943423 560537167 -1983405193 -814497115 -1781690945 -1446158592 321211984 -1039765490 1611727671 -2017405259 -39014870 255104846 -1399977115 1710784782 1784439675 762432397 866738136 -1974484617 -676599439 1003408942 -782210598 -174983138 556197252 -1040929803 935130311 -37080986 -372136347 1053162626 576261335 1392084513 1366953449 -732958257 -1350445390
REM
CELL 1.54180   50.00000   50.00000   50.00000   90.00000   90.00000   90.00000
LATT -1
SFAC C  
C      1  0.4493620000000  0.4845130000000  0.4818920000000 1.0
C      1  0.5264280000000  0.5319100000000  0.5093850000000 1.0
C      1  0.5184640000000  0.5452980000000  0.4847160000000 1.0
C      1  0.4722190000000  0.5502220000000  0.4999310000000 1.0
C      1  0.5201770000000  0.4635460000000  0.5300200000000 1.0
C      1  0.5188760000000  0.4887710000000  0.4433500000000 1.0
C      1  0.5212270000000  0.4520590000000  0.4610900000000 1.0
C      1  0.4783550000000  0.5051650000000  0.5143410000000 1.0
C      1  0.5231390000000  0.4916470000000  0.5333910000000 1.0
C      1  0.4836870000000  0.5541070000000  0.5263860000000 1.0
C      1  0.4892090000000  0.4512580000000  0.4992890000000 1.0
C      1  0.5371260000000  0.4761990000000  0.4620610000000 1.0
C      1  0.4425380000000  0.5061170000000  0.4964950000000 1.0
C      1  0.4923040000000  0.4606930000000  0.5259560000000 1.0
C      1  0.4750900000000  0.5211380000000  0.5578670000000 1.0
C      1  0.5036790000000  0.5276990000000  0.5570320000000 1.0
C      1  0.5416490000000  0.4848320000000  0.4907740000000 1.0
C      1  0.4889270000000  0.5176280000000  0.4701160000000 1.0
C      1  0.5016480000000  0.4640800000000  0.4419670000000 1.0
C      1  0.4559810000000  0.5256920000000  0.5105790000000 1.0
C      1  0.5156050000000  0.4451840000000  0.4876060000000 1.0
C      1  0.5338190000000  0.4584960000000  0.5046620000000 1.0
C      1  0.5583630000000  0.5254120000000  0.5097360000000 1.0
C      1  0.5103210000000  0.5139110000000  0.4508190000000 1.0
C      1  0.4751580000000  0.4828950000000  0.5334010000000 1.0
C      1  0.5199400000000  0.5067860000000  0.5544440000000 1.0
C      1  0.4633610000000  0.5361740000000  0.5378420000000 1.0
C      1  0.4932800000000  0.4986780000000  0.4914990000000 1.0
C      1  0.5652170000000  0.5031570000000  0.4989020000000 1.0
C      1  0.4509020000000  0.4733440000000  0.4562380000000 1.0
C      1  0.5198720000000  0.5017150000000  0.5047060000000 1.0
C      1  0.4776680000000  0.4681130000000  0.4544980000000 1.0
C      1  0.4683340000000  0.4939830000000  0.5572950000000 1.0
C      1  0.5093820000000  0.5419590000000  0.5319790000000 1.0
C      1  0.5277950000000  0.5288810000000  0.4647030000000 1.0
C      1  0.4902720000000  0.5440660000000  0.4807780000000 1.0
C      1  0.4806260000000  0.4746750000000  0.4842540000000 1.0
END
