TITL C-240342-631-8 -101.245220299464 125000 -444.824861995097 0 0 65 (C1) n - 1
REM
REM in /rds/project/t2_vol4/rds-t2-cs072/BORA/CARBON/from-Arr/AIRSS/Generating-Clusters/GAP-ML-2020/Only-C1/SD-CG/HFTN-CG
REM
REM
REM
REM
REM
REM ./C.cell (11c1c37f851c82e70ff6c80c92926a4b)
REM AIRSS Version 0.9.1 bugfix July 2018 build 013d7b7c2542+ Fri, 06 Jul 2018 19:26:36 +0100
REM compiler GCC version 9.3.0
REM options -cpp -mtune=generic -march=x86-64 -g -O0
REM seed -1872740456 1309987073 291660964 750639801 1683535330 1635289354 144121581 1051171678 -273687261 1859579111 466834743 -46020949 1822316134 1413154570 -1199326611 2036660412 -1392787739 -948827188 882599376 -1855878752 615467213 -1618999768 112366102 -1538210653 -826762899 -1305188564 -1546530122 1153478211 685718859 338749046 1575208585 1122035007 750137084
REM
CELL 1.54180   50.00000   50.00000   50.00000   90.00000   90.00000   90.00000
LATT -1
SFAC C  
C      1  0.4777470000000  0.5104550000000  0.4433160000000 1.0
C      1  0.4672370000000  0.5246130000000  0.4697070000000 1.0
C      1  0.5230050000000  0.4969320000000  0.4901920000000 1.0
C      1  0.5139850000000  0.4369330000000  0.4928240000000 1.0
C      1  0.4658420000000  0.5320280000000  0.5784260000000 1.0
C      1  0.4375760000000  0.5268750000000  0.5114670000000 1.0
C      1  0.4927580000000  0.4556550000000  0.4940540000000 1.0
C      1  0.4821290000000  0.5168400000000  0.5928540000000 1.0
C      1  0.4458940000000  0.5551060000000  0.5479030000000 1.0
C      1  0.4381410000000  0.5545250000000  0.5198600000000 1.0
C      1  0.5222080000000  0.4342960000000  0.4651200000000 1.0
C      1  0.4429640000000  0.5288850000000  0.5590290000000 1.0
C      1  0.4960730000000  0.5544820000000  0.5474410000000 1.0
C      1  0.4409190000000  0.4837880000000  0.4449590000000 1.0
C      1  0.4395630000000  0.5193540000000  0.4819100000000 1.0
C      1  0.5362570000000  0.4416980000000  0.5103440000000 1.0
C      1  0.5741020000000  0.4719380000000  0.4988340000000 1.0
C      1  0.4625410000000  0.4634100000000  0.4462900000000 1.0
C      1  0.5159110000000  0.5564130000000  0.4989770000000 1.0
C      1  0.5378710000000  0.5219100000000  0.4749270000000 1.0
C      1  0.4834800000000  0.4511390000000  0.5408890000000 1.0
C      1  0.5631540000000  0.5127020000000  0.5277120000000 1.0
C      1  0.5244250000000  0.5185390000000  0.5655740000000 1.0
C      1  0.5336970000000  0.4534360000000  0.5370560000000 1.0
C      1  0.5765230000000  0.4811120000000  0.4514790000000 1.0
C      1  0.5022100000000  0.4400030000000  0.4446120000000 1.0
C      1  0.4505840000000  0.4846640000000  0.5386790000000 1.0
C      1  0.4550930000000  0.5010090000000  0.4274660000000 1.0
C      1  0.5044560000000  0.5546700000000  0.4723570000000 1.0
C      1  0.5478310000000  0.4462650000000  0.4649610000000 1.0
C      1  0.4513070000000  0.4846410000000  0.4902600000000 1.0
C      1  0.5674000000000  0.5167670000000  0.4806290000000 1.0
C      1  0.4712030000000  0.5576420000000  0.5620040000000 1.0
C      1  0.5061680000000  0.5209220000000  0.4357130000000 1.0
C      1  0.5700520000000  0.4844360000000  0.5240280000000 1.0
C      1  0.4513880000000  0.4702670000000  0.5141660000000 1.0
C      1  0.5405620000000  0.5441230000000  0.4963210000000 1.0
C      1  0.4921310000000  0.5177790000000  0.5147610000000 1.0
C      1  0.4779760000000  0.5043410000000  0.4907910000000 1.0
C      1  0.5093120000000  0.4565780000000  0.5516700000000 1.0
C      1  0.4416160000000  0.5746400000000  0.5002040000000 1.0
C      1  0.4581320000000  0.5713130000000  0.4812540000000 1.0
C      1  0.5067530000000  0.4668540000000  0.4349130000000 1.0
C      1  0.5188530000000  0.5364080000000  0.4562780000000 1.0
C      1  0.5569830000000  0.4499560000000  0.4925610000000 1.0
C      1  0.5783090000000  0.4908380000000  0.4768770000000 1.0
C      1  0.4867210000000  0.4815020000000  0.4509920000000 1.0
C      1  0.5321940000000  0.4773600000000  0.4293250000000 1.0
C      1  0.4978520000000  0.4841220000000  0.4801230000000 1.0
C      1  0.4406720000000  0.5113230000000  0.5364990000000 1.0
C      1  0.5241900000000  0.5030780000000  0.4251500000000 1.0
C      1  0.4974170000000  0.4784870000000  0.5674540000000 1.0
C      1  0.5160840000000  0.5027010000000  0.5181530000000 1.0
C      1  0.5171050000000  0.5441180000000  0.5610420000000 1.0
C      1  0.4757830000000  0.5530710000000  0.4711320000000 1.0
C      1  0.5039760000000  0.5030720000000  0.5798690000000 1.0
C      1  0.4741310000000  0.4391610000000  0.4439940000000 1.0
C      1  0.5649210000000  0.5308270000000  0.5058250000000 1.0
C      1  0.4708930000000  0.4734720000000  0.5557810000000 1.0
C      1  0.4331390000000  0.4932800000000  0.4706790000000 1.0
C      1  0.4743660000000  0.4531600000000  0.5147410000000 1.0
C      1  0.5373670000000  0.5048190000000  0.5417310000000 1.0
C      1  0.5498810000000  0.4758920000000  0.5419100000000 1.0
C      1  0.5549560000000  0.4661200000000  0.4449110000000 1.0
C      1  0.4960340000000  0.5472560000000  0.5190430000000 1.0
END
