TITL C-24098-7285-5 16.6896290996591 125000 -818.920981986506 0 0 115 (C1) n - 1
REM
REM in /rds/project/t2_vol4/rds-t2-cs072/BORA/CARBON/from-Arr/AIRSS/Generating-Clusters/GAP-ML-2020/Only-C1/SD-CG/HFTN-CG
REM
REM
REM
REM
REM
REM ./C.cell (11c1c37f851c82e70ff6c80c92926a4b)
REM AIRSS Version 0.9.1 bugfix July 2018 build 013d7b7c2542+ Fri, 06 Jul 2018 19:26:36 +0100
REM compiler GCC version 9.3.0
REM options -cpp -mtune=generic -march=x86-64 -g -O0
REM seed -285566257 1566281699 -772234836 2087035308 759490113 788291157 360952473 -1906833026 1312677986 -1660719048 -593982310 1384678548 604454783 840942405 293644531 -1672996225 -25586591 -1916066028 1435212074 794685953 1664991775 -215207772 377197616 779684416 -831710824 -1163867010 1642043592 489089890 -132685485 1910912644 461688738 284692868 -775332361
REM
CELL 1.54180   50.00000   50.00000   50.00000   90.00000   90.00000   90.00000
LATT -1
SFAC C  
C      1  0.5464610000000  0.5383620000000  0.4562920000000 1.0
C      1  0.4797280000000  0.4146460000000  0.4965190000000 1.0
C      1  0.4601960000000  0.5535490000000  0.5508180000000 1.0
C      1  0.4322220000000  0.5123530000000  0.4424550000000 1.0
C      1  0.4494360000000  0.4665710000000  0.5650610000000 1.0
C      1  0.4726340000000  0.5047450000000  0.5809850000000 1.0
C      1  0.5276790000000  0.4454750000000  0.4199480000000 1.0
C      1  0.4923210000000  0.5576660000000  0.5028120000000 1.0
C      1  0.5069320000000  0.4844280000000  0.5475700000000 1.0
C      1  0.4385380000000  0.5390160000000  0.5417280000000 1.0
C      1  0.5268250000000  0.4355350000000  0.5880000000000 1.0
C      1  0.5112590000000  0.4342620000000  0.4433820000000 1.0
C      1  0.5244110000000  0.4192010000000  0.5358240000000 1.0
C      1  0.4585200000000  0.5923350000000  0.4752250000000 1.0
C      1  0.4946720000000  0.5473920000000  0.4758330000000 1.0
C      1  0.5223050000000  0.5149350000000  0.4128030000000 1.0
C      1  0.5298590000000  0.5292990000000  0.5046740000000 1.0
C      1  0.4737470000000  0.5269370000000  0.4736880000000 1.0
C      1  0.4578420000000  0.4260450000000  0.4804860000000 1.0
C      1  0.5425920000000  0.5068460000000  0.5136680000000 1.0
C      1  0.5188200000000  0.4580630000000  0.4655370000000 1.0
C      1  0.4483100000000  0.4346470000000  0.5251100000000 1.0
C      1  0.4189810000000  0.4703600000000  0.5253610000000 1.0
C      1  0.5872180000000  0.5209520000000  0.5299180000000 1.0
C      1  0.5141420000000  0.5851520000000  0.4662040000000 1.0
C      1  0.4906840000000  0.4328490000000  0.5715050000000 1.0
C      1  0.4893800000000  0.4814020000000  0.5836110000000 1.0
C      1  0.4650910000000  0.5773160000000  0.4525950000000 1.0
C      1  0.5308810000000  0.4816010000000  0.5066210000000 1.0
C      1  0.5429020000000  0.4577190000000  0.4835190000000 1.0
C      1  0.4969410000000  0.4214080000000  0.5453440000000 1.0
C      1  0.5479450000000  0.4349210000000  0.5457020000000 1.0
C      1  0.5272950000000  0.5377170000000  0.4298550000000 1.0
C      1  0.5813440000000  0.4828590000000  0.4922800000000 1.0
C      1  0.5857310000000  0.5317020000000  0.5029580000000 1.0
C      1  0.5492310000000  0.4356520000000  0.5010840000000 1.0
C      1  0.5355940000000  0.5813530000000  0.4817890000000 1.0
C      1  0.5360120000000  0.5597470000000  0.5608580000000 1.0
C      1  0.4669680000000  0.5967400000000  0.5023920000000 1.0
C      1  0.5074060000000  0.4106250000000  0.4873920000000 1.0
C      1  0.4355710000000  0.4543030000000  0.5425680000000 1.0
C      1  0.5061230000000  0.5370530000000  0.5176020000000 1.0
C      1  0.4894660000000  0.5284100000000  0.5767330000000 1.0
C      1  0.5602940000000  0.5612270000000  0.5448150000000 1.0
C      1  0.5583470000000  0.4890500000000  0.4503840000000 1.0
C      1  0.5220640000000  0.5303790000000  0.4742620000000 1.0
C      1  0.5367670000000  0.5855020000000  0.5112710000000 1.0
C      1  0.5603300000000  0.5720070000000  0.5190040000000 1.0
C      1  0.4390720000000  0.4384160000000  0.4986620000000 1.0
C      1  0.5168140000000  0.4692020000000  0.4065040000000 1.0
C      1  0.4733300000000  0.4622900000000  0.4238320000000 1.0
C      1  0.4085070000000  0.5074300000000  0.4835080000000 1.0
C      1  0.4456850000000  0.5572210000000  0.4467120000000 1.0
C      1  0.5108520000000  0.5704250000000  0.5533310000000 1.0
C      1  0.4841950000000  0.4960460000000  0.5359120000000 1.0
C      1  0.4660060000000  0.5158910000000  0.4979590000000 1.0
C      1  0.4947280000000  0.4649430000000  0.4837790000000 1.0
C      1  0.4895870000000  0.5841790000000  0.5126520000000 1.0
C      1  0.4424160000000  0.5838370000000  0.4960380000000 1.0
C      1  0.4103500000000  0.5167780000000  0.5102770000000 1.0
C      1  0.4476960000000  0.4958010000000  0.5693410000000 1.0
C      1  0.5278920000000  0.4174760000000  0.5075120000000 1.0
C      1  0.5789010000000  0.4713990000000  0.5191510000000 1.0
C      1  0.5172910000000  0.4898910000000  0.5747680000000 1.0
C      1  0.5633060000000  0.4461200000000  0.5235620000000 1.0
C      1  0.4698480000000  0.4758900000000  0.5200760000000 1.0
C      1  0.5723080000000  0.5569250000000  0.4970250000000 1.0
C      1  0.5056100000000  0.4234970000000  0.5957130000000 1.0
C      1  0.5072120000000  0.4913180000000  0.4929580000000 1.0
C      1  0.5378860000000  0.5349320000000  0.5750560000000 1.0
C      1  0.5448670000000  0.4481930000000  0.5711330000000 1.0
C      1  0.4224230000000  0.5421440000000  0.5164340000000 1.0
C      1  0.4898860000000  0.5137950000000  0.5149190000000 1.0
C      1  0.5556450000000  0.5614870000000  0.4740590000000 1.0
C      1  0.5004600000000  0.5498070000000  0.4299700000000 1.0
C      1  0.5660680000000  0.4708330000000  0.4722800000000 1.0
C      1  0.5809980000000  0.4929680000000  0.5380760000000 1.0
C      1  0.5653650000000  0.4944090000000  0.5632360000000 1.0
C      1  0.4778190000000  0.4270400000000  0.5228780000000 1.0
C      1  0.5586070000000  0.4797930000000  0.4221820000000 1.0
C      1  0.5756000000000  0.5377090000000  0.5494490000000 1.0
C      1  0.5622920000000  0.5220110000000  0.5685760000000 1.0
C      1  0.5450440000000  0.4769940000000  0.5733980000000 1.0
C      1  0.4163000000000  0.4811300000000  0.4760140000000 1.0
C      1  0.4908220000000  0.4559540000000  0.5126940000000 1.0
C      1  0.4597470000000  0.4360060000000  0.4539600000000 1.0
C      1  0.5358200000000  0.4906240000000  0.4075840000000 1.0
C      1  0.4903910000000  0.4799580000000  0.4091090000000 1.0
C      1  0.5131870000000  0.5861910000000  0.5285880000000 1.0
C      1  0.4938970000000  0.5092320000000  0.4101590000000 1.0
C      1  0.4166360000000  0.5251630000000  0.4625270000000 1.0
C      1  0.4255540000000  0.5511440000000  0.4671270000000 1.0
C      1  0.5157540000000  0.5189150000000  0.5799520000000 1.0
C      1  0.5664410000000  0.5157040000000  0.4598040000000 1.0
C      1  0.5818610000000  0.5112460000000  0.4840530000000 1.0
C      1  0.5116010000000  0.5038300000000  0.4668340000000 1.0
C      1  0.4746630000000  0.4577140000000  0.5754720000000 1.0
C      1  0.4836640000000  0.5034810000000  0.4603850000000 1.0
C      1  0.4788590000000  0.5318700000000  0.4199830000000 1.0
C      1  0.4853400000000  0.5533730000000  0.5613660000000 1.0
C      1  0.4940780000000  0.5689320000000  0.4520280000000 1.0
C      1  0.4824150000000  0.4374520000000  0.4358860000000 1.0
C      1  0.5155300000000  0.4669330000000  0.5271440000000 1.0
C      1  0.4270590000000  0.5602640000000  0.4944570000000 1.0
C      1  0.4510070000000  0.5335150000000  0.4311580000000 1.0
C      1  0.4538180000000  0.4651500000000  0.4470060000000 1.0
C      1  0.4306400000000  0.4840420000000  0.4500180000000 1.0
C      1  0.4166250000000  0.4980280000000  0.5308910000000 1.0
C      1  0.4578840000000  0.4884920000000  0.4965190000000 1.0
C      1  0.4708190000000  0.4780530000000  0.4708310000000 1.0
C      1  0.4208420000000  0.4614450000000  0.4974210000000 1.0
C      1  0.4326210000000  0.5114590000000  0.5510130000000 1.0
C      1  0.5542840000000  0.4521880000000  0.4217640000000 1.0
C      1  0.5262580000000  0.4835460000000  0.4524650000000 1.0
C      1  0.5130050000000  0.4115600000000  0.4608240000000 1.0
END
