TITL C-24741-1350-1 -8.48097217286136 125000 -367.977868224701 0 0 54 (C1) n - 1
REM
REM in /rds/project/t2_vol4/rds-t2-cs072/BORA/CARBON/from-Arr/AIRSS/Generating-Clusters/GAP-ML-2020/Only-C1/SD-CG/HFTN-CG
REM
REM
REM
REM
REM
REM ./C.cell (11c1c37f851c82e70ff6c80c92926a4b)
REM AIRSS Version 0.9.1 bugfix July 2018 build 013d7b7c2542+ Fri, 06 Jul 2018 19:26:36 +0100
REM compiler GCC version 9.3.0
REM options -cpp -mtune=generic -march=x86-64 -g -O0
REM seed 622567452 -1997552362 2103157504 1953614749 1822403639 -369151834 -1534821729 -972444376 578908169 -1128774964 1675342132 1092025971 1423935788 -980029138 -1414784840 1373046797 -112278429 269198493 -1955864969 290912945 -1026977530 -895818449 875905580 -367007944 -212935344 -1236309313 -1170670497 538644217 104797220 1661001285 225197996 975633544 -963465622
REM
CELL 1.54180   50.00000   50.00000   50.00000   90.00000   90.00000   90.00000
LATT -1
SFAC C  
C      1  0.5352770000000  0.5498110000000  0.5294730000000 1.0
C      1  0.5652540000000  0.4892510000000  0.5140000000000 1.0
C      1  0.4783750000000  0.5499300000000  0.4842400000000 1.0
C      1  0.4436800000000  0.5122050000000  0.4797830000000 1.0
C      1  0.4804910000000  0.4489920000000  0.5236140000000 1.0
C      1  0.4909560000000  0.5256130000000  0.4401300000000 1.0
C      1  0.5054120000000  0.5273320000000  0.5009010000000 1.0
C      1  0.5370000000000  0.4805670000000  0.5499510000000 1.0
C      1  0.5147150000000  0.4752330000000  0.5635870000000 1.0
C      1  0.4343410000000  0.5023820000000  0.5236710000000 1.0
C      1  0.4967400000000  0.5311020000000  0.5600980000000 1.0
C      1  0.4257050000000  0.4679080000000  0.4923490000000 1.0
C      1  0.5474630000000  0.4693990000000  0.5253060000000 1.0
C      1  0.4266250000000  0.4965400000000  0.4967830000000 1.0
C      1  0.5238930000000  0.5026710000000  0.4358260000000 1.0
C      1  0.4808210000000  0.5111010000000  0.5702140000000 1.0
C      1  0.5586910000000  0.5413620000000  0.4903330000000 1.0
C      1  0.4729060000000  0.4737620000000  0.5399300000000 1.0
C      1  0.5195370000000  0.4899090000000  0.5001630000000 1.0
C      1  0.5620200000000  0.5122390000000  0.5298650000000 1.0
C      1  0.4451050000000  0.4734570000000  0.4486720000000 1.0
C      1  0.5080850000000  0.5191760000000  0.4200550000000 1.0
C      1  0.4575280000000  0.4392280000000  0.5097960000000 1.0
C      1  0.5222300000000  0.5290400000000  0.5469690000000 1.0
C      1  0.5584910000000  0.5377960000000  0.5187600000000 1.0
C      1  0.4568210000000  0.5334650000000  0.4947900000000 1.0
C      1  0.4431060000000  0.4769730000000  0.5353420000000 1.0
C      1  0.5666280000000  0.4928710000000  0.4855020000000 1.0
C      1  0.5230380000000  0.5479180000000  0.4614630000000 1.0
C      1  0.5582200000000  0.4719400000000  0.4698370000000 1.0
C      1  0.5327240000000  0.5187350000000  0.4596830000000 1.0
C      1  0.5226280000000  0.5644840000000  0.5078360000000 1.0
C      1  0.5089680000000  0.5076160000000  0.4788540000000 1.0
C      1  0.5096140000000  0.5080240000000  0.5216500000000 1.0
C      1  0.5363870000000  0.4584530000000  0.4764340000000 1.0
C      1  0.5367870000000  0.5592560000000  0.4835910000000 1.0
C      1  0.4962240000000  0.5550850000000  0.5057180000000 1.0
C      1  0.4858890000000  0.5008720000000  0.4556700000000 1.0
C      1  0.4350750000000  0.4559050000000  0.5166870000000 1.0
C      1  0.4924060000000  0.4457550000000  0.4785700000000 1.0
C      1  0.5282270000000  0.4602810000000  0.5050640000000 1.0
C      1  0.4635080000000  0.4404080000000  0.4809260000000 1.0
C      1  0.4832170000000  0.5000020000000  0.5291180000000 1.0
C      1  0.4527610000000  0.5251990000000  0.5237090000000 1.0
C      1  0.5114200000000  0.4583380000000  0.4613230000000 1.0
C      1  0.5435330000000  0.5084900000000  0.5511310000000 1.0
C      1  0.5584070000000  0.5182110000000  0.4747150000000 1.0
C      1  0.5025430000000  0.4471300000000  0.5053400000000 1.0
C      1  0.5058810000000  0.4808800000000  0.4456850000000 1.0
C      1  0.4720640000000  0.5228370000000  0.5448920000000 1.0
C      1  0.4942630000000  0.5472560000000  0.4589710000000 1.0
C      1  0.4890750000000  0.4835760000000  0.5635580000000 1.0
C      1  0.4420270000000  0.4574240000000  0.4703040000000 1.0
C      1  0.4572190000000  0.4966100000000  0.4591660000000 1.0
END
