TITL C-24747-1344-4 0.0506500486967669 125000 -638.05428976369 0 0 93 (C1) n - 1
REM
REM in /rds/project/t2_vol4/rds-t2-cs072/BORA/CARBON/from-Arr/AIRSS/Generating-Clusters/GAP-ML-2020/Only-C1/SD-CG/HFTN-CG
REM
REM
REM
REM
REM
REM ./C.cell (11c1c37f851c82e70ff6c80c92926a4b)
REM AIRSS Version 0.9.1 bugfix July 2018 build 013d7b7c2542+ Fri, 06 Jul 2018 19:26:36 +0100
REM compiler GCC version 9.3.0
REM options -cpp -mtune=generic -march=x86-64 -g -O0
REM seed 2057770492 -2136063086 -727814008 225612433 -1360969391 -697769042 -216015811 -1772722835 919941729 -1632064244 -9311052 -192717024 452850837 -1234709910 568165706 -1800741761 -1505292087 -40936405 -1998425378 -1720261249 -1672962383 396743 1343203923 474387996 -1155805546 157580878 1393113585 1404182024 -696944718 -1029404100 737119627 1854430674 1320795066
REM
CELL 1.54180   50.00000   50.00000   50.00000   90.00000   90.00000   90.00000
LATT -1
SFAC C  
C      1  0.5410050000000  0.5627980000000  0.4685270000000 1.0
C      1  0.5338830000000  0.5481510000000  0.5114430000000 1.0
C      1  0.5274200000000  0.4771610000000  0.5325310000000 1.0
C      1  0.5098570000000  0.4813880000000  0.4887660000000 1.0
C      1  0.4460820000000  0.5322330000000  0.5444690000000 1.0
C      1  0.4534650000000  0.5474570000000  0.4550010000000 1.0
C      1  0.4463390000000  0.4296510000000  0.5320320000000 1.0
C      1  0.4576130000000  0.5094610000000  0.4202570000000 1.0
C      1  0.5075830000000  0.4322690000000  0.5051510000000 1.0
C      1  0.4546780000000  0.5645550000000  0.5089870000000 1.0
C      1  0.5312330000000  0.4389380000000  0.5475760000000 1.0
C      1  0.5451840000000  0.5281870000000  0.5819150000000 1.0
C      1  0.4921360000000  0.4775350000000  0.4666540000000 1.0
C      1  0.5631820000000  0.4762840000000  0.4626030000000 1.0
C      1  0.4264190000000  0.5316610000000  0.5238400000000 1.0
C      1  0.5143070000000  0.5886090000000  0.5207760000000 1.0
C      1  0.5194090000000  0.5089540000000  0.4867660000000 1.0
C      1  0.5013840000000  0.5790990000000  0.4969860000000 1.0
C      1  0.4926940000000  0.5245780000000  0.4476560000000 1.0
C      1  0.5715750000000  0.4804650000000  0.5088060000000 1.0
C      1  0.5396840000000  0.5022150000000  0.4160500000000 1.0
C      1  0.4679020000000  0.4881540000000  0.5165920000000 1.0
C      1  0.4973820000000  0.4955360000000  0.4425600000000 1.0
C      1  0.5794990000000  0.5167680000000  0.5329100000000 1.0
C      1  0.4263160000000  0.5029530000000  0.4733470000000 1.0
C      1  0.5354410000000  0.5178490000000  0.5108290000000 1.0
C      1  0.5099870000000  0.5460830000000  0.4394490000000 1.0
C      1  0.4539370000000  0.5087850000000  0.5610200000000 1.0
C      1  0.5375670000000  0.5411090000000  0.4486750000000 1.0
C      1  0.5910350000000  0.5387610000000  0.5225680000000 1.0
C      1  0.4060250000000  0.5031510000000  0.4906890000000 1.0
C      1  0.4693090000000  0.5153160000000  0.4861100000000 1.0
C      1  0.4966890000000  0.4492930000000  0.4550130000000 1.0
C      1  0.4687150000000  0.4868530000000  0.4853170000000 1.0
C      1  0.4237350000000  0.4449500000000  0.5401100000000 1.0
C      1  0.5185580000000  0.4663500000000  0.5595860000000 1.0
C      1  0.5775610000000  0.5193120000000  0.4825130000000 1.0
C      1  0.4982680000000  0.5691610000000  0.4519600000000 1.0
C      1  0.4915230000000  0.5108970000000  0.5323850000000 1.0
C      1  0.4798470000000  0.4277630000000  0.4660330000000 1.0
C      1  0.5532590000000  0.4450880000000  0.5298800000000 1.0
C      1  0.5264260000000  0.5688960000000  0.5358100000000 1.0
C      1  0.4247840000000  0.4628620000000  0.5620770000000 1.0
C      1  0.5112940000000  0.5517140000000  0.5526450000000 1.0
C      1  0.4165470000000  0.5066210000000  0.5166290000000 1.0
C      1  0.5545660000000  0.5576420000000  0.4926050000000 1.0
C      1  0.5803540000000  0.5444620000000  0.4954070000000 1.0
C      1  0.5306940000000  0.4322310000000  0.4858570000000 1.0
C      1  0.4902790000000  0.4174110000000  0.5476240000000 1.0
C      1  0.5037830000000  0.5487030000000  0.5033630000000 1.0
C      1  0.4721280000000  0.5765170000000  0.4903740000000 1.0
C      1  0.5063820000000  0.5084270000000  0.5780340000000 1.0
C      1  0.5075620000000  0.4643520000000  0.5132440000000 1.0
C      1  0.4958500000000  0.5268480000000  0.4823130000000 1.0
C      1  0.5586030000000  0.5179340000000  0.4075060000000 1.0
C      1  0.4713810000000  0.5677770000000  0.4634230000000 1.0
C      1  0.5527170000000  0.5025670000000  0.5744840000000 1.0
C      1  0.5165300000000  0.5778390000000  0.4709660000000 1.0
C      1  0.5399020000000  0.4666370000000  0.4503420000000 1.0
C      1  0.4672850000000  0.4413770000000  0.4465990000000 1.0
C      1  0.4487010000000  0.4629610000000  0.4464900000000 1.0
C      1  0.4772170000000  0.4898280000000  0.4209070000000 1.0
C      1  0.5130680000000  0.4229610000000  0.5338450000000 1.0
C      1  0.4435540000000  0.5294930000000  0.4773430000000 1.0
C      1  0.4715540000000  0.4365930000000  0.5425760000000 1.0
C      1  0.4346410000000  0.4861830000000  0.5251220000000 1.0
C      1  0.4365320000000  0.4865080000000  0.5552520000000 1.0
C      1  0.4796950000000  0.4257790000000  0.4936870000000 1.0
C      1  0.5602860000000  0.4735370000000  0.5341530000000 1.0
C      1  0.4515630000000  0.4813970000000  0.4254940000000 1.0
C      1  0.4346090000000  0.4526680000000  0.4930740000000 1.0
C      1  0.4418490000000  0.4752320000000  0.4732950000000 1.0
C      1  0.4530230000000  0.4328400000000  0.5037990000000 1.0
C      1  0.5530710000000  0.4415940000000  0.5002470000000 1.0
C      1  0.4819870000000  0.4647330000000  0.5305490000000 1.0
C      1  0.5658050000000  0.5069070000000  0.4597780000000 1.0
C      1  0.4210880000000  0.4610820000000  0.5163080000000 1.0
C      1  0.4641750000000  0.5514540000000  0.5331340000000 1.0
C      1  0.4914240000000  0.5412590000000  0.5311740000000 1.0
C      1  0.5357030000000  0.5116360000000  0.4615840000000 1.0
C      1  0.4658420000000  0.5304740000000  0.4363510000000 1.0
C      1  0.5250060000000  0.4440550000000  0.4595350000000 1.0
C      1  0.5265190000000  0.4912570000000  0.4393110000000 1.0
C      1  0.4349670000000  0.5463300000000  0.5005800000000 1.0
C      1  0.4903150000000  0.4724400000000  0.5572000000000 1.0
C      1  0.4836770000000  0.5010940000000  0.5613040000000 1.0
C      1  0.5205660000000  0.5050880000000  0.5311930000000 1.0
C      1  0.5656660000000  0.5078450000000  0.5068720000000 1.0
C      1  0.5689950000000  0.4962640000000  0.5517200000000 1.0
C      1  0.5611870000000  0.5268190000000  0.4341740000000 1.0
C      1  0.5669280000000  0.4634670000000  0.4876250000000 1.0
C      1  0.5193510000000  0.5355870000000  0.5750260000000 1.0
C      1  0.5266860000000  0.4880370000000  0.5776540000000 1.0
END
