TITL C-24114-7249-4 0.0168413414974322 125000 -152.77182678023 0 0 24 (C1) n - 1
REM
REM in /rds/project/t2_vol4/rds-t2-cs072/BORA/CARBON/from-Arr/AIRSS/Generating-Clusters/GAP-ML-2020/Only-C1/SD-CG/HFTN-CG
REM
REM
REM
REM
REM
REM ./C.cell (11c1c37f851c82e70ff6c80c92926a4b)
REM AIRSS Version 0.9.1 bugfix July 2018 build 013d7b7c2542+ Fri, 06 Jul 2018 19:26:36 +0100
REM compiler GCC version 9.3.0
REM options -cpp -mtune=generic -march=x86-64 -g -O0
REM seed -2109205701 -1361553454 1248711837 1295697968 -1684413961 -1053920033 -1247176242 -1510363512 -949591935 -1736869143 1264480102 -1433413626 1124052531 561597188 457443919 -749528338 -723963284 1615578963 1646837960 -960059396 1087437466 262585382 -420240982 989338271 -2021292433 -150567081 -1740196114 -179593175 -891545450 -881948253 925673216 1459687631 1654390909
REM
CELL 1.54180   50.00000   50.00000   50.00000   90.00000   90.00000   90.00000
LATT -1
SFAC C  
C      1  0.4835790000000  0.5343760000000  0.5229430000000 1.0
C      1  0.5205710000000  0.4589690000000  0.5005860000000 1.0
C      1  0.4941300000000  0.4970780000000  0.4458680000000 1.0
C      1  0.4982390000000  0.5050650000000  0.4930910000000 1.0
C      1  0.4703480000000  0.5112070000000  0.5305720000000 1.0
C      1  0.5465490000000  0.5452930000000  0.5080020000000 1.0
C      1  0.4574120000000  0.4947030000000  0.5457240000000 1.0
C      1  0.4749250000000  0.5142040000000  0.4543900000000 1.0
C      1  0.4764140000000  0.4803590000000  0.5314940000000 1.0
C      1  0.4751410000000  0.4638130000000  0.5075400000000 1.0
C      1  0.4669710000000  0.5300360000000  0.4727840000000 1.0
C      1  0.5175090000000  0.5057030000000  0.5157260000000 1.0
C      1  0.4938730000000  0.4720800000000  0.4617440000000 1.0
C      1  0.5156720000000  0.4600760000000  0.4739040000000 1.0
C      1  0.5245020000000  0.4786720000000  0.5223010000000 1.0
C      1  0.5103540000000  0.5296860000000  0.5322750000000 1.0
C      1  0.4830490000000  0.5289980000000  0.4952380000000 1.0
C      1  0.4983320000000  0.4475610000000  0.5156490000000 1.0
C      1  0.5018570000000  0.4678260000000  0.5373750000000 1.0
C      1  0.5367930000000  0.5230540000000  0.4953660000000 1.0
C      1  0.5305070000000  0.5485610000000  0.5319340000000 1.0
C      1  0.5219500000000  0.5130330000000  0.4736310000000 1.0
C      1  0.5201010000000  0.5091600000000  0.4463870000000 1.0
C      1  0.4812210000000  0.4804890000000  0.4854730000000 1.0
END
