TITL C-240318-474-6 0.265084988209712 125000 -629.745429357774 0 0 91 (C1) n - 1
REM
REM in /rds/project/t2_vol4/rds-t2-cs072/BORA/CARBON/from-Arr/AIRSS/Generating-Clusters/GAP-ML-2020/Only-C1/SD-CG/HFTN-CG
REM
REM
REM
REM
REM
REM ./C.cell (11c1c37f851c82e70ff6c80c92926a4b)
REM AIRSS Version 0.9.1 bugfix July 2018 build 013d7b7c2542+ Fri, 06 Jul 2018 19:26:36 +0100
REM compiler GCC version 9.3.0
REM options -cpp -mtune=generic -march=x86-64 -g -O0
REM seed -1296985430 -1934534633 1552676111 -1287631801 679989310 -739252590 -1940273429 1913311622 1123562330 -2080232085 -1191672734 996476436 1233103966 -1091090778 1844533186 -1205241092 -1232490243 -1229393581 1995671746 1968969249 115348167 588791190 -1388518718 1647757560 253620911 -516043811 748212995 1914105646 446029681 -173244280 -1327412006 -2035930222 -444351701
REM
CELL 1.54180   50.00000   50.00000   50.00000   90.00000   90.00000   90.00000
LATT -1
SFAC C  
C      1  0.5538050000000  0.5180850000000  0.4942190000000 1.0
C      1  0.5470410000000  0.5575550000000  0.5184650000000 1.0
C      1  0.4270410000000  0.5483120000000  0.4976950000000 1.0
C      1  0.5294360000000  0.5105730000000  0.4747150000000 1.0
C      1  0.4926420000000  0.5242810000000  0.4487560000000 1.0
C      1  0.5445700000000  0.5278560000000  0.5209180000000 1.0
C      1  0.4746150000000  0.5177010000000  0.5991750000000 1.0
C      1  0.4527990000000  0.5542240000000  0.4597350000000 1.0
C      1  0.5495660000000  0.5359900000000  0.4346230000000 1.0
C      1  0.5137130000000  0.5739490000000  0.5289160000000 1.0
C      1  0.4699350000000  0.5760820000000  0.4712350000000 1.0
C      1  0.5336950000000  0.4273380000000  0.4723560000000 1.0
C      1  0.4741820000000  0.5210840000000  0.4938870000000 1.0
C      1  0.5282300000000  0.5786690000000  0.4806340000000 1.0
C      1  0.4623160000000  0.5009740000000  0.5796770000000 1.0
C      1  0.4481220000000  0.4337100000000  0.5013930000000 1.0
C      1  0.5538560000000  0.4289800000000  0.5132510000000 1.0
C      1  0.5431510000000  0.4682060000000  0.5594480000000 1.0
C      1  0.4902200000000  0.5725550000000  0.4513020000000 1.0
C      1  0.5584700000000  0.4328670000000  0.4848420000000 1.0
C      1  0.4254690000000  0.4665270000000  0.4881210000000 1.0
C      1  0.4259890000000  0.4911280000000  0.5395790000000 1.0
C      1  0.5263610000000  0.4238420000000  0.5196780000000 1.0
C      1  0.5786640000000  0.4805240000000  0.4749470000000 1.0
C      1  0.4498940000000  0.4993630000000  0.4522250000000 1.0
C      1  0.4884280000000  0.4809500000000  0.4768680000000 1.0
C      1  0.5489540000000  0.4884470000000  0.4347570000000 1.0
C      1  0.4936150000000  0.4848390000000  0.5524730000000 1.0
C      1  0.4270500000000  0.5402630000000  0.5246650000000 1.0
C      1  0.4722050000000  0.4252030000000  0.5107710000000 1.0
C      1  0.4879590000000  0.5377050000000  0.5894840000000 1.0
C      1  0.4132770000000  0.4923920000000  0.4836410000000 1.0
C      1  0.4900630000000  0.4222680000000  0.4878030000000 1.0
C      1  0.4311490000000  0.5390360000000  0.4710240000000 1.0
C      1  0.5363930000000  0.5119870000000  0.4250430000000 1.0
C      1  0.5167110000000  0.4173450000000  0.4937170000000 1.0
C      1  0.5200190000000  0.4825430000000  0.4710510000000 1.0
C      1  0.5036430000000  0.4813190000000  0.4257670000000 1.0
C      1  0.4270980000000  0.5102910000000  0.4652970000000 1.0
C      1  0.5162210000000  0.5141450000000  0.5224260000000 1.0
C      1  0.5086540000000  0.4378860000000  0.5382010000000 1.0
C      1  0.4452380000000  0.4486530000000  0.4768280000000 1.0
C      1  0.5947080000000  0.4476000000000  0.5057340000000 1.0
C      1  0.4411550000000  0.5170470000000  0.5360160000000 1.0
C      1  0.5082160000000  0.5822530000000  0.5011410000000 1.0
C      1  0.3993960000000  0.4912000000000  0.5306070000000 1.0
C      1  0.4900400000000  0.4365070000000  0.4625180000000 1.0
C      1  0.5708480000000  0.4964100000000  0.4520750000000 1.0
C      1  0.5384630000000  0.5076360000000  0.5633950000000 1.0
C      1  0.4760590000000  0.5488820000000  0.4426610000000 1.0
C      1  0.5467630000000  0.4875410000000  0.5797110000000 1.0
C      1  0.4689870000000  0.4569690000000  0.4622840000000 1.0
C      1  0.4607990000000  0.5078080000000  0.5144620000000 1.0
C      1  0.5113630000000  0.5307820000000  0.4726060000000 1.0
C      1  0.5188140000000  0.5745110000000  0.4534580000000 1.0
C      1  0.5165540000000  0.4659820000000  0.5442170000000 1.0
C      1  0.5646280000000  0.5399020000000  0.4786680000000 1.0
C      1  0.5644990000000  0.4909250000000  0.4987470000000 1.0
C      1  0.4423000000000  0.5619440000000  0.5169440000000 1.0
C      1  0.5398700000000  0.5768890000000  0.5373820000000 1.0
C      1  0.5662090000000  0.4654350000000  0.5413480000000 1.0
C      1  0.4747720000000  0.5066010000000  0.4664610000000 1.0
C      1  0.4437820000000  0.4678760000000  0.5352430000000 1.0
C      1  0.4912180000000  0.4760510000000  0.5053410000000 1.0
C      1  0.5704390000000  0.4902510000000  0.5285900000000 1.0
C      1  0.4313970000000  0.4532660000000  0.5137130000000 1.0
C      1  0.4803080000000  0.4351540000000  0.5376140000000 1.0
C      1  0.4594280000000  0.5214400000000  0.5583880000000 1.0
C      1  0.4591740000000  0.4746280000000  0.4397920000000 1.0
C      1  0.4726660000000  0.4757410000000  0.5705550000000 1.0
C      1  0.5013460000000  0.5263000000000  0.4987480000000 1.0
C      1  0.5342920000000  0.5576970000000  0.4381390000000 1.0
C      1  0.4729130000000  0.4844550000000  0.5250070000000 1.0
C      1  0.4689270000000  0.5705410000000  0.5217220000000 1.0
C      1  0.4803900000000  0.5807490000000  0.4975340000000 1.0
C      1  0.5504540000000  0.5626930000000  0.4895810000000 1.0
C      1  0.4873290000000  0.5362640000000  0.5585320000000 1.0
C      1  0.5180750000000  0.4820060000000  0.5165300000000 1.0
C      1  0.3947240000000  0.4979660000000  0.5056910000000 1.0
C      1  0.5079390000000  0.5124200000000  0.5514360000000 1.0
C      1  0.5696670000000  0.5265290000000  0.4535390000000 1.0
C      1  0.4891660000000  0.5616020000000  0.5404070000000 1.0
C      1  0.4785050000000  0.4731590000000  0.4212830000000 1.0
C      1  0.5362310000000  0.4739710000000  0.4955740000000 1.0
C      1  0.5816340000000  0.4521410000000  0.4816690000000 1.0
C      1  0.4619890000000  0.4529340000000  0.5536690000000 1.0
C      1  0.5250870000000  0.4693640000000  0.4431460000000 1.0
C      1  0.5081380000000  0.5095710000000  0.4271910000000 1.0
C      1  0.5575830000000  0.5123060000000  0.5417400000000 1.0
C      1  0.5174540000000  0.4409510000000  0.4533390000000 1.0
C      1  0.5748440000000  0.4435040000000  0.5262470000000 1.0
END
