TITL C-240323-531-2 145.273034112856 125000 -172.701493062918 0 0 27 (C1) n - 1
REM
REM in /rds/project/t2_vol4/rds-t2-cs072/BORA/CARBON/from-Arr/AIRSS/Generating-Clusters/GAP-ML-2020/Only-C1/SD-CG/HFTN-CG
REM
REM
REM
REM
REM
REM ./C.cell (11c1c37f851c82e70ff6c80c92926a4b)
REM AIRSS Version 0.9.1 bugfix July 2018 build 013d7b7c2542+ Fri, 06 Jul 2018 19:26:36 +0100
REM compiler GCC version 9.3.0
REM options -cpp -mtune=generic -march=x86-64 -g -O0
REM seed 802384521 -627442253 457478798 2101704232 -1073547810 732096710 -1638103185 647317307 970184100 1282706436 1488454559 -2132040133 -1289345579 -939195288 1975668478 -2053138273 -2074188770 1716824725 1344364769 967390114 -1971210806 370697953 401531194 174170149 60636803 -1731351109 -430870295 689346857 -2109620779 -758181784 -1922466726 -1170214983 -1795771450
REM
CELL 1.54180   50.00000   50.00000   50.00000   90.00000   90.00000   90.00000
LATT -1
SFAC C  
C      1  0.5002060000000  0.5082270000000  0.5119160000000 1.0
C      1  0.4787250000000  0.4925020000000  0.5243630000000 1.0
C      1  0.4610150000000  0.4508730000000  0.5160790000000 1.0
C      1  0.4982400000000  0.5100340000000  0.4427570000000 1.0
C      1  0.5361320000000  0.5523910000000  0.4892030000000 1.0
C      1  0.4906080000000  0.4861820000000  0.5495360000000 1.0
C      1  0.5101970000000  0.5062280000000  0.5575630000000 1.0
C      1  0.5213060000000  0.5498200000000  0.5333820000000 1.0
C      1  0.4625230000000  0.4771150000000  0.4582390000000 1.0
C      1  0.4717450000000  0.5298970000000  0.4739980000000 1.0
C      1  0.4827890000000  0.4891340000000  0.4496210000000 1.0
C      1  0.4604440000000  0.4774530000000  0.5097330000000 1.0
C      1  0.5177840000000  0.4821640000000  0.5461010000000 1.0
C      1  0.5157580000000  0.5172410000000  0.4658100000000 1.0
C      1  0.5034060000000  0.4341420000000  0.5157460000000 1.0
C      1  0.5102870000000  0.5254810000000  0.5363110000000 1.0
C      1  0.5317260000000  0.5628100000000  0.5129770000000 1.0
C      1  0.5662310000000  0.4986080000000  0.4872630000000 1.0
C      1  0.4959330000000  0.5191350000000  0.4868360000000 1.0
C      1  0.5502160000000  0.4876600000000  0.5031860000000 1.0
C      1  0.4546200000000  0.4882920000000  0.4835660000000 1.0
C      1  0.5346380000000  0.5370120000000  0.4686280000000 1.0
C      1  0.5152580000000  0.4559760000000  0.5124180000000 1.0
C      1  0.5240160000000  0.4827630000000  0.5152130000000 1.0
C      1  0.4765340000000  0.4316960000000  0.5217460000000 1.0
C      1  0.4793740000000  0.5317610000000  0.4461220000000 1.0
C      1  0.4502890000000  0.5154020000000  0.4816860000000 1.0
END
