TITL C-24736-1361-8 -0.230462671512001 125000 -628.545095107262 0 0 91 (C1) n - 1
REM
REM in /rds/project/t2_vol4/rds-t2-cs072/BORA/CARBON/from-Arr/AIRSS/Generating-Clusters/GAP-ML-2020/Only-C1/SD-CG/HFTN-CG
REM
REM
REM
REM
REM
REM ./C.cell (11c1c37f851c82e70ff6c80c92926a4b)
REM AIRSS Version 0.9.1 bugfix July 2018 build 013d7b7c2542+ Fri, 06 Jul 2018 19:26:36 +0100
REM compiler GCC version 9.3.0
REM options -cpp -mtune=generic -march=x86-64 -g -O0
REM seed -2112227833 917664201 -619820653 -1654170894 598365131 1662871638 -1959274194 -1344609045 1149439622 -426599566 -1443468460 471197960 1847291306 1902685347 150813394 683522961 -701395631 1005933155 1530652206 1756254119 1569729475 -1866281737 -2067494190 945372673 -935115432 793535361 1252634486 -73462527 1917080684 108573008 -15526752 1724047526 -1937584111
REM
CELL 1.54180   50.00000   50.00000   50.00000   90.00000   90.00000   90.00000
LATT -1
SFAC C  
C      1  0.4809500000000  0.5023180000000  0.4634200000000 1.0
C      1  0.5002930000000  0.5195890000000  0.5399860000000 1.0
C      1  0.4909100000000  0.4960220000000  0.5200400000000 1.0
C      1  0.4508180000000  0.4700900000000  0.5073790000000 1.0
C      1  0.5427620000000  0.4552200000000  0.4899900000000 1.0
C      1  0.4609440000000  0.5856340000000  0.4949390000000 1.0
C      1  0.4895350000000  0.4392910000000  0.4439920000000 1.0
C      1  0.4866900000000  0.4666350000000  0.5720470000000 1.0
C      1  0.5111430000000  0.5072360000000  0.4987860000000 1.0
C      1  0.5138510000000  0.5651250000000  0.4521060000000 1.0
C      1  0.4717020000000  0.5404010000000  0.4996290000000 1.0
C      1  0.5732610000000  0.4768400000000  0.5317220000000 1.0
C      1  0.4373760000000  0.5156230000000  0.5208930000000 1.0
C      1  0.4884980000000  0.5232840000000  0.3995210000000 1.0
C      1  0.5424220000000  0.4418460000000  0.5155940000000 1.0
C      1  0.4746790000000  0.5853520000000  0.5182060000000 1.0
C      1  0.4958050000000  0.5780540000000  0.5519980000000 1.0
C      1  0.5291530000000  0.5166750000000  0.4261600000000 1.0
C      1  0.4810380000000  0.4215250000000  0.4639070000000 1.0
C      1  0.4265810000000  0.4935190000000  0.5378810000000 1.0
C      1  0.5016210000000  0.5378900000000  0.4937910000000 1.0
C      1  0.4865810000000  0.4147470000000  0.5340780000000 1.0
C      1  0.5061430000000  0.5045340000000  0.4109780000000 1.0
C      1  0.5355260000000  0.5100240000000  0.5132590000000 1.0
C      1  0.5374450000000  0.4632820000000  0.5597450000000 1.0
C      1  0.5107880000000  0.4519670000000  0.5637240000000 1.0
C      1  0.4986950000000  0.4243900000000  0.4868730000000 1.0
C      1  0.4851410000000  0.4925690000000  0.5838140000000 1.0
C      1  0.5078600000000  0.4279290000000  0.5486270000000 1.0
C      1  0.4873960000000  0.5398620000000  0.4212420000000 1.0
C      1  0.4541650000000  0.5437830000000  0.4606060000000 1.0
C      1  0.5039520000000  0.4105160000000  0.5103580000000 1.0
C      1  0.5265260000000  0.4654440000000  0.4289580000000 1.0
C      1  0.4450780000000  0.4868280000000  0.5588210000000 1.0
C      1  0.4939260000000  0.4551550000000  0.4915520000000 1.0
C      1  0.4625170000000  0.4643350000000  0.5562890000000 1.0
C      1  0.5500660000000  0.5574240000000  0.4440550000000 1.0
C      1  0.5725670000000  0.5257190000000  0.4800570000000 1.0
C      1  0.4638460000000  0.4594820000000  0.4817520000000 1.0
C      1  0.4799610000000  0.5313260000000  0.4497950000000 1.0
C      1  0.5195470000000  0.5565760000000  0.5120260000000 1.0
C      1  0.4929770000000  0.5303880000000  0.5667920000000 1.0
C      1  0.5030300000000  0.5782320000000  0.5248120000000 1.0
C      1  0.5100080000000  0.4952930000000  0.4712260000000 1.0
C      1  0.5432150000000  0.5635360000000  0.4937160000000 1.0
C      1  0.5515240000000  0.4729410000000  0.4361440000000 1.0
C      1  0.4933910000000  0.4651150000000  0.5193170000000 1.0
C      1  0.4600160000000  0.5616240000000  0.4816660000000 1.0
C      1  0.5850190000000  0.5113030000000  0.5014360000000 1.0
C      1  0.4680900000000  0.5783460000000  0.5466400000000 1.0
C      1  0.5483420000000  0.4884070000000  0.5691220000000 1.0
C      1  0.4651220000000  0.5134170000000  0.4865050000000 1.0
C      1  0.5535460000000  0.4570710000000  0.5367290000000 1.0
C      1  0.5255930000000  0.4220710000000  0.5256350000000 1.0
C      1  0.4649400000000  0.5334840000000  0.5692460000000 1.0
C      1  0.5558940000000  0.5125520000000  0.4620110000000 1.0
C      1  0.5618780000000  0.4846770000000  0.4584510000000 1.0
C      1  0.4622330000000  0.4257330000000  0.5252800000000 1.0
C      1  0.5064870000000  0.5119900000000  0.5838430000000 1.0
C      1  0.4220940000000  0.5161500000000  0.4952570000000 1.0
C      1  0.4222560000000  0.4756050000000  0.5150550000000 1.0
C      1  0.4576260000000  0.4287130000000  0.4784690000000 1.0
C      1  0.5105240000000  0.5577370000000  0.4246020000000 1.0
C      1  0.4599960000000  0.5058460000000  0.5745080000000 1.0
C      1  0.5690400000000  0.5238330000000  0.5457440000000 1.0
C      1  0.5018760000000  0.4780310000000  0.4199750000000 1.0
C      1  0.5799460000000  0.4841090000000  0.5050670000000 1.0
C      1  0.5253220000000  0.5329060000000  0.5328930000000 1.0
C      1  0.4628010000000  0.4782780000000  0.4561620000000 1.0
C      1  0.5337040000000  0.5117860000000  0.5759090000000 1.0
C      1  0.4526710000000  0.5402000000000  0.5245090000000 1.0
C      1  0.5393890000000  0.5702750000000  0.4651930000000 1.0
C      1  0.4792450000000  0.4643130000000  0.4341540000000 1.0
C      1  0.5652200000000  0.5473660000000  0.4985820000000 1.0
C      1  0.4495340000000  0.4179910000000  0.5020640000000 1.0
C      1  0.5431360000000  0.5317050000000  0.5564510000000 1.0
C      1  0.4651470000000  0.4541030000000  0.5290810000000 1.0
C      1  0.4622070000000  0.4974390000000  0.5101470000000 1.0
C      1  0.4561960000000  0.5527020000000  0.5494400000000 1.0
C      1  0.5168640000000  0.4644440000000  0.4754530000000 1.0
C      1  0.5353620000000  0.5451950000000  0.4226100000000 1.0
C      1  0.5261640000000  0.5158380000000  0.4559310000000 1.0
C      1  0.4113490000000  0.4900660000000  0.4927460000000 1.0
C      1  0.4365480000000  0.4935440000000  0.4559100000000 1.0
C      1  0.5777060000000  0.5320340000000  0.5202110000000 1.0
C      1  0.4395620000000  0.5194990000000  0.4716050000000 1.0
C      1  0.5653010000000  0.4711790000000  0.4840370000000 1.0
C      1  0.4124910000000  0.4842910000000  0.4657600000000 1.0
C      1  0.5053850000000  0.5393260000000  0.4638710000000 1.0
C      1  0.5706170000000  0.4963350000000  0.5519960000000 1.0
C      1  0.5156600000000  0.4489200000000  0.4494370000000 1.0
END
