TITL C-240346-588-2 0.0829958186533044 125000 -108.970652180695 0 0 17 (C1) n - 1
REM
REM in /rds/project/t2_vol4/rds-t2-cs072/BORA/CARBON/from-Arr/AIRSS/Generating-Clusters/GAP-ML-2020/Only-C1/SD-CG/HFTN-CG
REM
REM
REM
REM
REM
REM ./C.cell (11c1c37f851c82e70ff6c80c92926a4b)
REM AIRSS Version 0.9.1 bugfix July 2018 build 013d7b7c2542+ Fri, 06 Jul 2018 19:26:36 +0100
REM compiler GCC version 9.3.0
REM options -cpp -mtune=generic -march=x86-64 -g -O0
REM seed -706390257 -1423945867 -1974956932 -1465578387 -2144035710 1945741796 2130682358 140443133 -1348994961 1741667445 -1931943742 885875112 -1269292562 -1710961038 -1603679759 573465065 -180596768 -1251561490 326465316 -1772752895 559241483 477968752 129665951 1115869412 -984235793 -76894016 752031416 -804322914 -722293221 193550611 356118020 1751508576 1674654712
REM
CELL 1.54180   50.00000   50.00000   50.00000   90.00000   90.00000   90.00000
LATT -1
SFAC C  
C      1  0.4517820000000  0.5163950000000  0.4838980000000 1.0
C      1  0.4909610000000  0.5126440000000  0.5142990000000 1.0
C      1  0.5221220000000  0.4937240000000  0.4842830000000 1.0
C      1  0.4814330000000  0.4711320000000  0.5418090000000 1.0
C      1  0.5312990000000  0.4751890000000  0.5451740000000 1.0
C      1  0.5326180000000  0.4733260000000  0.5023080000000 1.0
C      1  0.4896380000000  0.5434130000000  0.4794570000000 1.0
C      1  0.4318040000000  0.5087070000000  0.4708130000000 1.0
C      1  0.5070960000000  0.4618970000000  0.5377790000000 1.0
C      1  0.4816900000000  0.4948600000000  0.5318450000000 1.0
C      1  0.4750710000000  0.5262740000000  0.4948300000000 1.0
C      1  0.5160550000000  0.4987840000000  0.4582210000000 1.0
C      1  0.5025950000000  0.5474320000000  0.4571740000000 1.0
C      1  0.5183840000000  0.5102980000000  0.5079770000000 1.0
C      1  0.5104200000000  0.5222980000000  0.4502620000000 1.0
C      1  0.5360400000000  0.4922680000000  0.5241290000000 1.0
C      1  0.5209920000000  0.4513570000000  0.5157440000000 1.0
END
