TITL C-240318-474-9 -0.0146134268746688 125000 -160.323640268187 0 0 25 (C1) n - 1
REM
REM in /rds/project/t2_vol4/rds-t2-cs072/BORA/CARBON/from-Arr/AIRSS/Generating-Clusters/GAP-ML-2020/Only-C1/SD-CG/HFTN-CG
REM
REM
REM
REM
REM
REM ./C.cell (11c1c37f851c82e70ff6c80c92926a4b)
REM AIRSS Version 0.9.1 bugfix July 2018 build 013d7b7c2542+ Fri, 06 Jul 2018 19:26:36 +0100
REM compiler GCC version 9.3.0
REM options -cpp -mtune=generic -march=x86-64 -g -O0
REM seed -1656400560 200632367 1307815748 1262934751 1906537963 -1526623224 1320027670 6384601 -345155005 -347207497 -104279344 1325269377 -2058871071 1020908499 -88072837 1767487042 77858007 1993592938 1157923919 -1279649098 1150927758 1846275718 -1887712446 -611560384 2125039922 402281074 1446442379 -1634638249 -142581117 1190102402 -549583499 -790028386 536947601
REM
CELL 1.54180   50.00000   50.00000   50.00000   90.00000   90.00000   90.00000
LATT -1
SFAC C  
C      1  0.4578260000000  0.4565650000000  0.5091340000000 1.0
C      1  0.5124400000000  0.5295550000000  0.5239200000000 1.0
C      1  0.5168790000000  0.5335110000000  0.4563160000000 1.0
C      1  0.5115880000000  0.5055420000000  0.4593900000000 1.0
C      1  0.4858330000000  0.4465040000000  0.4819010000000 1.0
C      1  0.5531490000000  0.4912840000000  0.5292410000000 1.0
C      1  0.4632430000000  0.4349230000000  0.4897090000000 1.0
C      1  0.4477870000000  0.4819500000000  0.5016140000000 1.0
C      1  0.5170120000000  0.5069220000000  0.5060990000000 1.0
C      1  0.5021980000000  0.5535000000000  0.5103220000000 1.0
C      1  0.5029580000000  0.4668550000000  0.4847040000000 1.0
C      1  0.4758460000000  0.5500880000000  0.5009080000000 1.0
C      1  0.4964560000000  0.4856320000000  0.5058200000000 1.0
C      1  0.5462650000000  0.4827690000000  0.4785620000000 1.0
C      1  0.5217420000000  0.5674590000000  0.4945840000000 1.0
C      1  0.5214940000000  0.4806240000000  0.4668730000000 1.0
C      1  0.5227040000000  0.5492270000000  0.4766210000000 1.0
C      1  0.5060860000000  0.5158510000000  0.5460210000000 1.0
C      1  0.5436340000000  0.4930210000000  0.5048460000000 1.0
C      1  0.4699700000000  0.4559960000000  0.5344470000000 1.0
C      1  0.4996010000000  0.4921810000000  0.5530730000000 1.0
C      1  0.4908450000000  0.4744060000000  0.5331640000000 1.0
C      1  0.4689780000000  0.4987610000000  0.4984650000000 1.0
C      1  0.4909160000000  0.5214920000000  0.4660450000000 1.0
C      1  0.4745490000000  0.5253830000000  0.4882210000000 1.0
END
