TITL C-24731-1372-2 0.0271140709338069 125000 -275.1952821489 0 0 42 (C1) n - 1
REM
REM in /rds/project/t2_vol4/rds-t2-cs072/BORA/CARBON/from-Arr/AIRSS/Generating-Clusters/GAP-ML-2020/Only-C1/SD-CG/HFTN-CG
REM
REM
REM
REM
REM
REM ./C.cell (11c1c37f851c82e70ff6c80c92926a4b)
REM AIRSS Version 0.9.1 bugfix July 2018 build 013d7b7c2542+ Fri, 06 Jul 2018 19:26:36 +0100
REM compiler GCC version 9.3.0
REM options -cpp -mtune=generic -march=x86-64 -g -O0
REM seed -2015375788 -1934261012 1894920363 -1689240106 282519600 175263276 1966195916 -1041462740 125479757 333781554 1448213525 184231218 95859795 -1933253981 -1772844959 -407041465 446121234 -1730775543 2118976471 638614083 1743560178 -1581744213 768500183 -68673419 -238904800 1199086362 1892385342 94625766 1503880697 -2118564432 1670297157 2124372225 1462077696
REM
CELL 1.54180   50.00000   50.00000   50.00000   90.00000   90.00000   90.00000
LATT -1
SFAC C  
C      1  0.4967030000000  0.4984510000000  0.5231280000000 1.0
C      1  0.4500100000000  0.5031590000000  0.5467560000000 1.0
C      1  0.5212520000000  0.5558060000000  0.4903110000000 1.0
C      1  0.4704610000000  0.5397660000000  0.5255940000000 1.0
C      1  0.5233930000000  0.5128570000000  0.4650780000000 1.0
C      1  0.4857190000000  0.4771710000000  0.5438210000000 1.0
C      1  0.5360870000000  0.5331870000000  0.4793090000000 1.0
C      1  0.4871700000000  0.5045280000000  0.4312750000000 1.0
C      1  0.5415160000000  0.4908880000000  0.5393680000000 1.0
C      1  0.4843930000000  0.4813300000000  0.4447570000000 1.0
C      1  0.5643870000000  0.4950380000000  0.4979570000000 1.0
C      1  0.5063250000000  0.5215660000000  0.4446480000000 1.0
C      1  0.4575980000000  0.5437650000000  0.4484280000000 1.0
C      1  0.4521870000000  0.5309500000000  0.5432270000000 1.0
C      1  0.4757500000000  0.4547390000000  0.5274870000000 1.0
C      1  0.5204880000000  0.5106030000000  0.5368740000000 1.0
C      1  0.4933910000000  0.5632970000000  0.4881930000000 1.0
C      1  0.5486770000000  0.4732330000000  0.4872440000000 1.0
C      1  0.5098800000000  0.4790890000000  0.5046460000000 1.0
C      1  0.5177770000000  0.5568810000000  0.5190970000000 1.0
C      1  0.4370370000000  0.4850900000000  0.5295960000000 1.0
C      1  0.4556340000000  0.4812530000000  0.4850230000000 1.0
C      1  0.5577760000000  0.5291090000000  0.5217820000000 1.0
C      1  0.4529460000000  0.4703280000000  0.5122560000000 1.0
C      1  0.4877610000000  0.4500310000000  0.4711580000000 1.0
C      1  0.4979270000000  0.4513350000000  0.4974310000000 1.0
C      1  0.5194600000000  0.4337310000000  0.5060250000000 1.0
C      1  0.5427480000000  0.4508480000000  0.5073680000000 1.0
C      1  0.4690610000000  0.4892280000000  0.5615150000000 1.0
C      1  0.5227450000000  0.4843190000000  0.4766750000000 1.0
C      1  0.5646570000000  0.5011180000000  0.5273710000000 1.0
C      1  0.5582610000000  0.5235610000000  0.4939170000000 1.0
C      1  0.4656780000000  0.4669440000000  0.4628450000000 1.0
C      1  0.5062010000000  0.4680750000000  0.4579450000000 1.0
C      1  0.4770870000000  0.5163420000000  0.5100890000000 1.0
C      1  0.4882830000000  0.5608170000000  0.5166040000000 1.0
C      1  0.4936330000000  0.4339650000000  0.5201720000000 1.0
C      1  0.4810490000000  0.5321220000000  0.4404640000000 1.0
C      1  0.5315070000000  0.5363270000000  0.5323210000000 1.0
C      1  0.4549240000000  0.5301860000000  0.4701200000000 1.0
C      1  0.4617510000000  0.5099150000000  0.4865820000000 1.0
C      1  0.5307070000000  0.4690510000000  0.5255400000000 1.0
END
