TITL C-24736-1361-3 0.0271275427968236 125000 -188.825926981298 0 0 29 (C1) n - 1
REM
REM in /rds/project/t2_vol4/rds-t2-cs072/BORA/CARBON/from-Arr/AIRSS/Generating-Clusters/GAP-ML-2020/Only-C1/SD-CG/HFTN-CG
REM
REM
REM
REM
REM
REM ./C.cell (11c1c37f851c82e70ff6c80c92926a4b)
REM AIRSS Version 0.9.1 bugfix July 2018 build 013d7b7c2542+ Fri, 06 Jul 2018 19:26:36 +0100
REM compiler GCC version 9.3.0
REM options -cpp -mtune=generic -march=x86-64 -g -O0
REM seed -535551636 1584543742 901246054 1474998470 1782984417 1810537310 1141519119 -1177102847 1897901518 1505249246 -1434213631 1413957708 -1252597576 -1174435495 -320682777 279088544 -986813114 -288348317 -328102908 -235366234 -885671914 -2037295737 -1426014048 717503012 -1533740903 -1789496883 1015161399 434692939 397795913 -1381364112 689936990 -1648748970 -1991486667
REM
CELL 1.54180   50.00000   50.00000   50.00000   90.00000   90.00000   90.00000
LATT -1
SFAC C  
C      1  0.4710640000000  0.5152820000000  0.5298010000000 1.0
C      1  0.4707840000000  0.5067920000000  0.4718730000000 1.0
C      1  0.5235360000000  0.5068960000000  0.4647170000000 1.0
C      1  0.4534430000000  0.4848970000000  0.4785020000000 1.0
C      1  0.4987990000000  0.5412240000000  0.5043830000000 1.0
C      1  0.4950590000000  0.4680500000000  0.4696950000000 1.0
C      1  0.5319110000000  0.5339510000000  0.4713050000000 1.0
C      1  0.5321020000000  0.4874210000000  0.4474770000000 1.0
C      1  0.4395590000000  0.5013960000000  0.4976190000000 1.0
C      1  0.5557270000000  0.5441880000000  0.4823190000000 1.0
C      1  0.5191080000000  0.4540650000000  0.4813480000000 1.0
C      1  0.5044510000000  0.4887980000000  0.5559300000000 1.0
C      1  0.4981180000000  0.4967070000000  0.4793780000000 1.0
C      1  0.4551790000000  0.5253490000000  0.4877720000000 1.0
C      1  0.4706130000000  0.4627810000000  0.4835730000000 1.0
C      1  0.5156260000000  0.5301120000000  0.5258720000000 1.0
C      1  0.4795300000000  0.4667380000000  0.5105810000000 1.0
C      1  0.5177830000000  0.4615650000000  0.4550810000000 1.0
C      1  0.5238820000000  0.4687210000000  0.5048180000000 1.0
C      1  0.4990270000000  0.5058220000000  0.5336460000000 1.0
C      1  0.5183370000000  0.4685100000000  0.5477860000000 1.0
C      1  0.4505530000000  0.4966340000000  0.5244210000000 1.0
C      1  0.5007840000000  0.4869250000000  0.5081380000000 1.0
C      1  0.5417820000000  0.5379570000000  0.5274690000000 1.0
C      1  0.5577610000000  0.5465990000000  0.5085030000000 1.0
C      1  0.5332440000000  0.4584500000000  0.5288920000000 1.0
C      1  0.4622060000000  0.4731490000000  0.5301490000000 1.0
C      1  0.4719570000000  0.5331890000000  0.5087450000000 1.0
C      1  0.5080750000000  0.5478300000000  0.4802090000000 1.0
END
