TITL C-240328-530-4 68.5629409505258 125000 -663.19887820845 0 0 96 (C1) n - 1
REM
REM in /rds/project/t2_vol4/rds-t2-cs072/BORA/CARBON/from-Arr/AIRSS/Generating-Clusters/GAP-ML-2020/Only-C1/SD-CG/HFTN-CG
REM
REM
REM
REM
REM
REM ./C.cell (11c1c37f851c82e70ff6c80c92926a4b)
REM AIRSS Version 0.9.1 bugfix July 2018 build 013d7b7c2542+ Fri, 06 Jul 2018 19:26:36 +0100
REM compiler GCC version 9.3.0
REM options -cpp -mtune=generic -march=x86-64 -g -O0
REM seed 83746093 645356202 288420083 -423505025 1144212926 470587757 1262039901 -761060284 827225429 -182940255 186597841 -77617212 -65953020 -784821096 874963326 1783295056 -831339700 -949065548 30130572 -2096720078 -1976026861 881459777 1074290200 -657605452 -1983323360 1551801319 -1774871271 1940428853 -1046968292 829272014 1548647967 -259129401 1051122517
REM
CELL 1.54180   50.00000   50.00000   50.00000   90.00000   90.00000   90.00000
LATT -1
SFAC C  
C      1  0.5392150000000  0.4704190000000  0.4256980000000 1.0
C      1  0.5762770000000  0.4698410000000  0.4692720000000 1.0
C      1  0.4871120000000  0.4609670000000  0.5679340000000 1.0
C      1  0.5754580000000  0.4771650000000  0.4989500000000 1.0
C      1  0.5340580000000  0.4939360000000  0.4754430000000 1.0
C      1  0.4696650000000  0.5722040000000  0.4727540000000 1.0
C      1  0.4783490000000  0.4278830000000  0.5095070000000 1.0
C      1  0.5717360000000  0.4921270000000  0.4522400000000 1.0
C      1  0.5695230000000  0.5070450000000  0.5429840000000 1.0
C      1  0.5467850000000  0.5094790000000  0.5164240000000 1.0
C      1  0.5179930000000  0.4983280000000  0.5735590000000 1.0
C      1  0.4149320000000  0.5203700000000  0.4728520000000 1.0
C      1  0.4143780000000  0.4600340000000  0.5083860000000 1.0
C      1  0.4663730000000  0.5790690000000  0.4457290000000 1.0
C      1  0.4842970000000  0.4835870000000  0.4497670000000 1.0
C      1  0.5196710000000  0.5174330000000  0.5204160000000 1.0
C      1  0.4738840000000  0.5100080000000  0.5325800000000 1.0
C      1  0.5441270000000  0.5473060000000  0.5617780000000 1.0
C      1  0.4365970000000  0.5193810000000  0.5636900000000 1.0
C      1  0.4970340000000  0.5602150000000  0.5436630000000 1.0
C      1  0.5580690000000  0.5140500000000  0.4676300000000 1.0
C      1  0.5136400000000  0.4436730000000  0.4453440000000 1.0
C      1  0.4530200000000  0.5506130000000  0.4901190000000 1.0
C      1  0.4603310000000  0.4722390000000  0.5674400000000 1.0
C      1  0.5033270000000  0.5231960000000  0.5756980000000 1.0
C      1  0.5725330000000  0.4287940000000  0.5072030000000 1.0
C      1  0.5078190000000  0.5406240000000  0.4526440000000 1.0
C      1  0.4769490000000  0.4310330000000  0.4804260000000 1.0
C      1  0.5669850000000  0.5221960000000  0.4940930000000 1.0
C      1  0.5089420000000  0.5357100000000  0.5012490000000 1.0
C      1  0.4001850000000  0.4859410000000  0.5074760000000 1.0
C      1  0.4242060000000  0.5394820000000  0.4929330000000 1.0
C      1  0.4752890000000  0.5217910000000  0.5787660000000 1.0
C      1  0.4548740000000  0.5245600000000  0.4469340000000 1.0
C      1  0.4967970000000  0.5235870000000  0.4763240000000 1.0
C      1  0.4148430000000  0.4736320000000  0.4655100000000 1.0
C      1  0.4342290000000  0.4840310000000  0.4480970000000 1.0
C      1  0.5142390000000  0.5477580000000  0.5626070000000 1.0
C      1  0.4266680000000  0.4542650000000  0.4828390000000 1.0
C      1  0.5046810000000  0.4219990000000  0.5168960000000 1.0
C      1  0.4217370000000  0.4658320000000  0.5361080000000 1.0
C      1  0.4663380000000  0.5592060000000  0.5153720000000 1.0
C      1  0.4660810000000  0.5236370000000  0.4762400000000 1.0
C      1  0.4566680000000  0.5404650000000  0.5652120000000 1.0
C      1  0.5100380000000  0.4673340000000  0.4263470000000 1.0
C      1  0.5629090000000  0.4818260000000  0.5568320000000 1.0
C      1  0.4549140000000  0.4984670000000  0.4924510000000 1.0
C      1  0.5220770000000  0.4628900000000  0.5086430000000 1.0
C      1  0.5444950000000  0.5616930000000  0.4618350000000 1.0
C      1  0.5437490000000  0.4836210000000  0.5007190000000 1.0
C      1  0.4300010000000  0.5125330000000  0.4491570000000 1.0
C      1  0.4678320000000  0.4708010000000  0.4982310000000 1.0
C      1  0.5913030000000  0.5191990000000  0.5295700000000 1.0
C      1  0.5224360000000  0.4342110000000  0.4942660000000 1.0
C      1  0.4070030000000  0.4915260000000  0.5353100000000 1.0
C      1  0.5572660000000  0.5225620000000  0.5658390000000 1.0
C      1  0.4933930000000  0.5167370000000  0.4163040000000 1.0
C      1  0.5613240000000  0.5693590000000  0.4825680000000 1.0
C      1  0.5264800000000  0.4566460000000  0.5391890000000 1.0
C      1  0.5568570000000  0.4593610000000  0.5421200000000 1.0
C      1  0.4686760000000  0.5566080000000  0.5447830000000 1.0
C      1  0.4259850000000  0.5303070000000  0.5195580000000 1.0
C      1  0.5164430000000  0.5285630000000  0.4272190000000 1.0
C      1  0.5722960000000  0.5511430000000  0.4991260000000 1.0
C      1  0.4940590000000  0.4343520000000  0.5650940000000 1.0
C      1  0.4961670000000  0.5735780000000  0.4831110000000 1.0
C      1  0.5110820000000  0.4308690000000  0.5438450000000 1.0
C      1  0.5548600000000  0.4933680000000  0.4288750000000 1.0
C      1  0.5166690000000  0.5653660000000  0.4629270000000 1.0
C      1  0.5652630000000  0.5578440000000  0.5474870000000 1.0
C      1  0.4166190000000  0.5171940000000  0.5434240000000 1.0
C      1  0.4567690000000  0.4521670000000  0.4749370000000 1.0
C      1  0.4971800000000  0.4795080000000  0.5011630000000 1.0
C      1  0.4026890000000  0.4953690000000  0.4813180000000 1.0
C      1  0.5529010000000  0.5358210000000  0.4494880000000 1.0
C      1  0.5428840000000  0.5205330000000  0.4277160000000 1.0
C      1  0.5034650000000  0.4330550000000  0.4700600000000 1.0
C      1  0.5605030000000  0.4461740000000  0.4647070000000 1.0
C      1  0.4475520000000  0.4594780000000  0.5448060000000 1.0
C      1  0.4700360000000  0.5331640000000  0.4243830000000 1.0
C      1  0.4626640000000  0.4501180000000  0.5211720000000 1.0
C      1  0.5456970000000  0.4978380000000  0.5745030000000 1.0
C      1  0.4509520000000  0.5094220000000  0.5177450000000 1.0
C      1  0.5423860000000  0.4473890000000  0.4434690000000 1.0
C      1  0.5738930000000  0.4535460000000  0.5188210000000 1.0
C      1  0.5523240000000  0.4309840000000  0.4879160000000 1.0
C      1  0.4551360000000  0.4996950000000  0.5754920000000 1.0
C      1  0.5800660000000  0.5477680000000  0.5270570000000 1.0
C      1  0.4593910000000  0.4700180000000  0.4515550000000 1.0
C      1  0.4983160000000  0.4967360000000  0.5273740000000 1.0
C      1  0.4704450000000  0.5614230000000  0.4268150000000 1.0
C      1  0.4922140000000  0.4888310000000  0.4229310000000 1.0
C      1  0.5877780000000  0.5045100000000  0.5049990000000 1.0
C      1  0.5081630000000  0.4779570000000  0.5540230000000 1.0
C      1  0.5044710000000  0.4948220000000  0.4749390000000 1.0
C      1  0.4960130000000  0.5606090000000  0.5109930000000 1.0
END
