TITL C-24115-8685-1 39.530789405526 125000 -331.683721967957 0 0 49 (C1) n - 1
REM
REM in /rds/project/t2_vol4/rds-t2-cs072/BORA/CARBON/from-Arr/AIRSS/Generating-Clusters/GAP-ML-2020/Only-C1/SD-CG/HFTN-CG
REM
REM
REM
REM
REM
REM ./C.cell (11c1c37f851c82e70ff6c80c92926a4b)
REM AIRSS Version 0.9.1 bugfix July 2018 build 013d7b7c2542+ Fri, 06 Jul 2018 19:26:36 +0100
REM compiler GCC version 9.3.0
REM options -cpp -mtune=generic -march=x86-64 -g -O0
REM seed -555626838 1790818990 -1982450449 711699190 -1571650762 -939112900 1229891725 206168547 -770702275 -1100282775 -1317660694 -974289679 -551333455 -1125161408 1300792630 -861513152 1941710885 1344807272 -2000145569 -2093321106 397324779 379021935 -291411627 270123119 -1345193384 1115425692 1682943958 -178352204 -433476295 -812145287 -724644536 1479261432 -286332563
REM
CELL 1.54180   50.00000   50.00000   50.00000   90.00000   90.00000   90.00000
LATT -1
SFAC C  
C      1  0.5447620000000  0.4952300000000  0.4492820000000 1.0
C      1  0.4745320000000  0.5136180000000  0.4494070000000 1.0
C      1  0.4417540000000  0.5216620000000  0.4927740000000 1.0
C      1  0.5125720000000  0.5339320000000  0.4698520000000 1.0
C      1  0.5232970000000  0.4627120000000  0.5198130000000 1.0
C      1  0.4646600000000  0.5127600000000  0.5602020000000 1.0
C      1  0.4587660000000  0.4690120000000  0.5374750000000 1.0
C      1  0.4411910000000  0.4813600000000  0.5191150000000 1.0
C      1  0.5451290000000  0.5346080000000  0.5084730000000 1.0
C      1  0.4837130000000  0.4489760000000  0.4989780000000 1.0
C      1  0.4517880000000  0.4974380000000  0.4517290000000 1.0
C      1  0.4798760000000  0.4528320000000  0.5267490000000 1.0
C      1  0.4670810000000  0.4720920000000  0.4473940000000 1.0
C      1  0.5355020000000  0.5093190000000  0.5503160000000 1.0
C      1  0.5115080000000  0.5066440000000  0.5629050000000 1.0
C      1  0.4839680000000  0.4963900000000  0.4942250000000 1.0
C      1  0.5494700000000  0.5128690000000  0.5276480000000 1.0
C      1  0.5616250000000  0.4921940000000  0.5092320000000 1.0
C      1  0.5490880000000  0.4665280000000  0.5078070000000 1.0
C      1  0.4895120000000  0.5270330000000  0.5650480000000 1.0
C      1  0.4974690000000  0.5322070000000  0.5151470000000 1.0
C      1  0.5703390000000  0.4926310000000  0.4609710000000 1.0
C      1  0.4905180000000  0.5051390000000  0.5178980000000 1.0
C      1  0.5722100000000  0.5054930000000  0.4861600000000 1.0
C      1  0.5110880000000  0.4601760000000  0.4904220000000 1.0
C      1  0.5561160000000  0.4695120000000  0.4549560000000 1.0
C      1  0.5339260000000  0.5526080000000  0.4579480000000 1.0
C      1  0.4625000000000  0.5415230000000  0.4874340000000 1.0
C      1  0.5579850000000  0.5494940000000  0.4658700000000 1.0
C      1  0.5221080000000  0.5047620000000  0.4634210000000 1.0
C      1  0.4606170000000  0.4475630000000  0.4551620000000 1.0
C      1  0.4394100000000  0.4985330000000  0.4762890000000 1.0
C      1  0.4758970000000  0.5511480000000  0.5107150000000 1.0
C      1  0.5191590000000  0.5389180000000  0.4991190000000 1.0
C      1  0.5047800000000  0.4608850000000  0.5402980000000 1.0
C      1  0.5529520000000  0.4428550000000  0.4605680000000 1.0
C      1  0.4980510000000  0.4812090000000  0.5599660000000 1.0
C      1  0.4784930000000  0.5621960000000  0.5356690000000 1.0
C      1  0.4905420000000  0.4888890000000  0.4482140000000 1.0
C      1  0.5646930000000  0.5329950000000  0.4874370000000 1.0
C      1  0.4822560000000  0.5346610000000  0.4658430000000 1.0
C      1  0.4417090000000  0.4739810000000  0.4919970000000 1.0
C      1  0.5043150000000  0.4862520000000  0.4752440000000 1.0
C      1  0.4466490000000  0.5228650000000  0.5420970000000 1.0
C      1  0.4701100000000  0.4850560000000  0.5584020000000 1.0
C      1  0.4873330000000  0.5545530000000  0.5593940000000 1.0
C      1  0.5396760000000  0.4523900000000  0.4828150000000 1.0
C      1  0.4606190000000  0.4538190000000  0.4823330000000 1.0
C      1  0.4386860000000  0.5104780000000  0.5197850000000 1.0
END
