TITL C-24739-1391-3 -0.151900568122561 125000 -675.170246734129 0 0 96 (C1) n - 1
REM
REM in /rds/project/t2_vol4/rds-t2-cs072/BORA/CARBON/from-Arr/AIRSS/Generating-Clusters/GAP-ML-2020/Only-C1/SD-CG/HFTN-CG
REM
REM
REM
REM
REM
REM ./C.cell (11c1c37f851c82e70ff6c80c92926a4b)
REM AIRSS Version 0.9.1 bugfix July 2018 build 013d7b7c2542+ Fri, 06 Jul 2018 19:26:36 +0100
REM compiler GCC version 9.3.0
REM options -cpp -mtune=generic -march=x86-64 -g -O0
REM seed -952919917 278203331 -2014377799 257273213 1489271263 358762024 55484843 -2123589938 499380365 1949169626 -533196942 1760007796 185484359 2008070126 814199475 -992860014 728497054 192759458 -1455208988 2034194367 212124265 1685641297 -1359688211 1001546188 1207478763 -959808019 -1867577154 1859885361 -2004870469 -472060289 1261376733 -1347361485 -1099108029
REM
CELL 1.54180   50.00000   50.00000   50.00000   90.00000   90.00000   90.00000
LATT -1
SFAC C  
C      1  0.5493610000000  0.4497090000000  0.4436620000000 1.0
C      1  0.5447650000000  0.4347930000000  0.4901100000000 1.0
C      1  0.5350030000000  0.5456760000000  0.5585500000000 1.0
C      1  0.4587960000000  0.5554000000000  0.4602230000000 1.0
C      1  0.5787470000000  0.4660780000000  0.4782910000000 1.0
C      1  0.5202790000000  0.4640890000000  0.4158620000000 1.0
C      1  0.4777420000000  0.5523880000000  0.4355970000000 1.0
C      1  0.4969480000000  0.4289700000000  0.5001900000000 1.0
C      1  0.4651960000000  0.4562830000000  0.4441380000000 1.0
C      1  0.4965550000000  0.5183370000000  0.4761020000000 1.0
C      1  0.5168990000000  0.4877840000000  0.5458790000000 1.0
C      1  0.5856040000000  0.4717870000000  0.5053940000000 1.0
C      1  0.5634330000000  0.4781670000000  0.5482200000000 1.0
C      1  0.4754840000000  0.5394000000000  0.4821100000000 1.0
C      1  0.4285360000000  0.4401470000000  0.5139870000000 1.0
C      1  0.5270620000000  0.5018770000000  0.5213640000000 1.0
C      1  0.4994990000000  0.5602740000000  0.4869170000000 1.0
C      1  0.4852970000000  0.4655510000000  0.5784490000000 1.0
C      1  0.5478520000000  0.5034750000000  0.4722090000000 1.0
C      1  0.4343850000000  0.4949570000000  0.4469290000000 1.0
C      1  0.5473780000000  0.5320120000000  0.4804830000000 1.0
C      1  0.5687540000000  0.5077700000000  0.5465830000000 1.0
C      1  0.4408480000000  0.5328940000000  0.5494110000000 1.0
C      1  0.4288800000000  0.5124750000000  0.4696860000000 1.0
C      1  0.5067880000000  0.5774020000000  0.5328930000000 1.0
C      1  0.4562670000000  0.4791280000000  0.4997930000000 1.0
C      1  0.5104140000000  0.5348790000000  0.5690310000000 1.0
C      1  0.4098960000000  0.4575690000000  0.4984340000000 1.0
C      1  0.4386850000000  0.4667640000000  0.4506620000000 1.0
C      1  0.5372740000000  0.5765690000000  0.4692670000000 1.0
C      1  0.5285130000000  0.4455050000000  0.5637890000000 1.0
C      1  0.4888980000000  0.4935120000000  0.5836210000000 1.0
C      1  0.5239530000000  0.4404430000000  0.4338100000000 1.0
C      1  0.5325780000000  0.4959260000000  0.4469050000000 1.0
C      1  0.4473690000000  0.5177570000000  0.4334680000000 1.0
C      1  0.5985940000000  0.5078140000000  0.4783830000000 1.0
C      1  0.4312350000000  0.5064600000000  0.5457760000000 1.0
C      1  0.4795230000000  0.4365340000000  0.4583890000000 1.0
C      1  0.5078060000000  0.4311440000000  0.4551430000000 1.0
C      1  0.4675730000000  0.5837750000000  0.5031600000000 1.0
C      1  0.5163160000000  0.5352530000000  0.4906000000000 1.0
C      1  0.4860920000000  0.4742890000000  0.4370150000000 1.0
C      1  0.5782920000000  0.5192880000000  0.5205950000000 1.0
C      1  0.5605500000000  0.4466250000000  0.4693160000000 1.0
C      1  0.5327890000000  0.5666340000000  0.5380430000000 1.0
C      1  0.4859460000000  0.4290210000000  0.5518340000000 1.0
C      1  0.4731730000000  0.4339700000000  0.4855070000000 1.0
C      1  0.4619140000000  0.5331160000000  0.5691740000000 1.0
C      1  0.4580550000000  0.4375600000000  0.5511970000000 1.0
C      1  0.4854990000000  0.5487240000000  0.5659140000000 1.0
C      1  0.5547380000000  0.5266690000000  0.5600220000000 1.0
C      1  0.5503640000000  0.4408500000000  0.5179230000000 1.0
C      1  0.5382300000000  0.4710480000000  0.5590010000000 1.0
C      1  0.4735230000000  0.5265240000000  0.4237400000000 1.0
C      1  0.4393840000000  0.5057110000000  0.4971340000000 1.0
C      1  0.5294890000000  0.4372900000000  0.5362650000000 1.0
C      1  0.4608960000000  0.5712980000000  0.5282380000000 1.0
C      1  0.5701630000000  0.4611240000000  0.5261210000000 1.0
C      1  0.4826810000000  0.4850420000000  0.5095290000000 1.0
C      1  0.5462670000000  0.5812730000000  0.4940190000000 1.0
C      1  0.5012790000000  0.4380120000000  0.5279190000000 1.0
C      1  0.4834020000000  0.5696730000000  0.5467030000000 1.0
C      1  0.4016930000000  0.4806790000000  0.5108400000000 1.0
C      1  0.4644160000000  0.5068740000000  0.5788230000000 1.0
C      1  0.5186190000000  0.4275870000000  0.4818860000000 1.0
C      1  0.5509860000000  0.5643520000000  0.5150740000000 1.0
C      1  0.4503260000000  0.4502220000000  0.4949060000000 1.0
C      1  0.4984490000000  0.4810750000000  0.4126820000000 1.0
C      1  0.5266910000000  0.5446730000000  0.4374530000000 1.0
C      1  0.4822810000000  0.5133620000000  0.5193160000000 1.0
C      1  0.4194100000000  0.5000900000000  0.5197300000000 1.0
C      1  0.4379280000000  0.5352130000000  0.4544460000000 1.0
C      1  0.4281470000000  0.4563620000000  0.4748030000000 1.0
C      1  0.5012500000000  0.4435040000000  0.5722390000000 1.0
C      1  0.4923670000000  0.4703970000000  0.5342120000000 1.0
C      1  0.5633900000000  0.5393050000000  0.5057950000000 1.0
C      1  0.4972740000000  0.5098060000000  0.4175700000000 1.0
C      1  0.4470500000000  0.4898680000000  0.5636460000000 1.0
C      1  0.5215780000000  0.5178780000000  0.4301020000000 1.0
C      1  0.4963020000000  0.5818850000000  0.5066170000000 1.0
C      1  0.4470050000000  0.5470350000000  0.5259470000000 1.0
C      1  0.5037230000000  0.5620000000000  0.4395620000000 1.0
C      1  0.5453130000000  0.5517720000000  0.4576780000000 1.0
C      1  0.4578780000000  0.5787810000000  0.4779870000000 1.0
C      1  0.5023200000000  0.4892600000000  0.4840560000000 1.0
C      1  0.5092530000000  0.5236610000000  0.5162920000000 1.0
C      1  0.4595990000000  0.5278150000000  0.5053350000000 1.0
C      1  0.5928850000000  0.5009640000000  0.5047380000000 1.0
C      1  0.4646400000000  0.4662270000000  0.5566990000000 1.0
C      1  0.5434510000000  0.4743970000000  0.4291970000000 1.0
C      1  0.5101100000000  0.5062720000000  0.5703190000000 1.0
C      1  0.5084160000000  0.5764460000000  0.4637840000000 1.0
C      1  0.5301370000000  0.4901790000000  0.4952480000000 1.0
C      1  0.5767090000000  0.4936350000000  0.4687090000000 1.0
C      1  0.4355130000000  0.4289130000000  0.5375310000000 1.0
C      1  0.5071800000000  0.4790440000000  0.4581040000000 1.0
END
