TITL C-240325-583-3 -145.191651946653 125000 -965.354014324468 0 0 139 (C1) n - 1
REM
REM in /rds/project/t2_vol4/rds-t2-cs072/BORA/CARBON/from-Arr/AIRSS/Generating-Clusters/GAP-ML-2020/Only-C1/SD-CG/HFTN-CG
REM
REM
REM
REM
REM
REM ./C.cell (11c1c37f851c82e70ff6c80c92926a4b)
REM AIRSS Version 0.9.1 bugfix July 2018 build 013d7b7c2542+ Fri, 06 Jul 2018 19:26:36 +0100
REM compiler GCC version 9.3.0
REM options -cpp -mtune=generic -march=x86-64 -g -O0
REM seed -1556853815 -728654215 -1420088372 -94115393 -1619809062 1986913994 -1374430457 -573152472 824924165 -1008200282 1073134833 -1091008403 -19186801 1065976502 860461779 1325823429 -1482370972 -1759494664 -1939679281 967203054 -1286598622 -328513290 390039836 684641916 754014337 -1690738137 -670011512 -544290946 -702049203 1715777065 -996554524 1034831860 1357524187
REM
CELL 1.54180   50.00000   50.00000   50.00000   90.00000   90.00000   90.00000
LATT -1
SFAC C  
C      1  0.4966890000000  0.5333210000000  0.5361570000000 1.0
C      1  0.5549310000000  0.4802940000000  0.4299440000000 1.0
C      1  0.4067970000000  0.5163830000000  0.5405960000000 1.0
C      1  0.4554180000000  0.4468530000000  0.5014230000000 1.0
C      1  0.5188030000000  0.4176040000000  0.5075580000000 1.0
C      1  0.4682070000000  0.5788580000000  0.5240870000000 1.0
C      1  0.4377850000000  0.5194180000000  0.5819830000000 1.0
C      1  0.5395020000000  0.4056910000000  0.4901790000000 1.0
C      1  0.4896500000000  0.6049120000000  0.4842560000000 1.0
C      1  0.5737170000000  0.5417890000000  0.5291530000000 1.0
C      1  0.4451190000000  0.4925610000000  0.5841190000000 1.0
C      1  0.5073670000000  0.5783000000000  0.5525340000000 1.0
C      1  0.5908540000000  0.5208980000000  0.5158250000000 1.0
C      1  0.5357800000000  0.5069200000000  0.5301210000000 1.0
C      1  0.5345500000000  0.5037660000000  0.4257320000000 1.0
C      1  0.4901810000000  0.5476970000000  0.4944780000000 1.0
C      1  0.5002460000000  0.5509180000000  0.4384840000000 1.0
C      1  0.5195580000000  0.4487050000000  0.5105910000000 1.0
C      1  0.5449560000000  0.5706990000000  0.4587620000000 1.0
C      1  0.5136640000000  0.4557340000000  0.4593930000000 1.0
C      1  0.5116290000000  0.4944530000000  0.4041910000000 1.0
C      1  0.4141100000000  0.4498320000000  0.4781600000000 1.0
C      1  0.4167640000000  0.4465100000000  0.5295800000000 1.0
C      1  0.4942310000000  0.5601590000000  0.5199260000000 1.0
C      1  0.4573310000000  0.4757350000000  0.4922910000000 1.0
C      1  0.5505160000000  0.5025640000000  0.5764820000000 1.0
C      1  0.4664340000000  0.4303450000000  0.5492930000000 1.0
C      1  0.4950280000000  0.4889330000000  0.5143330000000 1.0
C      1  0.5376620000000  0.4399670000000  0.5520710000000 1.0
C      1  0.5953250000000  0.4742080000000  0.4925060000000 1.0
C      1  0.4660080000000  0.4265450000000  0.4828460000000 1.0
C      1  0.4914330000000  0.4059950000000  0.4168130000000 1.0
C      1  0.4374040000000  0.5650020000000  0.4633720000000 1.0
C      1  0.4763770000000  0.5779950000000  0.5531880000000 1.0
C      1  0.4406300000000  0.5686160000000  0.5129350000000 1.0
C      1  0.4989490000000  0.5219020000000  0.4590720000000 1.0
C      1  0.4574190000000  0.4746570000000  0.5423760000000 1.0
C      1  0.5411180000000  0.5315650000000  0.4906760000000 1.0
C      1  0.4843410000000  0.5238200000000  0.5863530000000 1.0
C      1  0.4672820000000  0.4744610000000  0.4397820000000 1.0
C      1  0.4893980000000  0.4139430000000  0.5435660000000 1.0
C      1  0.4843470000000  0.5767540000000  0.4451690000000 1.0
C      1  0.4844600000000  0.5055600000000  0.4025050000000 1.0
C      1  0.5831530000000  0.4673980000000  0.4671360000000 1.0
C      1  0.4560390000000  0.5624540000000  0.5674400000000 1.0
C      1  0.4144810000000  0.5312400000000  0.4920340000000 1.0
C      1  0.5711460000000  0.5352120000000  0.4423920000000 1.0
C      1  0.4841370000000  0.4133580000000  0.4433620000000 1.0
C      1  0.4749990000000  0.5105580000000  0.4725780000000 1.0
C      1  0.5625660000000  0.4765600000000  0.5742980000000 1.0
C      1  0.5780790000000  0.4854930000000  0.4453210000000 1.0
C      1  0.5855910000000  0.4689590000000  0.5603000000000 1.0
C      1  0.4064390000000  0.5350560000000  0.5190260000000 1.0
C      1  0.5980160000000  0.5325070000000  0.4906210000000 1.0
C      1  0.5836780000000  0.4919890000000  0.5156250000000 1.0
C      1  0.5022310000000  0.4069160000000  0.4645840000000 1.0
C      1  0.4692500000000  0.4512640000000  0.5292530000000 1.0
C      1  0.4197850000000  0.5594710000000  0.5298380000000 1.0
C      1  0.5114030000000  0.5002490000000  0.4444040000000 1.0
C      1  0.4884000000000  0.4718190000000  0.5978750000000 1.0
C      1  0.5137260000000  0.5966660000000  0.4962460000000 1.0
C      1  0.5119530000000  0.4246820000000  0.5588500000000 1.0
C      1  0.5212100000000  0.5574600000000  0.5681540000000 1.0
C      1  0.4235550000000  0.4625870000000  0.4561960000000 1.0
C      1  0.5307630000000  0.4120250000000  0.4635090000000 1.0
C      1  0.4877830000000  0.4094090000000  0.4894320000000 1.0
C      1  0.4660660000000  0.5301930000000  0.4931380000000 1.0
C      1  0.5686030000000  0.4378780000000  0.5036160000000 1.0
C      1  0.4291660000000  0.5563360000000  0.5567090000000 1.0
C      1  0.4625450000000  0.4288230000000  0.4549590000000 1.0
C      1  0.5876250000000  0.5125530000000  0.4482040000000 1.0
C      1  0.5718930000000  0.5457950000000  0.5588560000000 1.0
C      1  0.4543030000000  0.4898540000000  0.4640800000000 1.0
C      1  0.4187840000000  0.5307120000000  0.5641810000000 1.0
C      1  0.4823930000000  0.5435370000000  0.4136160000000 1.0
C      1  0.5024110000000  0.4366430000000  0.5819850000000 1.0
C      1  0.4782110000000  0.4919590000000  0.5567660000000 1.0
C      1  0.5074700000000  0.4681730000000  0.4113130000000 1.0
C      1  0.4953340000000  0.4056980000000  0.5170480000000 1.0
C      1  0.5178010000000  0.5810640000000  0.5222820000000 1.0
C      1  0.5257750000000  0.5049590000000  0.5593030000000 1.0
C      1  0.4571620000000  0.5687670000000  0.4426510000000 1.0
C      1  0.4158630000000  0.4657120000000  0.5485630000000 1.0
C      1  0.4764260000000  0.4456540000000  0.5922030000000 1.0
C      1  0.4573520000000  0.5165130000000  0.5186550000000 1.0
C      1  0.5129690000000  0.4639890000000  0.5822600000000 1.0
C      1  0.4665010000000  0.5969250000000  0.4992570000000 1.0
C      1  0.5079990000000  0.5304680000000  0.5659140000000 1.0
C      1  0.5651360000000  0.4464330000000  0.4730170000000 1.0
C      1  0.5937830000000  0.4521620000000  0.5113360000000 1.0
C      1  0.4730170000000  0.5180910000000  0.5408820000000 1.0
C      1  0.4562310000000  0.5495660000000  0.4227080000000 1.0
C      1  0.4429200000000  0.5851770000000  0.4879990000000 1.0
C      1  0.4613340000000  0.4928630000000  0.4172220000000 1.0
C      1  0.5390790000000  0.4850650000000  0.4899480000000 1.0
C      1  0.5457340000000  0.5315030000000  0.4308450000000 1.0
C      1  0.5137040000000  0.4673040000000  0.4852150000000 1.0
C      1  0.4985290000000  0.4726060000000  0.4403660000000 1.0
C      1  0.5475280000000  0.5311800000000  0.5198890000000 1.0
C      1  0.5835820000000  0.5572580000000  0.4857850000000 1.0
C      1  0.5454330000000  0.4531970000000  0.4292670000000 1.0
C      1  0.4863020000000  0.4843150000000  0.4889750000000 1.0
C      1  0.4340390000000  0.5324120000000  0.4268410000000 1.0
C      1  0.5416480000000  0.4572730000000  0.5743900000000 1.0
C      1  0.4558360000000  0.4428940000000  0.5733320000000 1.0
C      1  0.4243330000000  0.4444050000000  0.5037160000000 1.0
C      1  0.5242860000000  0.4457960000000  0.4104500000000 1.0
C      1  0.4603520000000  0.5385570000000  0.5840200000000 1.0
C      1  0.5091270000000  0.5136370000000  0.5167770000000 1.0
C      1  0.5471290000000  0.5077710000000  0.4772380000000 1.0
C      1  0.4997580000000  0.4639050000000  0.5287620000000 1.0
C      1  0.5483300000000  0.5523120000000  0.5732810000000 1.0
C      1  0.4205450000000  0.5414390000000  0.4498530000000 1.0
C      1  0.5618460000000  0.5281280000000  0.5783270000000 1.0
C      1  0.5645630000000  0.4093610000000  0.5001050000000 1.0
C      1  0.5103700000000  0.4231040000000  0.4144310000000 1.0
C      1  0.5712300000000  0.5653660000000  0.5100360000000 1.0
C      1  0.5456960000000  0.4522670000000  0.5235510000000 1.0
C      1  0.5374040000000  0.5861680000000  0.4831110000000 1.0
C      1  0.5465400000000  0.5794960000000  0.5091660000000 1.0
C      1  0.5122060000000  0.5301060000000  0.4880490000000 1.0
C      1  0.4367070000000  0.5044730000000  0.4260990000000 1.0
C      1  0.5418810000000  0.4395820000000  0.4555000000000 1.0
C      1  0.5510150000000  0.4833430000000  0.5173320000000 1.0
C      1  0.4121420000000  0.5190300000000  0.4658630000000 1.0
C      1  0.4898800000000  0.6003010000000  0.4568320000000 1.0
C      1  0.4842600000000  0.5301430000000  0.3896180000000 1.0
C      1  0.4747450000000  0.4953020000000  0.5870130000000 1.0
C      1  0.4394920000000  0.4672940000000  0.5666980000000 1.0
C      1  0.5934800000000  0.4693030000000  0.5352410000000 1.0
C      1  0.5706550000000  0.5584190000000  0.4602010000000 1.0
C      1  0.4263060000000  0.4941240000000  0.4525580000000 1.0
C      1  0.6037620000000  0.5171440000000  0.4694080000000 1.0
C      1  0.5061110000000  0.4805830000000  0.5564810000000 1.0
C      1  0.4157950000000  0.4909380000000  0.5330230000000 1.0
C      1  0.4406350000000  0.5469950000000  0.4899750000000 1.0
C      1  0.4486690000000  0.4515870000000  0.4444000000000 1.0
C      1  0.5296430000000  0.5536980000000  0.4396840000000 1.0
C      1  0.4442620000000  0.4902440000000  0.5182920000000 1.0
END
