TITL C-240327-534-1 -19.5974415830982 125000 -346.373317890746 0 0 52 (C1) n - 1
REM
REM in /rds/project/t2_vol4/rds-t2-cs072/BORA/CARBON/from-Arr/AIRSS/Generating-Clusters/GAP-ML-2020/Only-C1/SD-CG/HFTN-CG
REM
REM
REM
REM
REM
REM ./C.cell (11c1c37f851c82e70ff6c80c92926a4b)
REM AIRSS Version 0.9.1 bugfix July 2018 build 013d7b7c2542+ Fri, 06 Jul 2018 19:26:36 +0100
REM compiler GCC version 9.3.0
REM options -cpp -mtune=generic -march=x86-64 -g -O0
REM seed -1320152193 -508813582 -496361134 914784799 1086896833 -436587460 -1141865568 -1282980117 2136522113 -370378693 -1066661989 1481989406 -1544698925 827260611 -1537056526 -884548851 -64457708 -511749575 -206473089 1868770315 -1526833528 -1240048215 -761476979 -1921002959 591350950 -1076824770 1035962712 -2078673308 1012148479 1669041891 556667180 -1924829735 1307909645
REM
CELL 1.54180   50.00000   50.00000   50.00000   90.00000   90.00000   90.00000
LATT -1
SFAC C  
C      1  0.4430320000000  0.5478880000000  0.5016440000000 1.0
C      1  0.5349930000000  0.4240790000000  0.5070180000000 1.0
C      1  0.5537180000000  0.5016790000000  0.5156050000000 1.0
C      1  0.5308100000000  0.5343880000000  0.4421090000000 1.0
C      1  0.4601670000000  0.5226400000000  0.5476830000000 1.0
C      1  0.4760240000000  0.4804560000000  0.4290780000000 1.0
C      1  0.5611720000000  0.4556470000000  0.5353260000000 1.0
C      1  0.4980240000000  0.4949080000000  0.4258800000000 1.0
C      1  0.4886450000000  0.4563090000000  0.5498100000000 1.0
C      1  0.5016950000000  0.4733660000000  0.4713170000000 1.0
C      1  0.4770840000000  0.5001370000000  0.4963400000000 1.0
C      1  0.4911300000000  0.5609150000000  0.5542800000000 1.0
C      1  0.5190680000000  0.5634440000000  0.5050610000000 1.0
C      1  0.4909000000000  0.5606940000000  0.4976530000000 1.0
C      1  0.5071560000000  0.5185370000000  0.5503590000000 1.0
C      1  0.4351370000000  0.5223620000000  0.5052310000000 1.0
C      1  0.5247710000000  0.4969780000000  0.5066650000000 1.0
C      1  0.5643900000000  0.4798760000000  0.5275930000000 1.0
C      1  0.5302910000000  0.5451670000000  0.5245800000000 1.0
C      1  0.4913600000000  0.4254570000000  0.4859020000000 1.0
C      1  0.5541130000000  0.5387130000000  0.4845840000000 1.0
C      1  0.5374400000000  0.4402130000000  0.5298390000000 1.0
C      1  0.5207330000000  0.5082090000000  0.4330560000000 1.0
C      1  0.5145640000000  0.5471500000000  0.5519120000000 1.0
C      1  0.4417170000000  0.5091050000000  0.5303410000000 1.0
C      1  0.4440170000000  0.4804730000000  0.5245460000000 1.0
C      1  0.4890610000000  0.4718620000000  0.4978000000000 1.0
C      1  0.4672680000000  0.5560440000000  0.5132050000000 1.0
C      1  0.5396460000000  0.4960900000000  0.4554560000000 1.0
C      1  0.4395170000000  0.5020430000000  0.4846700000000 1.0
C      1  0.4815850000000  0.5072430000000  0.5584170000000 1.0
C      1  0.5551740000000  0.5307390000000  0.5120330000000 1.0
C      1  0.5147970000000  0.5178840000000  0.5232620000000 1.0
C      1  0.4933470000000  0.5454680000000  0.4734510000000 1.0
C      1  0.4706570000000  0.4765350000000  0.4573760000000 1.0
C      1  0.5179390000000  0.5520280000000  0.4596480000000 1.0
C      1  0.5156500000000  0.4996790000000  0.4765920000000 1.0
C      1  0.4909250000000  0.5166480000000  0.4754840000000 1.0
C      1  0.5128170000000  0.4549170000000  0.5356960000000 1.0
C      1  0.5233530000000  0.4530970000000  0.4663950000000 1.0
C      1  0.4687040000000  0.5497990000000  0.5413360000000 1.0
C      1  0.4382520000000  0.4755280000000  0.4958170000000 1.0
C      1  0.5523770000000  0.5228570000000  0.4599330000000 1.0
C      1  0.5348940000000  0.5599810000000  0.4810670000000 1.0
C      1  0.4734600000000  0.4444760000000  0.4915690000000 1.0
C      1  0.5103370000000  0.4736100000000  0.5155980000000 1.0
C      1  0.4640430000000  0.5022590000000  0.4692490000000 1.0
C      1  0.5437910000000  0.4679400000000  0.4569940000000 1.0
C      1  0.4536290000000  0.4587920000000  0.4774660000000 1.0
C      1  0.5188900000000  0.4306690000000  0.4855850000000 1.0
C      1  0.4769350000000  0.4793970000000  0.5604110000000 1.0
C      1  0.4608020000000  0.4656250000000  0.5420790000000 1.0
END
