TITL C-240318-474-12 0.0450860859420193 125000 -606.170018365714 0 0 85 (C1) n - 1
REM
REM in /rds/project/t2_vol4/rds-t2-cs072/BORA/CARBON/from-Arr/AIRSS/Generating-Clusters/GAP-ML-2020/Only-C1/SD-CG/HFTN-CG
REM
REM
REM
REM
REM
REM ./C.cell (11c1c37f851c82e70ff6c80c92926a4b)
REM AIRSS Version 0.9.1 bugfix July 2018 build 013d7b7c2542+ Fri, 06 Jul 2018 19:26:36 +0100
REM compiler GCC version 9.3.0
REM options -cpp -mtune=generic -march=x86-64 -g -O0
REM seed -1412937011 -77865145 -948630585 1404927208 1913146720 -1288001014 1147904122 -1952191960 1527495756 -1585981646 750159190 -531406423 423041010 545561981 -1095259411 -1719871450 951239454 -1953344758 -2022544798 1583136177 97452042 -1452545175 638489332 1452749415 -745587440 1830041203 -1995764170 -777245767 305747259 965249231 -188195990 -1474855249 -44082138
REM
CELL 1.54180   50.00000   50.00000   50.00000   90.00000   90.00000   90.00000
LATT -1
SFAC C  
C      1  0.4193490000000  0.4903700000000  0.5127150000000 1.0
C      1  0.4880510000000  0.5593370000000  0.5194420000000 1.0
C      1  0.4756470000000  0.5836330000000  0.4703790000000 1.0
C      1  0.5476940000000  0.5591870000000  0.4556350000000 1.0
C      1  0.5688470000000  0.5079040000000  0.4595040000000 1.0
C      1  0.4235570000000  0.5201400000000  0.4654910000000 1.0
C      1  0.4907430000000  0.4594920000000  0.5740380000000 1.0
C      1  0.5240130000000  0.4383740000000  0.5510070000000 1.0
C      1  0.5369900000000  0.5039280000000  0.5356640000000 1.0
C      1  0.4532550000000  0.5751660000000  0.4801110000000 1.0
C      1  0.4724250000000  0.4525580000000  0.4444550000000 1.0
C      1  0.5570510000000  0.5209240000000  0.4368010000000 1.0
C      1  0.5404870000000  0.5461510000000  0.5541700000000 1.0
C      1  0.5629020000000  0.5480170000000  0.4359650000000 1.0
C      1  0.5352510000000  0.4627430000000  0.5597250000000 1.0
C      1  0.5129220000000  0.5362290000000  0.4298930000000 1.0
C      1  0.4949610000000  0.4777030000000  0.5281080000000 1.0
C      1  0.4822110000000  0.4689330000000  0.5065130000000 1.0
C      1  0.5136200000000  0.5220640000000  0.4776080000000 1.0
C      1  0.4863220000000  0.5149390000000  0.5748300000000 1.0
C      1  0.4873580000000  0.5242890000000  0.4274410000000 1.0
C      1  0.5564880000000  0.5511210000000  0.4834420000000 1.0
C      1  0.5920790000000  0.5036710000000  0.5294720000000 1.0
C      1  0.4449680000000  0.5207010000000  0.4459660000000 1.0
C      1  0.5350990000000  0.4418510000000  0.4781050000000 1.0
C      1  0.5437500000000  0.4612510000000  0.4591560000000 1.0
C      1  0.4653250000000  0.4244370000000  0.4850880000000 1.0
C      1  0.4470690000000  0.4342900000000  0.5052290000000 1.0
C      1  0.4665400000000  0.4783240000000  0.4328090000000 1.0
C      1  0.4872260000000  0.5377510000000  0.4725150000000 1.0
C      1  0.5111240000000  0.5623100000000  0.5014150000000 1.0
C      1  0.5123150000000  0.4968360000000  0.5198390000000 1.0
C      1  0.4434090000000  0.4921430000000  0.4416790000000 1.0
C      1  0.4800200000000  0.5381570000000  0.5586220000000 1.0
C      1  0.5232020000000  0.5664030000000  0.5456010000000 1.0
C      1  0.4348590000000  0.4512230000000  0.4845820000000 1.0
C      1  0.5742400000000  0.5258130000000  0.4809900000000 1.0
C      1  0.4213320000000  0.4755930000000  0.4868240000000 1.0
C      1  0.4418830000000  0.5548700000000  0.4960140000000 1.0
C      1  0.5422950000000  0.4419110000000  0.5057610000000 1.0
C      1  0.4700370000000  0.5329770000000  0.4469730000000 1.0
C      1  0.4230770000000  0.4914530000000  0.4631650000000 1.0
C      1  0.5147940000000  0.4763970000000  0.5747130000000 1.0
C      1  0.5132620000000  0.5047660000000  0.5761080000000 1.0
C      1  0.4994140000000  0.4192010000000  0.5170990000000 1.0
C      1  0.5314990000000  0.5750120000000  0.5190790000000 1.0
C      1  0.4957190000000  0.5585700000000  0.5458720000000 1.0
C      1  0.5733600000000  0.5093660000000  0.5045900000000 1.0
C      1  0.4573560000000  0.5325650000000  0.5426870000000 1.0
C      1  0.4850200000000  0.4860750000000  0.4845200000000 1.0
C      1  0.4467720000000  0.4605990000000  0.5482660000000 1.0
C      1  0.4460000000000  0.5071560000000  0.5510870000000 1.0
C      1  0.4965870000000  0.4364490000000  0.5592410000000 1.0
C      1  0.4647100000000  0.4694720000000  0.5696030000000 1.0
C      1  0.5627410000000  0.4810390000000  0.4680670000000 1.0
C      1  0.5328790000000  0.5188710000000  0.5605420000000 1.0
C      1  0.5568190000000  0.4640040000000  0.5144020000000 1.0
C      1  0.5111200000000  0.4983910000000  0.4904490000000 1.0
C      1  0.5255120000000  0.4284720000000  0.5244970000000 1.0
C      1  0.4142950000000  0.5172720000000  0.5092480000000 1.0
C      1  0.5192390000000  0.5582640000000  0.4490080000000 1.0
C      1  0.5584860000000  0.5463840000000  0.5306370000000 1.0
C      1  0.5097920000000  0.4313850000000  0.4701920000000 1.0
C      1  0.4332250000000  0.4845080000000  0.5378750000000 1.0
C      1  0.5575760000000  0.5665290000000  0.5106600000000 1.0
C      1  0.4638990000000  0.4975440000000  0.5712400000000 1.0
C      1  0.4805180000000  0.4261020000000  0.5382370000000 1.0
C      1  0.5305270000000  0.5369590000000  0.4948800000000 1.0
C      1  0.4922220000000  0.4196270000000  0.4895450000000 1.0
C      1  0.4619320000000  0.5455110000000  0.5162590000000 1.0
C      1  0.4550740000000  0.4420130000000  0.4647000000000 1.0
C      1  0.5822690000000  0.4882660000000  0.5472670000000 1.0
C      1  0.5310660000000  0.5143040000000  0.4269320000000 1.0
C      1  0.5494690000000  0.5223690000000  0.5167890000000 1.0
C      1  0.4882890000000  0.4955010000000  0.4246040000000 1.0
C      1  0.5674740000000  0.4813440000000  0.4956320000000 1.0
C      1  0.4212670000000  0.5347010000000  0.4895450000000 1.0
C      1  0.4997130000000  0.5650990000000  0.4715660000000 1.0
C      1  0.5161730000000  0.4890200000000  0.4264860000000 1.0
C      1  0.4712650000000  0.5283310000000  0.4950140000000 1.0
C      1  0.5004790000000  0.4463950000000  0.4478050000000 1.0
C      1  0.4541950000000  0.4368790000000  0.5328710000000 1.0
C      1  0.5529510000000  0.4772090000000  0.5411830000000 1.0
C      1  0.5219380000000  0.4642980000000  0.4399250000000 1.0
C      1  0.4631170000000  0.5026070000000  0.4883330000000 1.0
END
