TITL C-24734-1306-9 62.1546603822411 125000 -362.664566285251 0 0 54 (C1) n - 1
REM
REM in /rds/project/t2_vol4/rds-t2-cs072/BORA/CARBON/from-Arr/AIRSS/Generating-Clusters/GAP-ML-2020/Only-C1/SD-CG/HFTN-CG
REM
REM
REM
REM
REM
REM ./C.cell (11c1c37f851c82e70ff6c80c92926a4b)
REM AIRSS Version 0.9.1 bugfix July 2018 build 013d7b7c2542+ Fri, 06 Jul 2018 19:26:36 +0100
REM compiler GCC version 9.3.0
REM options -cpp -mtune=generic -march=x86-64 -g -O0
REM seed -239932349 -1566958445 29071006 842259216 -1208621035 1017956367 -38343204 1216525991 -279812854 1688839979 -1987668045 180935098 1395269011 -196760310 1782239239 266830492 132329182 808542987 1935049786 -289663900 -1629353510 1829073483 -912996706 1251866131 -155073566 1093330207 1377357898 457470212 -650422224 543871334 -2063269702 642128291 192473662
REM
CELL 1.54180   50.00000   50.00000   50.00000   90.00000   90.00000   90.00000
LATT -1
SFAC C  
C      1  0.4850520000000  0.4897120000000  0.4287530000000 1.0
C      1  0.5362640000000  0.5235470000000  0.4601560000000 1.0
C      1  0.4396950000000  0.4542360000000  0.4973380000000 1.0
C      1  0.5039570000000  0.5516070000000  0.5153340000000 1.0
C      1  0.5622280000000  0.5075000000000  0.5490340000000 1.0
C      1  0.5723740000000  0.5004690000000  0.5219070000000 1.0
C      1  0.5250710000000  0.4816370000000  0.5375040000000 1.0
C      1  0.4995560000000  0.4803900000000  0.4687490000000 1.0
C      1  0.4591190000000  0.4843430000000  0.5359470000000 1.0
C      1  0.4729770000000  0.4480970000000  0.4574880000000 1.0
C      1  0.5276910000000  0.4437060000000  0.4978460000000 1.0
C      1  0.5157100000000  0.4302660000000  0.4756670000000 1.0
C      1  0.5557330000000  0.5355180000000  0.5499930000000 1.0
C      1  0.5659440000000  0.5221030000000  0.5039910000000 1.0
C      1  0.4919760000000  0.5511880000000  0.5420360000000 1.0
C      1  0.5511880000000  0.4602140000000  0.4933150000000 1.0
C      1  0.4458970000000  0.5380990000000  0.4643090000000 1.0
C      1  0.4461510000000  0.4909690000000  0.4622670000000 1.0
C      1  0.4827990000000  0.4406790000000  0.5038860000000 1.0
C      1  0.4605070000000  0.5013970000000  0.4399040000000 1.0
C      1  0.4643450000000  0.5295940000000  0.4448620000000 1.0
C      1  0.5042000000000  0.5106760000000  0.4303200000000 1.0
C      1  0.5237320000000  0.5309640000000  0.5166920000000 1.0
C      1  0.4771350000000  0.5259660000000  0.5461450000000 1.0
C      1  0.4819280000000  0.4723650000000  0.4916160000000 1.0
C      1  0.5701480000000  0.4765030000000  0.5065340000000 1.0
C      1  0.4728930000000  0.5674750000000  0.4850280000000 1.0
C      1  0.4448370000000  0.5258820000000  0.5043890000000 1.0
C      1  0.4880590000000  0.5009020000000  0.5042890000000 1.0
C      1  0.4516610000000  0.5511290000000  0.4898940000000 1.0
C      1  0.5046940000000  0.4625010000000  0.5413330000000 1.0
C      1  0.4628000000000  0.5123050000000  0.5236610000000 1.0
C      1  0.4549780000000  0.4658630000000  0.4749490000000 1.0
C      1  0.5188880000000  0.5118320000000  0.5698710000000 1.0
C      1  0.5558650000000  0.5127960000000  0.4781440000000 1.0
C      1  0.4887710000000  0.4326260000000  0.4759070000000 1.0
C      1  0.5076890000000  0.5352910000000  0.4682560000000 1.0
C      1  0.4939200000000  0.5079360000000  0.4762800000000 1.0
C      1  0.5507600000000  0.5387860000000  0.5219190000000 1.0
C      1  0.5389430000000  0.4943780000000  0.5587340000000 1.0
C      1  0.5307730000000  0.5114040000000  0.4353720000000 1.0
C      1  0.5140440000000  0.5041640000000  0.5172730000000 1.0
C      1  0.5064230000000  0.4443460000000  0.5195160000000 1.0
C      1  0.4923000000000  0.5337990000000  0.4428930000000 1.0
C      1  0.4834970000000  0.4799940000000  0.5501320000000 1.0
C      1  0.5098670000000  0.5576080000000  0.5627820000000 1.0
C      1  0.4973460000000  0.5556940000000  0.4887010000000 1.0
C      1  0.4381710000000  0.5139850000000  0.4782460000000 1.0
C      1  0.4562260000000  0.4391850000000  0.5139960000000 1.0
C      1  0.4456150000000  0.4626610000000  0.5247960000000 1.0
C      1  0.4905410000000  0.4674140000000  0.4446360000000 1.0
C      1  0.4907990000000  0.5059440000000  0.5611640000000 1.0
C      1  0.5593910000000  0.4839090000000  0.4801210000000 1.0
C      1  0.5288740000000  0.5384460000000  0.5661260000000 1.0
END
