TITL C-240339-577-6 46.5618994538074 125000 -312.441321141405 0 0 47 (C1) n - 1
REM
REM in /rds/project/t2_vol4/rds-t2-cs072/BORA/CARBON/from-Arr/AIRSS/Generating-Clusters/GAP-ML-2020/Only-C1/SD-CG/HFTN-CG
REM
REM
REM
REM
REM
REM ./C.cell (11c1c37f851c82e70ff6c80c92926a4b)
REM AIRSS Version 0.9.1 bugfix July 2018 build 013d7b7c2542+ Fri, 06 Jul 2018 19:26:36 +0100
REM compiler GCC version 9.3.0
REM options -cpp -mtune=generic -march=x86-64 -g -O0
REM seed 675909906 958141400 -213070888 377264851 175451792 -1291470725 -912360901 -1716486444 1296095531 360139314 915780048 1151349782 1646492825 -778112163 -29522886 -1840873837 166240582 -1823844547 -991318148 1329357645 1373348368 903913099 -928259001 -1990580758 -1724363480 -2025371389 -1824935639 971716040 -250774534 1747759275 -1006166996 -710751392 -685801202
REM
CELL 1.54180   50.00000   50.00000   50.00000   90.00000   90.00000   90.00000
LATT -1
SFAC C  
C      1  0.5111460000000  0.4471890000000  0.5224150000000 1.0
C      1  0.4414760000000  0.4838110000000  0.5113660000000 1.0
C      1  0.5005790000000  0.5466220000000  0.5281750000000 1.0
C      1  0.5370180000000  0.4612660000000  0.4450080000000 1.0
C      1  0.4878390000000  0.5421690000000  0.4996030000000 1.0
C      1  0.5418680000000  0.4794360000000  0.5334740000000 1.0
C      1  0.5108210000000  0.5145790000000  0.4324020000000 1.0
C      1  0.5482870000000  0.5447640000000  0.5114740000000 1.0
C      1  0.5352410000000  0.5044760000000  0.5483210000000 1.0
C      1  0.4960210000000  0.4777530000000  0.5616930000000 1.0
C      1  0.5447170000000  0.5277390000000  0.4868360000000 1.0
C      1  0.4348520000000  0.4978780000000  0.4863300000000 1.0
C      1  0.4621310000000  0.5202510000000  0.5390250000000 1.0
C      1  0.5102680000000  0.5580120000000  0.4895110000000 1.0
C      1  0.5121220000000  0.5375980000000  0.4477740000000 1.0
C      1  0.5374750000000  0.4832690000000  0.5048590000000 1.0
C      1  0.4915720000000  0.4966910000000  0.5217910000000 1.0
C      1  0.4707560000000  0.5081780000000  0.4576580000000 1.0
C      1  0.4467620000000  0.5359640000000  0.5229230000000 1.0
C      1  0.4616400000000  0.4912370000000  0.5313720000000 1.0
C      1  0.5432910000000  0.4856590000000  0.4579070000000 1.0
C      1  0.5154030000000  0.4941180000000  0.4519840000000 1.0
C      1  0.5230770000000  0.5583820000000  0.5151560000000 1.0
C      1  0.4826270000000  0.4491470000000  0.5260810000000 1.0
C      1  0.4945900000000  0.4970860000000  0.4747030000000 1.0
C      1  0.5525200000000  0.4956260000000  0.4822790000000 1.0
C      1  0.4429710000000  0.4744920000000  0.4702370000000 1.0
C      1  0.4862090000000  0.5257750000000  0.4394310000000 1.0
C      1  0.5176530000000  0.4615100000000  0.4984900000000 1.0
C      1  0.4860900000000  0.4604070000000  0.4528860000000 1.0
C      1  0.5264120000000  0.5447680000000  0.4704530000000 1.0
C      1  0.4983750000000  0.5131600000000  0.4987570000000 1.0
C      1  0.4928410000000  0.4662320000000  0.4826890000000 1.0
C      1  0.5101180000000  0.4658290000000  0.4406110000000 1.0
C      1  0.4509370000000  0.5192920000000  0.4775520000000 1.0
C      1  0.4580790000000  0.5387180000000  0.4976170000000 1.0
C      1  0.5521480000000  0.5254310000000  0.5462210000000 1.0
C      1  0.5154170000000  0.4603650000000  0.5682160000000 1.0
C      1  0.5658970000000  0.5431980000000  0.5334640000000 1.0
C      1  0.4628360000000  0.4794480000000  0.4510950000000 1.0
C      1  0.4733570000000  0.4678270000000  0.5464670000000 1.0
C      1  0.4895060000000  0.5275880000000  0.5458700000000 1.0
C      1  0.4463370000000  0.4599750000000  0.4945660000000 1.0
C      1  0.5049670000000  0.5034570000000  0.5484310000000 1.0
C      1  0.5265830000000  0.5122930000000  0.5033800000000 1.0
C      1  0.4726360000000  0.4532780000000  0.5000220000000 1.0
C      1  0.5265320000000  0.4580590000000  0.5434240000000 1.0
END
