TITL C-24740-1319-1 -9.67547220168115 125000 -290.711704682697 0 0 44 (C1) n - 1
REM
REM in /rds/project/t2_vol4/rds-t2-cs072/BORA/CARBON/from-Arr/AIRSS/Generating-Clusters/GAP-ML-2020/Only-C1/SD-CG/HFTN-CG
REM
REM
REM
REM
REM
REM ./C.cell (11c1c37f851c82e70ff6c80c92926a4b)
REM AIRSS Version 0.9.1 bugfix July 2018 build 013d7b7c2542+ Fri, 06 Jul 2018 19:26:36 +0100
REM compiler GCC version 9.3.0
REM options -cpp -mtune=generic -march=x86-64 -g -O0
REM seed -590643646 -727287675 1329194269 -177216854 811209359 1122943727 1593690365 -165527033 -168973914 -1267921035 1677223426 137354122 -519876449 -322763464 1621492057 -652717666 1646895703 -385187443 1661010443 -2042545453 2137373480 -2133644239 1685301782 516371135 -1691654543 673246103 -790228389 -1150784262 -968808342 1999260097 -1872982037 1778973382 -1057870148
REM
CELL 1.54180   50.00000   50.00000   50.00000   90.00000   90.00000   90.00000
LATT -1
SFAC C  
C      1  0.4998600000000  0.5354250000000  0.4486490000000 1.0
C      1  0.5435100000000  0.4732380000000  0.5011630000000 1.0
C      1  0.4895110000000  0.5119670000000  0.4973580000000 1.0
C      1  0.4674690000000  0.5254870000000  0.4822840000000 1.0
C      1  0.5263140000000  0.5322230000000  0.4431970000000 1.0
C      1  0.4674180000000  0.5507760000000  0.4960070000000 1.0
C      1  0.5525340000000  0.4920010000000  0.4563240000000 1.0
C      1  0.4502350000000  0.4560850000000  0.4649420000000 1.0
C      1  0.4738320000000  0.4992390000000  0.5537210000000 1.0
C      1  0.4777440000000  0.5203530000000  0.4552850000000 1.0
C      1  0.4685980000000  0.4358090000000  0.5156540000000 1.0
C      1  0.5324950000000  0.5482960000000  0.5183850000000 1.0
C      1  0.4946600000000  0.4371050000000  0.4672690000000 1.0
C      1  0.5074980000000  0.4595160000000  0.5304920000000 1.0
C      1  0.5017910000000  0.4997100000000  0.5593240000000 1.0
C      1  0.4801420000000  0.4923090000000  0.4552930000000 1.0
C      1  0.4929830000000  0.5655000000000  0.4999250000000 1.0
C      1  0.5144030000000  0.5077040000000  0.4841900000000 1.0
C      1  0.5120490000000  0.5227660000000  0.5428400000000 1.0
C      1  0.4896790000000  0.5644870000000  0.5288120000000 1.0
C      1  0.5455380000000  0.4829910000000  0.5544280000000 1.0
C      1  0.4610960000000  0.4207450000000  0.4968290000000 1.0
C      1  0.4900390000000  0.5187220000000  0.5238010000000 1.0
C      1  0.5072700000000  0.4848430000000  0.4641570000000 1.0
C      1  0.4627800000000  0.5211150000000  0.5355210000000 1.0
C      1  0.5572670000000  0.5046820000000  0.5457500000000 1.0
C      1  0.5202810000000  0.5347330000000  0.4717250000000 1.0
C      1  0.5201520000000  0.4582020000000  0.5050970000000 1.0
C      1  0.5569200000000  0.4879850000000  0.4826560000000 1.0
C      1  0.5195590000000  0.5540800000000  0.4933340000000 1.0
C      1  0.4620880000000  0.4788890000000  0.5377080000000 1.0
C      1  0.5406780000000  0.5088370000000  0.4374210000000 1.0
C      1  0.5272540000000  0.4845410000000  0.4430430000000 1.0
C      1  0.5182000000000  0.4768170000000  0.5512600000000 1.0
C      1  0.4658460000000  0.5477040000000  0.5257420000000 1.0
C      1  0.5392850000000  0.5188080000000  0.5255810000000 1.0
C      1  0.4787390000000  0.4559150000000  0.5307470000000 1.0
C      1  0.5128850000000  0.5521710000000  0.5397030000000 1.0
C      1  0.5068990000000  0.4581490000000  0.4790570000000 1.0
C      1  0.4521710000000  0.5018500000000  0.4915340000000 1.0
C      1  0.4577690000000  0.4814670000000  0.4704730000000 1.0
C      1  0.4493770000000  0.4991170000000  0.5196170000000 1.0
C      1  0.5375650000000  0.5020980000000  0.5014250000000 1.0
C      1  0.4676180000000  0.4355410000000  0.4722750000000 1.0
END
