TITL C-24756-1310-7 -1343.27592944941 125000 -559.476454247398 0 0 80 (C1) n - 1
REM
REM in /rds/project/t2_vol4/rds-t2-cs072/BORA/CARBON/from-Arr/AIRSS/Generating-Clusters/GAP-ML-2020/Only-C1/SD-CG/HFTN-CG
REM
REM
REM
REM
REM
REM ./C.cell (11c1c37f851c82e70ff6c80c92926a4b)
REM AIRSS Version 0.9.1 bugfix July 2018 build 013d7b7c2542+ Fri, 06 Jul 2018 19:26:36 +0100
REM compiler GCC version 9.3.0
REM options -cpp -mtune=generic -march=x86-64 -g -O0
REM seed -58186929 -201322703 1932776953 2075808384 -676766120 1644326185 205662466 76740474 -536601050 183892129 876776809 1181768165 638745167 1577441739 -427462713 -151467894 -1216032180 -605020747 1305479027 -1931136200 189376073 -432719601 350525485 -342041837 483164580 -1642948054 -882725466 -920476444 -914399819 902191290 -1544970489 2104903077 -1065055492
REM
CELL 1.54180   50.00000   50.00000   50.00000   90.00000   90.00000   90.00000
LATT -1
SFAC C  
C      1  0.5005670000000  0.4762270000000  0.5259220000000 1.0
C      1  0.5802450000000  0.5125020000000  0.4999600000000 1.0
C      1  0.4578930000000  0.4807410000000  0.4361420000000 1.0
C      1  0.4312110000000  0.5253090000000  0.5130320000000 1.0
C      1  0.4458110000000  0.5370330000000  0.5352340000000 1.0
C      1  0.5328950000000  0.4366250000000  0.5271090000000 1.0
C      1  0.4736490000000  0.4255960000000  0.4885000000000 1.0
C      1  0.4920700000000  0.5302130000000  0.5688810000000 1.0
C      1  0.4473400000000  0.4553640000000  0.4424230000000 1.0
C      1  0.5232500000000  0.4479790000000  0.5529210000000 1.0
C      1  0.5367610000000  0.5546470000000  0.5439220000000 1.0
C      1  0.4825690000000  0.4837760000000  0.5718860000000 1.0
C      1  0.4924970000000  0.5151380000000  0.4703970000000 1.0
C      1  0.4406120000000  0.4916170000000  0.4857580000000 1.0
C      1  0.5343670000000  0.4688670000000  0.4560170000000 1.0
C      1  0.4957930000000  0.4491150000000  0.4401590000000 1.0
C      1  0.5252890000000  0.5089630000000  0.4275600000000 1.0
C      1  0.4243570000000  0.4800150000000  0.5062360000000 1.0
C      1  0.4713860000000  0.5106430000000  0.5699960000000 1.0
C      1  0.5230820000000  0.4865690000000  0.5119560000000 1.0
C      1  0.5473790000000  0.5270740000000  0.4621850000000 1.0
C      1  0.5434440000000  0.4887070000000  0.4392190000000 1.0
C      1  0.5054830000000  0.4281400000000  0.5237220000000 1.0
C      1  0.4620930000000  0.4206630000000  0.4630570000000 1.0
C      1  0.5436270000000  0.5253170000000  0.5696200000000 1.0
C      1  0.4777950000000  0.5209350000000  0.4239130000000 1.0
C      1  0.5225200000000  0.5702240000000  0.4918940000000 1.0
C      1  0.5880840000000  0.5354810000000  0.4876370000000 1.0
C      1  0.4825240000000  0.5469180000000  0.4347850000000 1.0
C      1  0.5088100000000  0.5533470000000  0.4441980000000 1.0
C      1  0.4678400000000  0.4782020000000  0.4897750000000 1.0
C      1  0.4469740000000  0.4661430000000  0.5439650000000 1.0
C      1  0.4881240000000  0.5538020000000  0.5526080000000 1.0
C      1  0.4662820000000  0.5564530000000  0.5333760000000 1.0
C      1  0.5109530000000  0.5661020000000  0.5405120000000 1.0
C      1  0.4773690000000  0.5692930000000  0.5090250000000 1.0
C      1  0.5209170000000  0.5148250000000  0.4800300000000 1.0
C      1  0.4536940000000  0.5093980000000  0.4367350000000 1.0
C      1  0.4774990000000  0.5588880000000  0.4807910000000 1.0
C      1  0.5162710000000  0.5159620000000  0.5745500000000 1.0
C      1  0.4952290000000  0.4484710000000  0.5435120000000 1.0
C      1  0.5203210000000  0.4440390000000  0.4549790000000 1.0
C      1  0.5630560000000  0.5137870000000  0.5247390000000 1.0
C      1  0.5046550000000  0.5748560000000  0.5145880000000 1.0
C      1  0.5241330000000  0.4327630000000  0.4815280000000 1.0
C      1  0.4751200000000  0.5287380000000  0.4889890000000 1.0
C      1  0.4382440000000  0.4575730000000  0.5174660000000 1.0
C      1  0.5416600000000  0.5365890000000  0.5202010000000 1.0
C      1  0.4709690000000  0.4349520000000  0.4403410000000 1.0
C      1  0.5604730000000  0.5008440000000  0.4583350000000 1.0
C      1  0.5716860000000  0.4891150000000  0.4826440000000 1.0
C      1  0.5190710000000  0.4841260000000  0.4808660000000 1.0
C      1  0.4876610000000  0.4778210000000  0.4390980000000 1.0
C      1  0.4627590000000  0.5519150000000  0.4545810000000 1.0
C      1  0.5006880000000  0.4232160000000  0.4964720000000 1.0
C      1  0.5497830000000  0.5522230000000  0.5675740000000 1.0
C      1  0.5050300000000  0.5650240000000  0.4701720000000 1.0
C      1  0.4718680000000  0.4607670000000  0.5579350000000 1.0
C      1  0.4560080000000  0.4493670000000  0.4938240000000 1.0
C      1  0.4200320000000  0.5006970000000  0.5237550000000 1.0
C      1  0.5622780000000  0.4675460000000  0.4999990000000 1.0
C      1  0.4986230000000  0.5013480000000  0.4232420000000 1.0
C      1  0.5178490000000  0.5172460000000  0.5096560000000 1.0
C      1  0.4452640000000  0.5293520000000  0.4562920000000 1.0
C      1  0.4477940000000  0.5159060000000  0.5560330000000 1.0
C      1  0.4886370000000  0.5173410000000  0.5122050000000 1.0
C      1  0.5317600000000  0.4702560000000  0.5669770000000 1.0
C      1  0.5529950000000  0.4817670000000  0.5521680000000 1.0
C      1  0.5301580000000  0.5344380000000  0.4394350000000 1.0
C      1  0.5523680000000  0.4839080000000  0.5223590000000 1.0
C      1  0.4338980000000  0.4924890000000  0.5476390000000 1.0
C      1  0.5614480000000  0.5084770000000  0.5545750000000 1.0
C      1  0.5447250000000  0.4429410000000  0.5010210000000 1.0
C      1  0.5634570000000  0.5440900000000  0.4795450000000 1.0
C      1  0.4444270000000  0.5204870000000  0.4854890000000 1.0
C      1  0.5457150000000  0.5559030000000  0.4980900000000 1.0
C      1  0.5108000000000  0.4881270000000  0.5749290000000 1.0
C      1  0.4408350000000  0.4425660000000  0.4673380000000 1.0
C      1  0.4791710000000  0.4903380000000  0.5147160000000 1.0
C      1  0.4900280000000  0.4857760000000  0.4710850000000 1.0
END
