TITL C-240345-589-10 28.9613402764977 125000 -499.28491541511 0 0 73 (C1) n - 1
REM
REM in /rds/project/t2_vol4/rds-t2-cs072/BORA/CARBON/from-Arr/AIRSS/Generating-Clusters/GAP-ML-2020/Only-C1/SD-CG/HFTN-CG
REM
REM
REM
REM
REM
REM ./C.cell (11c1c37f851c82e70ff6c80c92926a4b)
REM AIRSS Version 0.9.1 bugfix July 2018 build 013d7b7c2542+ Fri, 06 Jul 2018 19:26:36 +0100
REM compiler GCC version 9.3.0
REM options -cpp -mtune=generic -march=x86-64 -g -O0
REM seed 1022533681 -1024190674 258396446 -1760579140 -1029056890 808703290 1430941643 -570233777 -633720879 1361587104 1516531415 1689781964 -1047649495 1114111023 -838087179 1985965210 -1825616803 -341528667 -598764637 1782813355 -40015558 500890683 -646339315 496136198 1685815870 -1427532763 -764098639 -667312292 331879509 1620967589 -1302634276 -1423860244 813178798
REM
CELL 1.54180   50.00000   50.00000   50.00000   90.00000   90.00000   90.00000
LATT -1
SFAC C  
C      1  0.5297080000000  0.4763690000000  0.5654370000000 1.0
C      1  0.4978510000000  0.5100040000000  0.5154730000000 1.0
C      1  0.5005780000000  0.4280460000000  0.5189060000000 1.0
C      1  0.5818440000000  0.4713300000000  0.5528370000000 1.0
C      1  0.5169310000000  0.4398900000000  0.5389160000000 1.0
C      1  0.5658690000000  0.5263970000000  0.4900120000000 1.0
C      1  0.5228770000000  0.5178940000000  0.4728290000000 1.0
C      1  0.4433700000000  0.5455990000000  0.4528250000000 1.0
C      1  0.5050760000000  0.4773880000000  0.4333720000000 1.0
C      1  0.5294010000000  0.5136240000000  0.4425920000000 1.0
C      1  0.4712340000000  0.5437040000000  0.4433610000000 1.0
C      1  0.5685930000000  0.4617900000000  0.4649910000000 1.0
C      1  0.5100880000000  0.5540380000000  0.5536050000000 1.0
C      1  0.4815690000000  0.4729120000000  0.4504250000000 1.0
C      1  0.4359660000000  0.4974690000000  0.4487530000000 1.0
C      1  0.5212750000000  0.5036560000000  0.5682990000000 1.0
C      1  0.5322020000000  0.4686240000000  0.4376330000000 1.0
C      1  0.4515090000000  0.5026250000000  0.5039760000000 1.0
C      1  0.4639500000000  0.4754090000000  0.5414730000000 1.0
C      1  0.4580380000000  0.5450010000000  0.5619590000000 1.0
C      1  0.4687970000000  0.5016160000000  0.5284810000000 1.0
C      1  0.5086000000000  0.4588440000000  0.5597590000000 1.0
C      1  0.5486880000000  0.4999080000000  0.5312320000000 1.0
C      1  0.5291710000000  0.4448420000000  0.4845660000000 1.0
C      1  0.5077240000000  0.4264460000000  0.4904750000000 1.0
C      1  0.4982390000000  0.5644890000000  0.4878030000000 1.0
C      1  0.4688050000000  0.4467160000000  0.4611060000000 1.0
C      1  0.4845310000000  0.4751150000000  0.5622790000000 1.0
C      1  0.5435340000000  0.4470910000000  0.5314470000000 1.0
C      1  0.4745990000000  0.5224330000000  0.5512000000000 1.0
C      1  0.5517670000000  0.4461250000000  0.5051110000000 1.0
C      1  0.5395640000000  0.5194510000000  0.5513800000000 1.0
C      1  0.4129820000000  0.5211930000000  0.4850210000000 1.0
C      1  0.4274200000000  0.4719430000000  0.4551940000000 1.0
C      1  0.4809040000000  0.5588120000000  0.5127240000000 1.0
C      1  0.5259710000000  0.5604810000000  0.4964060000000 1.0
C      1  0.4921680000000  0.5026410000000  0.5674340000000 1.0
C      1  0.5818630000000  0.4876640000000  0.4989780000000 1.0
C      1  0.4527720000000  0.5638880000000  0.4734710000000 1.0
C      1  0.5725870000000  0.4616600000000  0.4936560000000 1.0
C      1  0.5138620000000  0.4730190000000  0.4929420000000 1.0
C      1  0.4805040000000  0.4324050000000  0.4821120000000 1.0
C      1  0.5537080000000  0.4722640000000  0.5470050000000 1.0
C      1  0.5217950000000  0.4926190000000  0.5145290000000 1.0
C      1  0.4807780000000  0.5805310000000  0.5336150000000 1.0
C      1  0.5406540000000  0.5392650000000  0.4843890000000 1.0
C      1  0.5368870000000  0.5470380000000  0.5458870000000 1.0
C      1  0.5705700000000  0.5085450000000  0.5138770000000 1.0
C      1  0.4880000000000  0.4826540000000  0.4814650000000 1.0
C      1  0.4638010000000  0.5677740000000  0.5524560000000 1.0
C      1  0.4590310000000  0.4573590000000  0.5165250000000 1.0
C      1  0.4577990000000  0.5498660000000  0.4975960000000 1.0
C      1  0.4642680000000  0.5226400000000  0.4875020000000 1.0
C      1  0.4632430000000  0.4957230000000  0.4414320000000 1.0
C      1  0.5089490000000  0.5791830000000  0.5396480000000 1.0
C      1  0.4266140000000  0.5233180000000  0.4602360000000 1.0
C      1  0.4205600000000  0.4861070000000  0.5250990000000 1.0
C      1  0.5333130000000  0.4925890000000  0.4850100000000 1.0
C      1  0.4210690000000  0.5066640000000  0.5068500000000 1.0
C      1  0.4922740000000  0.5121910000000  0.4865270000000 1.0
C      1  0.5481290000000  0.4926580000000  0.4381680000000 1.0
C      1  0.4795670000000  0.5180110000000  0.4338710000000 1.0
C      1  0.4364200000000  0.4668930000000  0.5342530000000 1.0
C      1  0.5302340000000  0.5676080000000  0.5241080000000 1.0
C      1  0.5777700000000  0.5057270000000  0.4748970000000 1.0
C      1  0.5431200000000  0.4512210000000  0.4584730000000 1.0
C      1  0.4453800000000  0.4595970000000  0.4713290000000 1.0
C      1  0.4729030000000  0.4329340000000  0.5102180000000 1.0
C      1  0.4929810000000  0.5364740000000  0.5320430000000 1.0
C      1  0.5051680000000  0.5063620000000  0.4299530000000 1.0
C      1  0.4602540000000  0.4759390000000  0.4935440000000 1.0
C      1  0.5710280000000  0.4883490000000  0.4544060000000 1.0
C      1  0.4807520000000  0.5633450000000  0.4646400000000 1.0
END
