TITL C-24747-1344-2 0.089445877258925 125000 -342.836869892216 0 0 51 (C1) n - 1
REM
REM in /rds/project/t2_vol4/rds-t2-cs072/BORA/CARBON/from-Arr/AIRSS/Generating-Clusters/GAP-ML-2020/Only-C1/SD-CG/HFTN-CG
REM
REM
REM
REM
REM
REM ./C.cell (11c1c37f851c82e70ff6c80c92926a4b)
REM AIRSS Version 0.9.1 bugfix July 2018 build 013d7b7c2542+ Fri, 06 Jul 2018 19:26:36 +0100
REM compiler GCC version 9.3.0
REM options -cpp -mtune=generic -march=x86-64 -g -O0
REM seed -127736758 326389452 -1300256609 -187967735 1098162966 -582448578 23788548 -1059434537 91355610 -1839588248 -1412018358 -891096634 1188266956 376574105 468715079 -134375915 1892357558 395425685 -293697143 -1827623827 2032062442 673958047 -784177982 -1662851206 -862788269 -224373603 739996602 -1321722093 314785157 1173796149 30574981 1233674907 -551287073
REM
CELL 1.54180   50.00000   50.00000   50.00000   90.00000   90.00000   90.00000
LATT -1
SFAC C  
C      1  0.4954200000000  0.4869270000000  0.4370490000000 1.0
C      1  0.5342140000000  0.5036480000000  0.4777060000000 1.0
C      1  0.4668380000000  0.4874940000000  0.4414900000000 1.0
C      1  0.4811030000000  0.4900630000000  0.5525730000000 1.0
C      1  0.4828880000000  0.4954290000000  0.4919770000000 1.0
C      1  0.5401700000000  0.4330720000000  0.4302400000000 1.0
C      1  0.4634620000000  0.4739150000000  0.5383490000000 1.0
C      1  0.4836330000000  0.5257830000000  0.4554560000000 1.0
C      1  0.4831840000000  0.5654520000000  0.4968960000000 1.0
C      1  0.4896690000000  0.5222610000000  0.4846350000000 1.0
C      1  0.5077270000000  0.5660090000000  0.5066590000000 1.0
C      1  0.4948380000000  0.5300540000000  0.5717730000000 1.0
C      1  0.5576730000000  0.5090800000000  0.5368410000000 1.0
C      1  0.4415220000000  0.4895990000000  0.5266350000000 1.0
C      1  0.5552180000000  0.5486540000000  0.5053480000000 1.0
C      1  0.4420920000000  0.5088200000000  0.4750120000000 1.0
C      1  0.5033740000000  0.5490280000000  0.5298230000000 1.0
C      1  0.4633250000000  0.4558330000000  0.5154660000000 1.0
C      1  0.4594500000000  0.5292520000000  0.5470100000000 1.0
C      1  0.5381120000000  0.4525730000000  0.4785600000000 1.0
C      1  0.5445170000000  0.5196900000000  0.5584770000000 1.0
C      1  0.4705430000000  0.5123980000000  0.5678340000000 1.0
C      1  0.4867300000000  0.4496020000000  0.4980430000000 1.0
C      1  0.5191340000000  0.4780130000000  0.5264030000000 1.0
C      1  0.5214650000000  0.4770840000000  0.4781300000000 1.0
C      1  0.5308070000000  0.5509570000000  0.4911310000000 1.0
C      1  0.4448820000000  0.5176410000000  0.5239930000000 1.0
C      1  0.4414940000000  0.4708320000000  0.5045680000000 1.0
C      1  0.4455750000000  0.5272470000000  0.4965560000000 1.0
C      1  0.4589090000000  0.5120370000000  0.4516610000000 1.0
C      1  0.4690710000000  0.5429640000000  0.4916200000000 1.0
C      1  0.4398200000000  0.4804400000000  0.4788620000000 1.0
C      1  0.5408270000000  0.4587270000000  0.5248770000000 1.0
C      1  0.5298250000000  0.4460320000000  0.4507740000000 1.0
C      1  0.5138590000000  0.5237840000000  0.5242930000000 1.0
C      1  0.5337580000000  0.4403290000000  0.5048040000000 1.0
C      1  0.5315800000000  0.5212780000000  0.4528480000000 1.0
C      1  0.5166910000000  0.5232390000000  0.4954390000000 1.0
C      1  0.4806530000000  0.4533150000000  0.4679830000000 1.0
C      1  0.5060620000000  0.5137130000000  0.4406920000000 1.0
C      1  0.5495360000000  0.4854380000000  0.5200680000000 1.0
C      1  0.5051420000000  0.4648650000000  0.4544090000000 1.0
C      1  0.5563410000000  0.5008470000000  0.4958170000000 1.0
C      1  0.5350210000000  0.5467010000000  0.4630850000000 1.0
C      1  0.5190550000000  0.5145050000000  0.5680230000000 1.0
C      1  0.5078350000000  0.4989780000000  0.5433200000000 1.0
C      1  0.4581440000000  0.4673930000000  0.4597280000000 1.0
C      1  0.5074940000000  0.4313150000000  0.5036460000000 1.0
C      1  0.5029120000000  0.4767870000000  0.5009580000000 1.0
C      1  0.5638260000000  0.5242180000000  0.5118130000000 1.0
C      1  0.4845810000000  0.5466820000000  0.5506480000000 1.0
END
