TITL C-24746-1274-5 0.0317119234033258 125000 -631.551077943113 0 0 89 (C1) n - 1
REM
REM in /rds/project/t2_vol4/rds-t2-cs072/BORA/CARBON/from-Arr/AIRSS/Generating-Clusters/GAP-ML-2020/Only-C1/SD-CG/HFTN-CG
REM
REM
REM
REM
REM
REM ./C.cell (11c1c37f851c82e70ff6c80c92926a4b)
REM AIRSS Version 0.9.1 bugfix July 2018 build 013d7b7c2542+ Fri, 06 Jul 2018 19:26:36 +0100
REM compiler GCC version 9.3.0
REM options -cpp -mtune=generic -march=x86-64 -g -O0
REM seed -884933634 -1563966057 -1929006346 -1163502421 272712086 -1204896194 -1324814641 858803951 2104158979 1847789386 788198149 1572431742 1887478987 -568675332 -917096386 -1654901322 -1612383871 -509120754 -309238005 662194850 791428719 1964480845 618876158 -488853351 1315752186 255094656 -1028091198 59106254 -1185751992 -952133461 2072619189 -67216008 -1750976452
REM
CELL 1.54180   50.00000   50.00000   50.00000   90.00000   90.00000   90.00000
LATT -1
SFAC C  
C      1  0.4347150000000  0.5206990000000  0.5517620000000 1.0
C      1  0.4590650000000  0.5176980000000  0.5687620000000 1.0
C      1  0.4466300000000  0.4713220000000  0.4482380000000 1.0
C      1  0.5206210000000  0.4483100000000  0.5632550000000 1.0
C      1  0.5857000000000  0.4574340000000  0.4835580000000 1.0
C      1  0.5055600000000  0.4960420000000  0.5855660000000 1.0
C      1  0.4876220000000  0.4472500000000  0.4470150000000 1.0
C      1  0.5507300000000  0.4626060000000  0.5001730000000 1.0
C      1  0.4346980000000  0.4639010000000  0.4982350000000 1.0
C      1  0.5683250000000  0.5254540000000  0.5009310000000 1.0
C      1  0.4346710000000  0.5437020000000  0.5040910000000 1.0
C      1  0.4162930000000  0.5424410000000  0.5525220000000 1.0
C      1  0.4424150000000  0.4770820000000  0.5546590000000 1.0
C      1  0.5482350000000  0.5467550000000  0.4214740000000 1.0
C      1  0.4289060000000  0.5178090000000  0.4913780000000 1.0
C      1  0.5809820000000  0.4735710000000  0.5053560000000 1.0
C      1  0.4777390000000  0.4855560000000  0.4161270000000 1.0
C      1  0.5059080000000  0.5710780000000  0.4856650000000 1.0
C      1  0.5410330000000  0.4685910000000  0.5672180000000 1.0
C      1  0.5468560000000  0.5592230000000  0.5090170000000 1.0
C      1  0.5497560000000  0.5329890000000  0.5475550000000 1.0
C      1  0.4958620000000  0.5784410000000  0.5112580000000 1.0
C      1  0.5108210000000  0.5267590000000  0.5085410000000 1.0
C      1  0.5231730000000  0.5010540000000  0.5140170000000 1.0
C      1  0.4893420000000  0.5667840000000  0.4624350000000 1.0
C      1  0.4776850000000  0.5004960000000  0.5223720000000 1.0
C      1  0.5671450000000  0.5390770000000  0.4427590000000 1.0
C      1  0.4438060000000  0.4451120000000  0.5181170000000 1.0
C      1  0.4346080000000  0.5203250000000  0.4626990000000 1.0
C      1  0.4832500000000  0.5226220000000  0.5047250000000 1.0
C      1  0.4818360000000  0.5359800000000  0.5696680000000 1.0
C      1  0.5497820000000  0.4488440000000  0.5275840000000 1.0
C      1  0.5041680000000  0.4824910000000  0.4121900000000 1.0
C      1  0.5256690000000  0.4763270000000  0.4271740000000 1.0
C      1  0.5348610000000  0.5207620000000  0.5686880000000 1.0
C      1  0.5202610000000  0.5471480000000  0.4196390000000 1.0
C      1  0.4612660000000  0.5083640000000  0.4245520000000 1.0
C      1  0.4737140000000  0.4393750000000  0.5546680000000 1.0
C      1  0.5373230000000  0.5571260000000  0.5356240000000 1.0
C      1  0.5023750000000  0.4862780000000  0.5269100000000 1.0
C      1  0.4775230000000  0.4213820000000  0.4886110000000 1.0
C      1  0.4693150000000  0.4377530000000  0.4678500000000 1.0
C      1  0.4279050000000  0.4921860000000  0.5074670000000 1.0
C      1  0.5523980000000  0.5106960000000  0.4785130000000 1.0
C      1  0.5060530000000  0.4166340000000  0.4945990000000 1.0
C      1  0.4613460000000  0.5633690000000  0.4673410000000 1.0
C      1  0.5242410000000  0.5497520000000  0.4936130000000 1.0
C      1  0.5598580000000  0.4681120000000  0.5452870000000 1.0
C      1  0.5679060000000  0.5161010000000  0.5281600000000 1.0
C      1  0.4850840000000  0.4779320000000  0.5808180000000 1.0
C      1  0.5390560000000  0.4354540000000  0.4613180000000 1.0
C      1  0.5080360000000  0.4202360000000  0.5240450000000 1.0
C      1  0.4702620000000  0.4639120000000  0.4327470000000 1.0
C      1  0.5608480000000  0.5531270000000  0.4657480000000 1.0
C      1  0.4416320000000  0.4990890000000  0.4439200000000 1.0
C      1  0.5693530000000  0.5526820000000  0.4929420000000 1.0
C      1  0.5362280000000  0.5233650000000  0.4124830000000 1.0
C      1  0.5187130000000  0.4568860000000  0.4506820000000 1.0
C      1  0.5611060000000  0.5104480000000  0.4488440000000 1.0
C      1  0.4627060000000  0.4245700000000  0.5124190000000 1.0
C      1  0.4304500000000  0.4955860000000  0.5365920000000 1.0
C      1  0.4932030000000  0.4526170000000  0.5702460000000 1.0
C      1  0.4848160000000  0.4766420000000  0.5078090000000 1.0
C      1  0.5081390000000  0.5671150000000  0.5359780000000 1.0
C      1  0.5359120000000  0.4879150000000  0.4909840000000 1.0
C      1  0.4508140000000  0.5647120000000  0.4932000000000 1.0
C      1  0.4609610000000  0.5648340000000  0.5374020000000 1.0
C      1  0.4685280000000  0.5350240000000  0.4316770000000 1.0
C      1  0.5441120000000  0.4993390000000  0.4280580000000 1.0
C      1  0.5081830000000  0.5267310000000  0.4590290000000 1.0
C      1  0.5259190000000  0.4158260000000  0.4756990000000 1.0
C      1  0.5751780000000  0.4881500000000  0.5299400000000 1.0
C      1  0.4814310000000  0.4222880000000  0.5338550000000 1.0
C      1  0.4606330000000  0.4901550000000  0.5730220000000 1.0
C      1  0.4360950000000  0.5490210000000  0.5328880000000 1.0
C      1  0.5156400000000  0.4747550000000  0.4743270000000 1.0
C      1  0.5275620000000  0.4344090000000  0.5390920000000 1.0
C      1  0.5332320000000  0.4928930000000  0.5781800000000 1.0
C      1  0.4455940000000  0.4554680000000  0.4719190000000 1.0
C      1  0.4908140000000  0.5134770000000  0.4786180000000 1.0
C      1  0.4676860000000  0.5761450000000  0.5129190000000 1.0
C      1  0.4498220000000  0.5428380000000  0.4516460000000 1.0
C      1  0.4909330000000  0.4852760000000  0.4805130000000 1.0
C      1  0.5346510000000  0.5349700000000  0.4710420000000 1.0
C      1  0.4491070000000  0.4518130000000  0.5456500000000 1.0
C      1  0.5604420000000  0.4473220000000  0.4766460000000 1.0
C      1  0.4966500000000  0.5460260000000  0.4399960000000 1.0
C      1  0.4845600000000  0.5587290000000  0.5522740000000 1.0
C      1  0.5059570000000  0.5233570000000  0.5772150000000 1.0
END
