TITL C-24115-8685-5 -0.000730198373672928 125000 -67.134549780029 0 0 11 (C1) n - 1
REM
REM in /rds/project/t2_vol4/rds-t2-cs072/BORA/CARBON/from-Arr/AIRSS/Generating-Clusters/GAP-ML-2020/Only-C1/SD-CG/HFTN-CG
REM
REM
REM
REM
REM
REM ./C.cell (11c1c37f851c82e70ff6c80c92926a4b)
REM AIRSS Version 0.9.1 bugfix July 2018 build 013d7b7c2542+ Fri, 06 Jul 2018 19:26:36 +0100
REM compiler GCC version 9.3.0
REM options -cpp -mtune=generic -march=x86-64 -g -O0
REM seed 945886784 -1031615993 1181655997 -517540916 2081317418 -1482648511 -1919358338 1489337042 -1231352933 856903503 -908264637 -2055972667 -678949682 -1468550334 1781378276 -479214215 -728974949 940346440 -2039430010 2138879027 -1570111688 -1651982955 -649739571 688292442 -909815166 264890580 1962052237 1299687452 -1219729528 -39238734 1849304464 -564389199 -1630141711
REM
CELL 1.54180   50.00000   50.00000   50.00000   90.00000   90.00000   90.00000
LATT -1
SFAC C  
C      1  0.4999230000000  0.5055260000000  0.5512890000000 1.0
C      1  0.5149380000000  0.4404910000000  0.5058810000000 1.0
C      1  0.4996560000000  0.5140640000000  0.4897730000000 1.0
C      1  0.5046740000000  0.4621720000000  0.4984580000000 1.0
C      1  0.4926370000000  0.4855730000000  0.4884560000000 1.0
C      1  0.4711320000000  0.4927970000000  0.4712760000000 1.0
C      1  0.5174310000000  0.5258650000000  0.5081140000000 1.0
C      1  0.4803590000000  0.5209690000000  0.4700050000000 1.0
C      1  0.4591340000000  0.5118950000000  0.4571230000000 1.0
C      1  0.5193340000000  0.5161650000000  0.5382230000000 1.0
C      1  0.5407830000000  0.5244820000000  0.5214010000000 1.0
END
