TITL C-240335-454-3 -0.35615701270708 125000 -177.820761500547 0 0 28 (C1) n - 1
REM
REM in /rds/project/t2_vol4/rds-t2-cs072/BORA/CARBON/from-Arr/AIRSS/Generating-Clusters/GAP-ML-2020/Only-C1/SD-CG/HFTN-CG
REM
REM
REM
REM
REM
REM ./C.cell (11c1c37f851c82e70ff6c80c92926a4b)
REM AIRSS Version 0.9.1 bugfix July 2018 build 013d7b7c2542+ Fri, 06 Jul 2018 19:26:36 +0100
REM compiler GCC version 9.3.0
REM options -cpp -mtune=generic -march=x86-64 -g -O0
REM seed 870498592 1775904375 1132826512 676887434 -378066163 -1901867624 -429417287 1347735311 482365012 1982378252 -1394402966 1178652475 -191666729 221748493 -1885882511 1490704691 1226653592 1644323991 155328607 1046137370 2118349478 -1575289560 853988667 -678454158 2084539452 565835896 -1705857817 -874665239 117231615 -738333961 -1175284979 -1296938847 2032032898
REM
CELL 1.54180   50.00000   50.00000   50.00000   90.00000   90.00000   90.00000
LATT -1
SFAC C  
C      1  0.4997630000000  0.5057360000000  0.5074370000000 1.0
C      1  0.4955750000000  0.5232530000000  0.4301800000000 1.0
C      1  0.4831780000000  0.4684440000000  0.5277740000000 1.0
C      1  0.5062650000000  0.4785860000000  0.5124920000000 1.0
C      1  0.5140100000000  0.5193910000000  0.4869900000000 1.0
C      1  0.4657610000000  0.5332220000000  0.5333090000000 1.0
C      1  0.4595240000000  0.4772950000000  0.4865780000000 1.0
C      1  0.4616990000000  0.5238920000000  0.4670190000000 1.0
C      1  0.4793300000000  0.5327990000000  0.4471210000000 1.0
C      1  0.4576430000000  0.4957580000000  0.4644310000000 1.0
C      1  0.4764900000000  0.4621760000000  0.4694190000000 1.0
C      1  0.5635120000000  0.4892540000000  0.4910760000000 1.0
C      1  0.4937140000000  0.4621850000000  0.5516820000000 1.0
C      1  0.4606310000000  0.5319850000000  0.4927460000000 1.0
C      1  0.5508900000000  0.4896850000000  0.5154770000000 1.0
C      1  0.5363290000000  0.5085480000000  0.5548890000000 1.0
C      1  0.5314210000000  0.4886120000000  0.5708450000000 1.0
C      1  0.5211050000000  0.4698960000000  0.5524070000000 1.0
C      1  0.5511230000000  0.4961860000000  0.4687590000000 1.0
C      1  0.5409800000000  0.5145820000000  0.5287750000000 1.0
C      1  0.4722410000000  0.5105460000000  0.5144670000000 1.0
C      1  0.5309120000000  0.4710360000000  0.5242760000000 1.0
C      1  0.4565410000000  0.5498160000000  0.5136460000000 1.0
C      1  0.5030810000000  0.5008600000000  0.4456980000000 1.0
C      1  0.5218400000000  0.5256090000000  0.5124650000000 1.0
C      1  0.4614950000000  0.4829950000000  0.5143370000000 1.0
C      1  0.5246130000000  0.5049800000000  0.4650760000000 1.0
C      1  0.4803360000000  0.4826740000000  0.4506270000000 1.0
END
