TITL C-24092-7333-3 10.1513298670416 125000 -572.623946028813 0 0 84 (C1) n - 1
REM
REM in /rds/project/t2_vol4/rds-t2-cs072/BORA/CARBON/from-Arr/AIRSS/Generating-Clusters/GAP-ML-2020/Only-C1/SD-CG/HFTN-CG
REM
REM
REM
REM
REM
REM ./C.cell (11c1c37f851c82e70ff6c80c92926a4b)
REM AIRSS Version 0.9.1 bugfix July 2018 build 013d7b7c2542+ Fri, 06 Jul 2018 19:26:36 +0100
REM compiler GCC version 9.3.0
REM options -cpp -mtune=generic -march=x86-64 -g -O0
REM seed -18084442 580855301 -664983098 -216327589 2076144520 880674124 37834674 -436095291 438535323 1676586396 1658526434 -980084442 965904872 -2116859104 1944307717 -130951394 2082750838 1947021247 1915845625 537720740 299393907 -1217245803 205519743 994806460 -295402279 -831881019 -1730624007 -177324335 -854979539 489539849 -123085826 1466349987 -1840127814
REM
CELL 1.54180   50.00000   50.00000   50.00000   90.00000   90.00000   90.00000
LATT -1
SFAC C  
C      1  0.4701640000000  0.4778560000000  0.5305090000000 1.0
C      1  0.5521750000000  0.4420430000000  0.5012160000000 1.0
C      1  0.5606200000000  0.5335490000000  0.5030930000000 1.0
C      1  0.4912760000000  0.4210680000000  0.5322310000000 1.0
C      1  0.5733210000000  0.4932340000000  0.4529090000000 1.0
C      1  0.4392770000000  0.5218300000000  0.5477550000000 1.0
C      1  0.4352670000000  0.5476830000000  0.5097390000000 1.0
C      1  0.5839890000000  0.4840140000000  0.4769490000000 1.0
C      1  0.4360630000000  0.4891430000000  0.4495450000000 1.0
C      1  0.4595130000000  0.4910440000000  0.4342080000000 1.0
C      1  0.5411680000000  0.4631290000000  0.4833880000000 1.0
C      1  0.4549050000000  0.5327200000000  0.4564820000000 1.0
C      1  0.5178100000000  0.5670860000000  0.4609470000000 1.0
C      1  0.5614840000000  0.5061970000000  0.5140250000000 1.0
C      1  0.4590160000000  0.4944640000000  0.4852470000000 1.0
C      1  0.5503390000000  0.4789300000000  0.4394240000000 1.0
C      1  0.4963460000000  0.4743480000000  0.5687660000000 1.0
C      1  0.4383900000000  0.4616700000000  0.4605730000000 1.0
C      1  0.5157710000000  0.4303110000000  0.4607120000000 1.0
C      1  0.4469370000000  0.4665710000000  0.4882070000000 1.0
C      1  0.4731850000000  0.4582770000000  0.5675810000000 1.0
C      1  0.4270190000000  0.5222500000000  0.5000540000000 1.0
C      1  0.5147170000000  0.4566750000000  0.4733220000000 1.0
C      1  0.5010570000000  0.4774750000000  0.4556700000000 1.0
C      1  0.4731690000000  0.5154750000000  0.4418890000000 1.0
C      1  0.4770360000000  0.4678120000000  0.4390480000000 1.0
C      1  0.4282900000000  0.4783210000000  0.5358400000000 1.0
C      1  0.4949510000000  0.5138280000000  0.5402760000000 1.0
C      1  0.4689860000000  0.5567670000000  0.4616720000000 1.0
C      1  0.5166650000000  0.5767270000000  0.4884280000000 1.0
C      1  0.5297540000000  0.5083350000000  0.4767570000000 1.0
C      1  0.5254450000000  0.4940480000000  0.4469860000000 1.0
C      1  0.4847730000000  0.4992500000000  0.4703480000000 1.0
C      1  0.5074810000000  0.4225920000000  0.5066560000000 1.0
C      1  0.5609300000000  0.5072820000000  0.5435500000000 1.0
C      1  0.4730030000000  0.4298860000000  0.4727610000000 1.0
C      1  0.5028120000000  0.4533820000000  0.5000330000000 1.0
C      1  0.4970500000000  0.5362720000000  0.5044610000000 1.0
C      1  0.4306970000000  0.5053030000000  0.5249680000000 1.0
C      1  0.4839270000000  0.5194760000000  0.5685870000000 1.0
C      1  0.5462960000000  0.5336180000000  0.4347900000000 1.0
C      1  0.5408090000000  0.5521440000000  0.4562880000000 1.0
C      1  0.4663880000000  0.5710030000000  0.4862680000000 1.0
C      1  0.4613150000000  0.4482220000000  0.5231340000000 1.0
C      1  0.4385730000000  0.5135430000000  0.4723190000000 1.0
C      1  0.5223250000000  0.5189780000000  0.4309390000000 1.0
C      1  0.5179810000000  0.4728250000000  0.5194140000000 1.0
C      1  0.5312890000000  0.5033640000000  0.5722510000000 1.0
C      1  0.5338730000000  0.5472480000000  0.5426510000000 1.0
C      1  0.5353690000000  0.4305070000000  0.4409640000000 1.0
C      1  0.4913350000000  0.5739010000000  0.5318150000000 1.0
C      1  0.4967540000000  0.5307220000000  0.4342470000000 1.0
C      1  0.5362740000000  0.4217040000000  0.5075160000000 1.0
C      1  0.4524380000000  0.5436890000000  0.5341650000000 1.0
C      1  0.4560130000000  0.5074830000000  0.5650730000000 1.0
C      1  0.4973870000000  0.4160090000000  0.4767550000000 1.0
C      1  0.4743540000000  0.4362970000000  0.5468030000000 1.0
C      1  0.5153870000000  0.5296200000000  0.5271060000000 1.0
C      1  0.5658800000000  0.4596200000000  0.5185100000000 1.0
C      1  0.5441930000000  0.4660100000000  0.5367190000000 1.0
C      1  0.5042400000000  0.4988280000000  0.5802520000000 1.0
C      1  0.4875670000000  0.5491500000000  0.5654340000000 1.0
C      1  0.4917120000000  0.5692260000000  0.5026390000000 1.0
C      1  0.5382040000000  0.5752150000000  0.5046180000000 1.0
C      1  0.5782910000000  0.4829530000000  0.5037430000000 1.0
C      1  0.5448870000000  0.5255420000000  0.5589850000000 1.0
C      1  0.5670780000000  0.5205510000000  0.4512790000000 1.0
C      1  0.4414150000000  0.5705090000000  0.4969690000000 1.0
C      1  0.5530020000000  0.5318450000000  0.4753370000000 1.0
C      1  0.5484720000000  0.4849020000000  0.5572830000000 1.0
C      1  0.5362040000000  0.4890330000000  0.4985110000000 1.0
C      1  0.5099530000000  0.5617380000000  0.5505000000000 1.0
C      1  0.4619840000000  0.4460300000000  0.4505590000000 1.0
C      1  0.4537960000000  0.4796240000000  0.5566330000000 1.0
C      1  0.4692090000000  0.5625810000000  0.5477350000000 1.0
C      1  0.5031490000000  0.5190340000000  0.4819350000000 1.0
C      1  0.4713630000000  0.4484150000000  0.4952820000000 1.0
C      1  0.4978850000000  0.4842880000000  0.5380020000000 1.0
C      1  0.5501500000000  0.5554140000000  0.5185090000000 1.0
C      1  0.4941840000000  0.5560170000000  0.4484980000000 1.0
C      1  0.5481510000000  0.4519860000000  0.4345240000000 1.0
C      1  0.4350820000000  0.4596210000000  0.5162360000000 1.0
C      1  0.4605270000000  0.5002770000000  0.5133740000000 1.0
C      1  0.4744820000000  0.5243940000000  0.5206230000000 1.0
END
