TITL C-24091-7333-7 73.103464287031 125000 -217.858165138063 0 0 33 (C1) n - 1
REM
REM in /rds/project/t2_vol4/rds-t2-cs072/BORA/CARBON/from-Arr/AIRSS/Generating-Clusters/GAP-ML-2020/Only-C1/SD-CG/HFTN-CG
REM
REM
REM
REM
REM
REM ./C.cell (11c1c37f851c82e70ff6c80c92926a4b)
REM AIRSS Version 0.9.1 bugfix July 2018 build 013d7b7c2542+ Fri, 06 Jul 2018 19:26:36 +0100
REM compiler GCC version 9.3.0
REM options -cpp -mtune=generic -march=x86-64 -g -O0
REM seed 299095081 829888926 1885297777 86577562 831536433 1961498746 -870825937 -2074632101 1955693329 1846110805 2060336888 602057180 43385717 510627058 -1626053390 93798302 1491831633 1377616567 830259861 197084034 458681799 1560034915 1347512057 77302337 -1089752413 861301730 413031726 -518029790 265708792 -119378150 -1438399810 -1364125331 1100089090
REM
CELL 1.54180   50.00000   50.00000   50.00000   90.00000   90.00000   90.00000
LATT -1
SFAC C  
C      1  0.4518270000000  0.4678970000000  0.5139180000000 1.0
C      1  0.4607530000000  0.4927960000000  0.5259000000000 1.0
C      1  0.4421710000000  0.5235150000000  0.4793290000000 1.0
C      1  0.4990430000000  0.4641310000000  0.5397810000000 1.0
C      1  0.4664740000000  0.5156280000000  0.4698350000000 1.0
C      1  0.4466330000000  0.5143270000000  0.5237120000000 1.0
C      1  0.4735500000000  0.5650830000000  0.5008240000000 1.0
C      1  0.4597320000000  0.4666150000000  0.4869770000000 1.0
C      1  0.5423840000000  0.4577150000000  0.5285700000000 1.0
C      1  0.4741040000000  0.4898260000000  0.4777970000000 1.0
C      1  0.4962030000000  0.4838520000000  0.4935130000000 1.0
C      1  0.4938410000000  0.5531950000000  0.4869250000000 1.0
C      1  0.4922460000000  0.4895410000000  0.5241800000000 1.0
C      1  0.5495770000000  0.5121060000000  0.4780740000000 1.0
C      1  0.4945640000000  0.4430370000000  0.5213650000000 1.0
C      1  0.4503080000000  0.5605260000000  0.5098060000000 1.0
C      1  0.5257420000000  0.4663050000000  0.5518430000000 1.0
C      1  0.5272760000000  0.5259960000000  0.5166060000000 1.0
C      1  0.5254740000000  0.5091250000000  0.4372440000000 1.0
C      1  0.5331440000000  0.4688300000000  0.4654550000000 1.0
C      1  0.4708580000000  0.4492440000000  0.5073350000000 1.0
C      1  0.5400470000000  0.4932880000000  0.4561620000000 1.0
C      1  0.5176800000000  0.4655730000000  0.4874070000000 1.0
C      1  0.4411230000000  0.5335690000000  0.5053460000000 1.0
C      1  0.4881700000000  0.5347580000000  0.4646330000000 1.0
C      1  0.5199720000000  0.5443580000000  0.4959570000000 1.0
C      1  0.5341650000000  0.4932740000000  0.5480710000000 1.0
C      1  0.5527920000000  0.4866030000000  0.5260040000000 1.0
C      1  0.5133450000000  0.5092260000000  0.5346380000000 1.0
C      1  0.5209920000000  0.4494820000000  0.5104020000000 1.0
C      1  0.5138110000000  0.5287450000000  0.4527910000000 1.0
C      1  0.5482770000000  0.5071060000000  0.5064020000000 1.0
C      1  0.5337220000000  0.5347260000000  0.4732000000000 1.0
END
