TITL C-240329-498-15 0.00876854296169621 125000 -173.056494753722 0 0 26 (C1) n - 1
REM
REM in /rds/project/t2_vol4/rds-t2-cs072/BORA/CARBON/from-Arr/AIRSS/Generating-Clusters/GAP-ML-2020/Only-C1/SD-CG/HFTN-CG
REM
REM
REM
REM
REM
REM ./C.cell (11c1c37f851c82e70ff6c80c92926a4b)
REM AIRSS Version 0.9.1 bugfix July 2018 build 013d7b7c2542+ Fri, 06 Jul 2018 19:26:36 +0100
REM compiler GCC version 9.3.0
REM options -cpp -mtune=generic -march=x86-64 -g -O0
REM seed -1430942339 -2107402814 246819554 -1453925603 1537164565 15528885 -1324902381 1803381110 2102284994 -756013857 -1110774502 1856881049 1364885316 -775118866 -524529312 -1975718631 300303145 1465786892 287259400 -1835911919 -465997619 -2106486209 1132777170 -916781519 904036237 285809495 -1618186854 1875905783 -1478578565 -62862109 1814638780 71024976 -1003717726
REM
CELL 1.54180   50.00000   50.00000   50.00000   90.00000   90.00000   90.00000
LATT -1
SFAC C  
C      1  0.5006890000000  0.5656770000000  0.5291290000000 1.0
C      1  0.4691760000000  0.5186320000000  0.4817420000000 1.0
C      1  0.5116120000000  0.4575270000000  0.4405710000000 1.0
C      1  0.5146570000000  0.4727390000000  0.5312910000000 1.0
C      1  0.4899880000000  0.4648190000000  0.5399610000000 1.0
C      1  0.5345180000000  0.5267390000000  0.4918030000000 1.0
C      1  0.4754010000000  0.5112360000000  0.5324240000000 1.0
C      1  0.5022120000000  0.5177610000000  0.5448330000000 1.0
C      1  0.5228320000000  0.5004990000000  0.5359470000000 1.0
C      1  0.5172940000000  0.4463360000000  0.4878930000000 1.0
C      1  0.5393610000000  0.5085470000000  0.5136570000000 1.0
C      1  0.5121450000000  0.5040130000000  0.4571520000000 1.0
C      1  0.5101410000000  0.5412300000000  0.4860340000000 1.0
C      1  0.5077910000000  0.4826870000000  0.4412530000000 1.0
C      1  0.4932410000000  0.5493690000000  0.5073750000000 1.0
C      1  0.4685660000000  0.4828780000000  0.5326440000000 1.0
C      1  0.4409400000000  0.4804240000000  0.4934980000000 1.0
C      1  0.5422130000000  0.4859450000000  0.4948340000000 1.0
C      1  0.5134750000000  0.4435360000000  0.4632070000000 1.0
C      1  0.4462410000000  0.4743950000000  0.5181980000000 1.0
C      1  0.4943900000000  0.5245770000000  0.4678960000000 1.0
C      1  0.4718070000000  0.5293610000000  0.5095180000000 1.0
C      1  0.4514700000000  0.4984830000000  0.4776490000000 1.0
C      1  0.5268930000000  0.4644340000000  0.5055770000000 1.0
C      1  0.5363240000000  0.5032460000000  0.4728730000000 1.0
C      1  0.5066230000000  0.5449120000000  0.5430380000000 1.0
END
