TITL C-24108-7276-9 14.8309628553484 125000 -344.421466383967 0 0 52 (C1) n - 1
REM
REM in /rds/project/t2_vol4/rds-t2-cs072/BORA/CARBON/from-Arr/AIRSS/Generating-Clusters/GAP-ML-2020/Only-C1/SD-CG/HFTN-CG
REM
REM
REM
REM
REM
REM ./C.cell (11c1c37f851c82e70ff6c80c92926a4b)
REM AIRSS Version 0.9.1 bugfix July 2018 build 013d7b7c2542+ Fri, 06 Jul 2018 19:26:36 +0100
REM compiler GCC version 9.3.0
REM options -cpp -mtune=generic -march=x86-64 -g -O0
REM seed 944623027 1041614001 2036023595 -1401969913 1009478857 -205003693 1618536356 617252389 636777141 -377618164 850355414 -790692307 1635853683 -709874241 75535691 -1157844190 1401529159 1455563334 347328005 100867841 1801311544 1910515046 -868717374 -1866579807 942631160 763247782 309962043 -435788993 -1432400072 2035354957 -802708545 1889601318 859075074
REM
CELL 1.54180   50.00000   50.00000   50.00000   90.00000   90.00000   90.00000
LATT -1
SFAC C  
C      1  0.4832330000000  0.4459600000000  0.5412820000000 1.0
C      1  0.4477030000000  0.4776360000000  0.4595780000000 1.0
C      1  0.5133320000000  0.4292360000000  0.4772410000000 1.0
C      1  0.4775510000000  0.4664810000000  0.4918230000000 1.0
C      1  0.4751400000000  0.4379930000000  0.4813700000000 1.0
C      1  0.5265120000000  0.5516620000000  0.5428430000000 1.0
C      1  0.5176300000000  0.5277000000000  0.5563760000000 1.0
C      1  0.5506380000000  0.4858080000000  0.5140790000000 1.0
C      1  0.4470180000000  0.5199600000000  0.5357900000000 1.0
C      1  0.4611180000000  0.4646700000000  0.4401950000000 1.0
C      1  0.5280040000000  0.4650270000000  0.5389780000000 1.0
C      1  0.4857390000000  0.5107550000000  0.4519820000000 1.0
C      1  0.4899710000000  0.5182110000000  0.5558860000000 1.0
C      1  0.4883240000000  0.5361180000000  0.4637930000000 1.0
C      1  0.5500570000000  0.5085680000000  0.4961460000000 1.0
C      1  0.4879640000000  0.4293450000000  0.5225890000000 1.0
C      1  0.5375810000000  0.5602460000000  0.4676330000000 1.0
C      1  0.5420420000000  0.5106390000000  0.5571580000000 1.0
C      1  0.4723560000000  0.4908080000000  0.4723030000000 1.0
C      1  0.5451740000000  0.4863430000000  0.5424530000000 1.0
C      1  0.5647470000000  0.5272910000000  0.5516130000000 1.0
C      1  0.5313460000000  0.4637080000000  0.5080700000000 1.0
C      1  0.4542740000000  0.5463100000000  0.5311150000000 1.0
C      1  0.4887300000000  0.5750310000000  0.5194590000000 1.0
C      1  0.5328710000000  0.4487990000000  0.4822460000000 1.0
C      1  0.5224770000000  0.5223680000000  0.4956920000000 1.0
C      1  0.4923890000000  0.4348430000000  0.4580880000000 1.0
C      1  0.5339410000000  0.4707130000000  0.4629540000000 1.0
C      1  0.4932020000000  0.4220580000000  0.4979740000000 1.0
C      1  0.4266350000000  0.5085850000000  0.4860920000000 1.0
C      1  0.4339210000000  0.4811850000000  0.4851690000000 1.0
C      1  0.4983880000000  0.4704440000000  0.5383430000000 1.0
C      1  0.4677460000000  0.5396350000000  0.4858550000000 1.0
C      1  0.4664680000000  0.5342850000000  0.5523920000000 1.0
C      1  0.4893610000000  0.4569740000000  0.4417720000000 1.0
C      1  0.5130020000000  0.4732650000000  0.4423040000000 1.0
C      1  0.5092620000000  0.5015950000000  0.4397760000000 1.0
C      1  0.4528160000000  0.4743330000000  0.5065940000000 1.0
C      1  0.5570300000000  0.5534210000000  0.4828680000000 1.0
C      1  0.4607320000000  0.4973720000000  0.5233170000000 1.0
C      1  0.5177130000000  0.5382640000000  0.4683730000000 1.0
C      1  0.4737340000000  0.5107410000000  0.4960820000000 1.0
C      1  0.5023090000000  0.4758820000000  0.5068750000000 1.0
C      1  0.5615620000000  0.5350380000000  0.5034880000000 1.0
C      1  0.4821420000000  0.4938710000000  0.5442590000000 1.0
C      1  0.5545500000000  0.5425140000000  0.5314830000000 1.0
C      1  0.4383770000000  0.5309470000000  0.4817830000000 1.0
C      1  0.5089020000000  0.5721060000000  0.5351950000000 1.0
C      1  0.5293660000000  0.5150960000000  0.4532080000000 1.0
C      1  0.4687930000000  0.5586000000000  0.5088460000000 1.0
C      1  0.5443820000000  0.4972780000000  0.4684790000000 1.0
C      1  0.5017450000000  0.5042810000000  0.5007380000000 1.0
END
