TITL C-24737-1410-9 174.335189593885 125000 -492.085942051086 0 0 72 (C1) n - 1
REM
REM in /rds/project/t2_vol4/rds-t2-cs072/BORA/CARBON/from-Arr/AIRSS/Generating-Clusters/GAP-ML-2020/Only-C1/SD-CG/HFTN-CG
REM
REM
REM
REM
REM
REM ./C.cell (11c1c37f851c82e70ff6c80c92926a4b)
REM AIRSS Version 0.9.1 bugfix July 2018 build 013d7b7c2542+ Fri, 06 Jul 2018 19:26:36 +0100
REM compiler GCC version 9.3.0
REM options -cpp -mtune=generic -march=x86-64 -g -O0
REM seed -791604945 -1231677348 -1035641465 -892184200 -100704493 1236372860 158816640 -487312288 -1979102990 -890586601 -6944172 -1550360816 -193225885 1626774983 1889830240 1145679103 765490915 1440904431 -421853058 1338495240 458062971 -1213400686 -1272838946 -1016658367 -1155085990 -1859785471 -1057524465 -2120985893 -1769939078 1352383753 -1999559946 1836067122 -333128822
REM
CELL 1.54180   50.00000   50.00000   50.00000   90.00000   90.00000   90.00000
LATT -1
SFAC C  
C      1  0.5072570000000  0.5157430000000  0.4252020000000 1.0
C      1  0.5269930000000  0.5522930000000  0.4528200000000 1.0
C      1  0.5350710000000  0.5003150000000  0.5141370000000 1.0
C      1  0.4839360000000  0.4454170000000  0.5043870000000 1.0
C      1  0.4583230000000  0.5326820000000  0.4471340000000 1.0
C      1  0.5515010000000  0.5098610000000  0.4477190000000 1.0
C      1  0.5047380000000  0.5649020000000  0.5318720000000 1.0
C      1  0.5187140000000  0.5468580000000  0.5123300000000 1.0
C      1  0.4383190000000  0.5216110000000  0.4663530000000 1.0
C      1  0.5281290000000  0.5342420000000  0.5576820000000 1.0
C      1  0.5146680000000  0.4790640000000  0.5198890000000 1.0
C      1  0.4872560000000  0.5645360000000  0.4747080000000 1.0
C      1  0.5225170000000  0.4737050000000  0.4372590000000 1.0
C      1  0.4810080000000  0.4488430000000  0.4483000000000 1.0
C      1  0.4943180000000  0.4701200000000  0.4330130000000 1.0
C      1  0.4531600000000  0.4641700000000  0.5449490000000 1.0
C      1  0.5140640000000  0.4230750000000  0.4795530000000 1.0
C      1  0.5076480000000  0.4979120000000  0.5757290000000 1.0
C      1  0.4974760000000  0.4290460000000  0.4583360000000 1.0
C      1  0.4647060000000  0.5058820000000  0.5594970000000 1.0
C      1  0.4826050000000  0.4859720000000  0.5711100000000 1.0
C      1  0.4317580000000  0.4759380000000  0.4960230000000 1.0
C      1  0.5312520000000  0.4886370000000  0.5631650000000 1.0
C      1  0.4799420000000  0.5498990000000  0.4495660000000 1.0
C      1  0.5308230000000  0.5615720000000  0.5470410000000 1.0
C      1  0.4420690000000  0.4992320000000  0.5105800000000 1.0
C      1  0.5509630000000  0.5368170000000  0.4593410000000 1.0
C      1  0.4907120000000  0.4928760000000  0.4860780000000 1.0
C      1  0.4362820000000  0.4449120000000  0.5348190000000 1.0
C      1  0.5146800000000  0.5693770000000  0.4708140000000 1.0
C      1  0.4567650000000  0.4514030000000  0.4649330000000 1.0
C      1  0.5529550000000  0.4614500000000  0.5294980000000 1.0
C      1  0.4786820000000  0.5310810000000  0.5604720000000 1.0
C      1  0.5042360000000  0.4149410000000  0.5054290000000 1.0
C      1  0.4992380000000  0.5397390000000  0.4921470000000 1.0
C      1  0.5661550000000  0.5135240000000  0.5330810000000 1.0
C      1  0.4791940000000  0.5472570000000  0.5365790000000 1.0
C      1  0.5643880000000  0.5374050000000  0.5149310000000 1.0
C      1  0.5308480000000  0.5009100000000  0.4310590000000 1.0
C      1  0.4602500000000  0.5066620000000  0.4342060000000 1.0
C      1  0.5045570000000  0.5259410000000  0.5724000000000 1.0
C      1  0.4797980000000  0.4611000000000  0.5586530000000 1.0
C      1  0.5032580000000  0.4664530000000  0.4954340000000 1.0
C      1  0.5528490000000  0.4881010000000  0.4695140000000 1.0
C      1  0.4348420000000  0.5254760000000  0.4939240000000 1.0
C      1  0.4395880000000  0.4961300000000  0.4522950000000 1.0
C      1  0.5185230000000  0.5212410000000  0.5277960000000 1.0
C      1  0.5276650000000  0.4648000000000  0.5449920000000 1.0
C      1  0.4801460000000  0.5748300000000  0.5237970000000 1.0
C      1  0.4483090000000  0.4925590000000  0.5397270000000 1.0
C      1  0.5295020000000  0.4495650000000  0.4827100000000 1.0
C      1  0.5478740000000  0.5125160000000  0.5574740000000 1.0
C      1  0.5377430000000  0.4652300000000  0.4593460000000 1.0
C      1  0.4740890000000  0.5033670000000  0.5083220000000 1.0
C      1  0.5567720000000  0.5321480000000  0.4871570000000 1.0
C      1  0.5638430000000  0.4881400000000  0.5206570000000 1.0
C      1  0.5030170000000  0.4466910000000  0.5494190000000 1.0
C      1  0.4382940000000  0.4730860000000  0.4677210000000 1.0
C      1  0.5049560000000  0.5415090000000  0.4373700000000 1.0
C      1  0.5676560000000  0.4766840000000  0.4930600000000 1.0
C      1  0.4958090000000  0.5004730000000  0.5282480000000 1.0
C      1  0.5081760000000  0.5144730000000  0.4791470000000 1.0
C      1  0.4372570000000  0.4503510000000  0.5079040000000 1.0
C      1  0.5534620000000  0.4536090000000  0.5012000000000 1.0
C      1  0.4748850000000  0.5333040000000  0.5100280000000 1.0
C      1  0.4968070000000  0.4307360000000  0.5261050000000 1.0
C      1  0.4586590000000  0.4403640000000  0.4910170000000 1.0
C      1  0.4513440000000  0.5478110000000  0.4993210000000 1.0
C      1  0.5460970000000  0.5565310000000  0.5229600000000 1.0
C      1  0.4686140000000  0.5714700000000  0.4976120000000 1.0
C      1  0.4851200000000  0.4967230000000  0.4260580000000 1.0
C      1  0.5368920000000  0.5087090000000  0.4868900000000 1.0
END
