TITL C-240344-565-3 -0.0146166343748802 125000 -94.3664736044519 0 0 15 (C1) n - 1
REM
REM in /rds/project/t2_vol4/rds-t2-cs072/BORA/CARBON/from-Arr/AIRSS/Generating-Clusters/GAP-ML-2020/Only-C1/SD-CG/HFTN-CG
REM
REM
REM
REM
REM
REM ./C.cell (11c1c37f851c82e70ff6c80c92926a4b)
REM AIRSS Version 0.9.1 bugfix July 2018 build 013d7b7c2542+ Fri, 06 Jul 2018 19:26:36 +0100
REM compiler GCC version 9.3.0
REM options -cpp -mtune=generic -march=x86-64 -g -O0
REM seed 235632993 1154649494 -1225462097 1218258491 490237243 -1708600885 -2105997619 -985754470 -1799781020 874593069 -1304648933 1990723759 -1633238888 801393087 -1303342349 -749765712 77356608 -2040883361 1607683215 2077076951 -1806531112 -912335814 -119341838 -1254182176 -1606783569 -297610250 -1382621724 467582031 539926538 -1499024788 -2010655777 -794859890 -704384446
REM
CELL 1.54180   50.00000   50.00000   50.00000   90.00000   90.00000   90.00000
LATT -1
SFAC C  
C      1  0.4641950000000  0.5390760000000  0.4954040000000 1.0
C      1  0.5233450000000  0.5322550000000  0.5081930000000 1.0
C      1  0.5065470000000  0.4901030000000  0.5278500000000 1.0
C      1  0.5596240000000  0.4812650000000  0.4712440000000 1.0
C      1  0.5102560000000  0.4608110000000  0.4897640000000 1.0
C      1  0.5209380000000  0.4732700000000  0.5106650000000 1.0
C      1  0.5028050000000  0.5174760000000  0.5182060000000 1.0
C      1  0.4801090000000  0.4826540000000  0.5340750000000 1.0
C      1  0.4622860000000  0.4720140000000  0.4899730000000 1.0
C      1  0.4662400000000  0.4907240000000  0.5109950000000 1.0
C      1  0.4848500000000  0.4601450000000  0.4831640000000 1.0
C      1  0.4759930000000  0.5189010000000  0.5089610000000 1.0
C      1  0.4496820000000  0.5532000000000  0.4805120000000 1.0
C      1  0.5527380000000  0.5050580000000  0.4784980000000 1.0
C      1  0.5403920000000  0.5230500000000  0.4924950000000 1.0
END
