TITL C-240333-495-8 14.6371626911846 125000 -135.757139135099 0 0 21 (C1) n - 1
REM
REM in /rds/project/t2_vol4/rds-t2-cs072/BORA/CARBON/from-Arr/AIRSS/Generating-Clusters/GAP-ML-2020/Only-C1/SD-CG/HFTN-CG
REM
REM
REM
REM
REM
REM ./C.cell (11c1c37f851c82e70ff6c80c92926a4b)
REM AIRSS Version 0.9.1 bugfix July 2018 build 013d7b7c2542+ Fri, 06 Jul 2018 19:26:36 +0100
REM compiler GCC version 9.3.0
REM options -cpp -mtune=generic -march=x86-64 -g -O0
REM seed 663332662 1748956461 -963564530 213733084 -1468421689 -1771547475 -481386206 1555818028 466299328 442022994 -636817229 1530720199 1273430120 1186605406 -610095332 -1270162038 1332623319 -690569874 -1908012744 -1593681617 2033433771 -1969557957 -115401463 1015839500 940622463 2101257742 1464555918 2128181168 -1424174272 1236313096 1982818136 -1898212172 -564615104
REM
CELL 1.54180   50.00000   50.00000   50.00000   90.00000   90.00000   90.00000
LATT -1
SFAC C  
C      1  0.5148180000000  0.5375680000000  0.5081090000000 1.0
C      1  0.4939300000000  0.4643030000000  0.5172930000000 1.0
C      1  0.5087970000000  0.5482940000000  0.4833860000000 1.0
C      1  0.4634000000000  0.5065360000000  0.5215360000000 1.0
C      1  0.4335670000000  0.5111520000000  0.4821750000000 1.0
C      1  0.5320250000000  0.5133130000000  0.5077370000000 1.0
C      1  0.4542080000000  0.5075920000000  0.4654800000000 1.0
C      1  0.5618190000000  0.4979870000000  0.5482760000000 1.0
C      1  0.5359660000000  0.4486770000000  0.4764850000000 1.0
C      1  0.4398480000000  0.5102280000000  0.5076830000000 1.0
C      1  0.4828930000000  0.4870990000000  0.5094660000000 1.0
C      1  0.5235850000000  0.4962290000000  0.4860120000000 1.0
C      1  0.5480270000000  0.5059380000000  0.5285050000000 1.0
C      1  0.4998570000000  0.5497540000000  0.4601540000000 1.0
C      1  0.4750540000000  0.5284370000000  0.5361490000000 1.0
C      1  0.4943630000000  0.4949910000000  0.4837960000000 1.0
C      1  0.5056590000000  0.4418490000000  0.5149730000000 1.0
C      1  0.5352540000000  0.4743910000000  0.4760860000000 1.0
C      1  0.4782880000000  0.5000220000000  0.4621780000000 1.0
C      1  0.5222200000000  0.4358220000000  0.4953320000000 1.0
C      1  0.4964210000000  0.5398190000000  0.5291900000000 1.0
END
