TITL C-24741-1350-11 -15.5601457711114 125000 -255.804604510229 0 0 37 (C1) n - 1
REM
REM in /rds/project/t2_vol4/rds-t2-cs072/BORA/CARBON/from-Arr/AIRSS/Generating-Clusters/GAP-ML-2020/Only-C1/SD-CG/HFTN-CG
REM
REM
REM
REM
REM
REM ./C.cell (11c1c37f851c82e70ff6c80c92926a4b)
REM AIRSS Version 0.9.1 bugfix July 2018 build 013d7b7c2542+ Fri, 06 Jul 2018 19:26:36 +0100
REM compiler GCC version 9.3.0
REM options -cpp -mtune=generic -march=x86-64 -g -O0
REM seed 63527517 -814066151 900268689 1815455529 32008251 426236176 -733063021 1623893513 2001719764 -1701464999 -1031757941 122336496 1451376495 1136842545 -1852185537 -1738376438 813721109 -1913020111 1118793334 1921084159 785938033 907368080 965364918 1173188865 -111179845 -842176945 255216792 -1798740877 129619998 -1664572228 -1256077217 -23765775 -1587916779
REM
CELL 1.54180   50.00000   50.00000   50.00000   90.00000   90.00000   90.00000
LATT -1
SFAC C  
C      1  0.4850080000000  0.5055220000000  0.4483980000000 1.0
C      1  0.4881890000000  0.5115500000000  0.5535300000000 1.0
C      1  0.5071000000000  0.4884850000000  0.5557150000000 1.0
C      1  0.4619020000000  0.5057150000000  0.4667700000000 1.0
C      1  0.5417370000000  0.5161220000000  0.5399310000000 1.0
C      1  0.5241860000000  0.5343860000000  0.5303430000000 1.0
C      1  0.4749570000000  0.4589460000000  0.4810090000000 1.0
C      1  0.5214040000000  0.5386500000000  0.4419350000000 1.0
C      1  0.5325270000000  0.4433860000000  0.5286950000000 1.0
C      1  0.4561520000000  0.5359360000000  0.5074350000000 1.0
C      1  0.5255340000000  0.5433660000000  0.5028550000000 1.0
C      1  0.5311540000000  0.4824140000000  0.4505170000000 1.0
C      1  0.4843320000000  0.5459180000000  0.4717040000000 1.0
C      1  0.5527290000000  0.5023930000000  0.4861930000000 1.0
C      1  0.4556210000000  0.4820600000000  0.4800830000000 1.0
C      1  0.4668280000000  0.4542320000000  0.5088060000000 1.0
C      1  0.5497610000000  0.5021950000000  0.4565970000000 1.0
C      1  0.5023510000000  0.4831010000000  0.4476090000000 1.0
C      1  0.4481230000000  0.4765230000000  0.5075840000000 1.0
C      1  0.4662040000000  0.4930760000000  0.5490760000000 1.0
C      1  0.5415520000000  0.5300260000000  0.4567750000000 1.0
C      1  0.4387490000000  0.5216360000000  0.5218860000000 1.0
C      1  0.4603590000000  0.5318790000000  0.4790290000000 1.0
C      1  0.5282680000000  0.4644910000000  0.4740230000000 1.0
C      1  0.4962890000000  0.5323700000000  0.4495270000000 1.0
C      1  0.4958920000000  0.5343380000000  0.5390750000000 1.0
C      1  0.4808630000000  0.5466170000000  0.5179640000000 1.0
C      1  0.5087230000000  0.4365860000000  0.5252340000000 1.0
C      1  0.4993750000000  0.4615530000000  0.4683580000000 1.0
C      1  0.4472880000000  0.4958510000000  0.5283420000000 1.0
C      1  0.5437960000000  0.5303200000000  0.4862410000000 1.0
C      1  0.4986610000000  0.5520330000000  0.4955780000000 1.0
C      1  0.4841810000000  0.4504590000000  0.5303720000000 1.0
C      1  0.5401330000000  0.4701840000000  0.5232220000000 1.0
C      1  0.4847170000000  0.4703410000000  0.5504030000000 1.0
C      1  0.5427730000000  0.4774430000000  0.4960050000000 1.0
C      1  0.5325830000000  0.4898980000000  0.5431810000000 1.0
END
