TITL C-24119-8672-4 0.0365861932105784 125000 -152.922949043113 0 0 24 (C1) n - 1
REM
REM in /rds/project/t2_vol4/rds-t2-cs072/BORA/CARBON/from-Arr/AIRSS/Generating-Clusters/GAP-ML-2020/Only-C1/SD-CG/HFTN-CG
REM
REM
REM
REM
REM
REM ./C.cell (11c1c37f851c82e70ff6c80c92926a4b)
REM AIRSS Version 0.9.1 bugfix July 2018 build 013d7b7c2542+ Fri, 06 Jul 2018 19:26:36 +0100
REM compiler GCC version 9.3.0
REM options -cpp -mtune=generic -march=x86-64 -g -O0
REM seed 1121327471 -821986315 1678002930 477930766 -688495603 -1601541941 847204384 -617006135 -14056993 -2105677507 362099420 -1094891110 -1879437387 -776042407 -908338968 1048216066 -466933057 -2053592202 1187753080 1615679992 117932277 -1979490948 -782205936 -1912443807 -1029270652 1308099516 926013085 -479522844 1195023958 1728115423 -792558536 197139481 573725592
REM
CELL 1.54180   50.00000   50.00000   50.00000   90.00000   90.00000   90.00000
LATT -1
SFAC C  
C      1  0.4716410000000  0.4570040000000  0.4924960000000 1.0
C      1  0.4852900000000  0.4455770000000  0.5139660000000 1.0
C      1  0.5047000000000  0.4519450000000  0.5302700000000 1.0
C      1  0.5049130000000  0.4786260000000  0.5192660000000 1.0
C      1  0.5103720000000  0.4810410000000  0.4908320000000 1.0
C      1  0.5211820000000  0.5126080000000  0.4489750000000 1.0
C      1  0.4818660000000  0.5381140000000  0.5038040000000 1.0
C      1  0.4478330000000  0.5043530000000  0.4890770000000 1.0
C      1  0.4926060000000  0.5275550000000  0.5517790000000 1.0
C      1  0.5364740000000  0.4938550000000  0.4557720000000 1.0
C      1  0.4923330000000  0.4611550000000  0.4744700000000 1.0
C      1  0.5151990000000  0.5265220000000  0.5635900000000 1.0
C      1  0.4628710000000  0.5266310000000  0.4824920000000 1.0
C      1  0.4750500000000  0.5316460000000  0.4579740000000 1.0
C      1  0.4636430000000  0.4846330000000  0.4999520000000 1.0
C      1  0.5299100000000  0.5251260000000  0.5038710000000 1.0
C      1  0.5393250000000  0.5259360000000  0.5520580000000 1.0
C      1  0.4814180000000  0.4943600000000  0.5194310000000 1.0
C      1  0.5163900000000  0.4495380000000  0.4680900000000 1.0
C      1  0.4811100000000  0.5214700000000  0.5284460000000 1.0
C      1  0.5327150000000  0.4737630000000  0.4746890000000 1.0
C      1  0.5426370000000  0.5261450000000  0.5257510000000 1.0
C      1  0.5078410000000  0.5341280000000  0.4909100000000 1.0
C      1  0.5026800000000  0.5282690000000  0.4620400000000 1.0
END
