TITL C-24747-1344-7 -0.110788154525029 125000 -313.328366263883 0 0 47 (C1) n - 1
REM
REM in /rds/project/t2_vol4/rds-t2-cs072/BORA/CARBON/from-Arr/AIRSS/Generating-Clusters/GAP-ML-2020/Only-C1/SD-CG/HFTN-CG
REM
REM
REM
REM
REM
REM ./C.cell (11c1c37f851c82e70ff6c80c92926a4b)
REM AIRSS Version 0.9.1 bugfix July 2018 build 013d7b7c2542+ Fri, 06 Jul 2018 19:26:36 +0100
REM compiler GCC version 9.3.0
REM options -cpp -mtune=generic -march=x86-64 -g -O0
REM seed -477526551 -524269176 972506302 701706412 423525810 2104095536 -1305476057 -1670919817 -79034917 692286648 926005730 722019928 -157413351 2066464881 -844040603 -1692160694 824143933 -768275741 1595250948 463028641 271606052 1506550183 -1971394059 2005389965 -72621364 -208127956 -960798444 -1041685840 -1194262227 604718494 645269728 1333317493 2111771342
REM
CELL 1.54180   50.00000   50.00000   50.00000   90.00000   90.00000   90.00000
LATT -1
SFAC C  
C      1  0.5203880000000  0.5331340000000  0.5437670000000 1.0
C      1  0.5480700000000  0.5394490000000  0.5412260000000 1.0
C      1  0.5611150000000  0.5379030000000  0.5194400000000 1.0
C      1  0.4997660000000  0.4948670000000  0.4370070000000 1.0
C      1  0.5085000000000  0.5757000000000  0.4857250000000 1.0
C      1  0.4532760000000  0.4525690000000  0.4792170000000 1.0
C      1  0.4836600000000  0.5440860000000  0.4546380000000 1.0
C      1  0.5124270000000  0.4585090000000  0.4906150000000 1.0
C      1  0.4807480000000  0.4726130000000  0.5669590000000 1.0
C      1  0.5459150000000  0.4955050000000  0.4587920000000 1.0
C      1  0.4507890000000  0.4746140000000  0.5184020000000 1.0
C      1  0.4690790000000  0.4381920000000  0.4995740000000 1.0
C      1  0.5103400000000  0.5584090000000  0.4620610000000 1.0
C      1  0.5020120000000  0.5521000000000  0.5309810000000 1.0
C      1  0.5378270000000  0.4898700000000  0.5189680000000 1.0
C      1  0.5313510000000  0.4827040000000  0.5443180000000 1.0
C      1  0.4494770000000  0.5242870000000  0.4905320000000 1.0
C      1  0.5261800000000  0.4912550000000  0.4400080000000 1.0
C      1  0.4740090000000  0.4532420000000  0.4595320000000 1.0
C      1  0.4913800000000  0.4410630000000  0.4808540000000 1.0
C      1  0.4441310000000  0.4765810000000  0.4905350000000 1.0
C      1  0.5546890000000  0.4772160000000  0.4795720000000 1.0
C      1  0.5413630000000  0.4537150000000  0.4891420000000 1.0
C      1  0.5343010000000  0.5456900000000  0.4598360000000 1.0
C      1  0.4645750000000  0.4948840000000  0.5620770000000 1.0
C      1  0.4900210000000  0.5305900000000  0.4943750000000 1.0
C      1  0.4608720000000  0.4978030000000  0.5321580000000 1.0
C      1  0.4461290000000  0.5009580000000  0.4755350000000 1.0
C      1  0.5490100000000  0.5245160000000  0.4697330000000 1.0
C      1  0.5290980000000  0.4467840000000  0.5134450000000 1.0
C      1  0.4904810000000  0.4615260000000  0.5412860000000 1.0
C      1  0.4771920000000  0.4768280000000  0.4452230000000 1.0
C      1  0.5094930000000  0.5727890000000  0.5107890000000 1.0
C      1  0.4813190000000  0.5185720000000  0.4427490000000 1.0
C      1  0.4945620000000  0.5032940000000  0.4858080000000 1.0
C      1  0.4912730000000  0.4984290000000  0.5721910000000 1.0
C      1  0.4796260000000  0.5384870000000  0.5209100000000 1.0
C      1  0.5083330000000  0.4867510000000  0.5027590000000 1.0
C      1  0.5592120000000  0.4932750000000  0.5028070000000 1.0
C      1  0.5111160000000  0.5046270000000  0.5504110000000 1.0
C      1  0.4607990000000  0.4999770000000  0.4511470000000 1.0
C      1  0.5608200000000  0.5214810000000  0.4966360000000 1.0
C      1  0.5195980000000  0.4572360000000  0.5382820000000 1.0
C      1  0.4687140000000  0.5427400000000  0.4786860000000 1.0
C      1  0.4681460000000  0.4523280000000  0.5236200000000 1.0
C      1  0.4927650000000  0.4898220000000  0.5289070000000 1.0
C      1  0.4560540000000  0.5230300000000  0.5187650000000 1.0
END
