TITL C-240339-577-5 -289.520685434502 125000 -557.589975853813 0 0 78 (C1) n - 1
REM
REM in /rds/project/t2_vol4/rds-t2-cs072/BORA/CARBON/from-Arr/AIRSS/Generating-Clusters/GAP-ML-2020/Only-C1/SD-CG/HFTN-CG
REM
REM
REM
REM
REM
REM ./C.cell (11c1c37f851c82e70ff6c80c92926a4b)
REM AIRSS Version 0.9.1 bugfix July 2018 build 013d7b7c2542+ Fri, 06 Jul 2018 19:26:36 +0100
REM compiler GCC version 9.3.0
REM options -cpp -mtune=generic -march=x86-64 -g -O0
REM seed 1747291915 477937691 -1495991394 -1598492750 2137643699 272204981 -1490623218 336791526 1778965638 -2141184938 -1161991247 873292592 -276993904 -1247820314 -1840168145 -685373144 335444592 -702464831 -1937779871 -715164700 -1634987315 1299452385 349997923 -996487415 -2001020802 -718973998 1139416482 -1297695369 443219123 1966317164 -130932889 34405416 -1372659652
REM
CELL 1.54180   50.00000   50.00000   50.00000   90.00000   90.00000   90.00000
LATT -1
SFAC C  
C      1  0.4896600000000  0.5536470000000  0.4513140000000 1.0
C      1  0.4644480000000  0.4512130000000  0.5353950000000 1.0
C      1  0.4785510000000  0.5001900000000  0.4881310000000 1.0
C      1  0.4933940000000  0.4846640000000  0.5250850000000 1.0
C      1  0.5210600000000  0.5682820000000  0.4887980000000 1.0
C      1  0.4162140000000  0.4971400000000  0.5004130000000 1.0
C      1  0.5579060000000  0.4723890000000  0.5498330000000 1.0
C      1  0.5828220000000  0.4937000000000  0.4884170000000 1.0
C      1  0.4451440000000  0.5290170000000  0.4421780000000 1.0
C      1  0.5838570000000  0.4815030000000  0.5134300000000 1.0
C      1  0.4882180000000  0.4646680000000  0.5490880000000 1.0
C      1  0.5585290000000  0.5144190000000  0.4557060000000 1.0
C      1  0.4785420000000  0.5096030000000  0.5154870000000 1.0
C      1  0.5571060000000  0.4494490000000  0.5318940000000 1.0
C      1  0.5325860000000  0.5533150000000  0.5529870000000 1.0
C      1  0.4408760000000  0.4671120000000  0.5283470000000 1.0
C      1  0.4566980000000  0.5586230000000  0.4940060000000 1.0
C      1  0.4483560000000  0.5112830000000  0.5580880000000 1.0
C      1  0.4656680000000  0.4877370000000  0.4356460000000 1.0
C      1  0.4261500000000  0.5350010000000  0.5250290000000 1.0
C      1  0.5048750000000  0.5134600000000  0.4822830000000 1.0
C      1  0.4325550000000  0.5422010000000  0.4982630000000 1.0
C      1  0.4334520000000  0.4916750000000  0.5428720000000 1.0
C      1  0.4742140000000  0.5106510000000  0.5691470000000 1.0
C      1  0.5184610000000  0.4912870000000  0.5750290000000 1.0
C      1  0.4173990000000  0.5078060000000  0.5261280000000 1.0
C      1  0.4905360000000  0.4871680000000  0.5707270000000 1.0
C      1  0.5639890000000  0.4506180000000  0.4836710000000 1.0
C      1  0.4446240000000  0.5378230000000  0.5456520000000 1.0
C      1  0.5434040000000  0.5576070000000  0.5052440000000 1.0
C      1  0.4943910000000  0.4288580000000  0.4956530000000 1.0
C      1  0.4855030000000  0.5375670000000  0.5630890000000 1.0
C      1  0.4426450000000  0.5558310000000  0.4462410000000 1.0
C      1  0.5392850000000  0.5296050000000  0.4407210000000 1.0
C      1  0.4220690000000  0.5185200000000  0.4822080000000 1.0
C      1  0.4543100000000  0.4390890000000  0.4756620000000 1.0
C      1  0.5362330000000  0.5562940000000  0.4457250000000 1.0
C      1  0.5144030000000  0.4877380000000  0.4297520000000 1.0
C      1  0.4827570000000  0.4348350000000  0.4694890000000 1.0
C      1  0.5624320000000  0.5352190000000  0.5062790000000 1.0
C      1  0.5386270000000  0.4385500000000  0.4779440000000 1.0
C      1  0.5221840000000  0.4312120000000  0.5011840000000 1.0
C      1  0.5309010000000  0.4382600000000  0.5283910000000 1.0
C      1  0.5053500000000  0.5231310000000  0.5110640000000 1.0
C      1  0.5499670000000  0.5299180000000  0.5547780000000 1.0
C      1  0.4486130000000  0.4251840000000  0.4993340000000 1.0
C      1  0.4915100000000  0.5309540000000  0.4331290000000 1.0
C      1  0.5157580000000  0.5164060000000  0.4296260000000 1.0
C      1  0.5361880000000  0.4723110000000  0.4398640000000 1.0
C      1  0.4638470000000  0.5580030000000  0.4648080000000 1.0
C      1  0.5660150000000  0.5217270000000  0.5333830000000 1.0
C      1  0.5733790000000  0.4734870000000  0.4699760000000 1.0
C      1  0.5033220000000  0.5714090000000  0.5121300000000 1.0
C      1  0.5354730000000  0.4876660000000  0.5058100000000 1.0
C      1  0.4750760000000  0.5645340000000  0.5168510000000 1.0
C      1  0.4922580000000  0.4750680000000  0.4958530000000 1.0
C      1  0.4677670000000  0.5159730000000  0.4307230000000 1.0
C      1  0.5588970000000  0.4860410000000  0.4497140000000 1.0
C      1  0.5731600000000  0.4548270000000  0.5101560000000 1.0
C      1  0.4418710000000  0.4835870000000  0.4527700000000 1.0
C      1  0.4706440000000  0.4318970000000  0.5143950000000 1.0
C      1  0.5180230000000  0.4865580000000  0.4843050000000 1.0
C      1  0.5333850000000  0.4698650000000  0.5637830000000 1.0
C      1  0.4686100000000  0.5523630000000  0.5432740000000 1.0
C      1  0.5124790000000  0.5398430000000  0.5692690000000 1.0
C      1  0.4980110000000  0.4482960000000  0.4495940000000 1.0
C      1  0.5192230000000  0.5008630000000  0.5249280000000 1.0
C      1  0.5158630000000  0.4513930000000  0.5499460000000 1.0
C      1  0.5270180000000  0.5644570000000  0.5285740000000 1.0
C      1  0.4289880000000  0.4714570000000  0.4998380000000 1.0
C      1  0.5703590000000  0.5190610000000  0.4828460000000 1.0
C      1  0.5300710000000  0.5168420000000  0.5728310000000 1.0
C      1  0.4388200000000  0.4632690000000  0.4734300000000 1.0
C      1  0.5147680000000  0.5641390000000  0.4609780000000 1.0
C      1  0.4902260000000  0.4724360000000  0.4341920000000 1.0
C      1  0.5732810000000  0.4937500000000  0.5364590000000 1.0
C      1  0.4305210000000  0.5096120000000  0.4570060000000 1.0
C      1  0.5262250000000  0.4488430000000  0.4537560000000 1.0
END
