TITL C-25446-8863-28 76.3860882848592 125000 -1178.12440076734 0 0 168 (C1) n - 1
REM
REM in /rds/project/t2_vol4/rds-t2-cs072/BORA/CARBON/from-Arr/AIRSS/Generating-Clusters/GAP-ML-2020/Only-C1/SD-CG/HFTN-CG/C160-200
REM
REM
REM
REM
REM
REM ./C.cell (f2ad243b7eb7c0cd63fb1bbaf7e03044)
REM AIRSS Version 0.9.1 bugfix July 2018 build 013d7b7c2542+ Fri, 06 Jul 2018 19:26:36 +0100
REM compiler GCC version 9.3.0
REM options -cpp -mtune=generic -march=x86-64 -g -O0
REM seed -1077782888 1650037344 724781939 520084799 544515361 -508590361 -453254557 759624255 555394088 -1327465265 -1369497018 253590783 1055994585 1079620559 526665021 -610167766 1922816366 -267274677 -2120260191 1744429745 65297206 -1712204463 1618067983 -217295897 -1030650036 1291151759 -559465080 -1516659298 -836868221 862229502 -206393663 -1653594511 -558690215
REM
CELL 1.54180   50.00000   50.00000   50.00000   90.00000   90.00000   90.00000
LATT -1
SFAC C  
C      1  0.5339700000000  0.4054930000000  0.5633760000000 1.0
C      1  0.5989350000000  0.4741530000000  0.5024400000000 1.0
C      1  0.4963990000000  0.5280060000000  0.4760330000000 1.0
C      1  0.4817290000000  0.4499410000000  0.4763960000000 1.0
C      1  0.5282780000000  0.4587270000000  0.5091990000000 1.0
C      1  0.5377030000000  0.4686510000000  0.4825050000000 1.0
C      1  0.4996410000000  0.5889050000000  0.4850430000000 1.0
C      1  0.5181300000000  0.3857750000000  0.5062540000000 1.0
C      1  0.5568260000000  0.4165550000000  0.4903210000000 1.0
C      1  0.4460660000000  0.5882500000000  0.4482200000000 1.0
C      1  0.5838210000000  0.5234220000000  0.4377230000000 1.0
C      1  0.5208590000000  0.5670440000000  0.4721400000000 1.0
C      1  0.4741170000000  0.4832930000000  0.3956740000000 1.0
C      1  0.5782960000000  0.5278710000000  0.5073070000000 1.0
C      1  0.5303540000000  0.4420530000000  0.5996040000000 1.0
C      1  0.4505820000000  0.4996910000000  0.4657260000000 1.0
C      1  0.4861010000000  0.4765030000000  0.4912240000000 1.0
C      1  0.3970740000000  0.4504440000000  0.5083490000000 1.0
C      1  0.4503400000000  0.4141130000000  0.4466780000000 1.0
C      1  0.5824380000000  0.5625060000000  0.4630460000000 1.0
C      1  0.5419400000000  0.4938600000000  0.4162940000000 1.0
C      1  0.5229890000000  0.5433990000000  0.5427760000000 1.0
C      1  0.5349630000000  0.4093660000000  0.5110380000000 1.0
C      1  0.4825920000000  0.4500550000000  0.4417570000000 1.0
C      1  0.5437070000000  0.4676480000000  0.5338790000000 1.0
C      1  0.5003710000000  0.5274490000000  0.5057970000000 1.0
C      1  0.5415370000000  0.5214700000000  0.4713250000000 1.0
C      1  0.5509410000000  0.4269000000000  0.4644250000000 1.0
C      1  0.4589080000000  0.4692230000000  0.5111770000000 1.0
C      1  0.5736560000000  0.5069740000000  0.5300990000000 1.0
C      1  0.4274490000000  0.5435920000000  0.4281460000000 1.0
C      1  0.4401820000000  0.5055330000000  0.5781590000000 1.0
C      1  0.5003550000000  0.4974160000000  0.4733550000000 1.0
C      1  0.4909570000000  0.5060180000000  0.5882150000000 1.0
C      1  0.3982160000000  0.5080550000000  0.5034230000000 1.0
C      1  0.5029290000000  0.4995270000000  0.5584300000000 1.0
C      1  0.4701820000000  0.5100310000000  0.4476780000000 1.0
C      1  0.5683720000000  0.5297350000000  0.5769290000000 1.0
C      1  0.5711700000000  0.4386840000000  0.4477600000000 1.0
C      1  0.5016610000000  0.4508150000000  0.5583620000000 1.0
C      1  0.5177940000000  0.4235880000000  0.4185210000000 1.0
C      1  0.5113960000000  0.5150720000000  0.3954100000000 1.0
C      1  0.5341500000000  0.5589790000000  0.4984560000000 1.0
C      1  0.5939050000000  0.5362800000000  0.4609430000000 1.0
C      1  0.4631690000000  0.4926820000000  0.5903090000000 1.0
C      1  0.5324280000000  0.4487520000000  0.5539200000000 1.0
C      1  0.5182050000000  0.5388040000000  0.4600440000000 1.0
C      1  0.5521570000000  0.5369920000000  0.4928830000000 1.0
C      1  0.5849860000000  0.4949520000000  0.4366090000000 1.0
C      1  0.5058050000000  0.4773700000000  0.5146750000000 1.0
C      1  0.4156000000000  0.5296730000000  0.4498340000000 1.0
C      1  0.5259110000000  0.5355610000000  0.5980860000000 1.0
C      1  0.4033130000000  0.5371180000000  0.4994290000000 1.0
C      1  0.4928280000000  0.3878020000000  0.4959470000000 1.0
C      1  0.5783620000000  0.4283220000000  0.5045100000000 1.0
C      1  0.4955350000000  0.5355240000000  0.4049000000000 1.0
C      1  0.4544810000000  0.5694850000000  0.4978300000000 1.0
C      1  0.4735850000000  0.5202680000000  0.5136590000000 1.0
C      1  0.4351340000000  0.4989280000000  0.4180990000000 1.0
C      1  0.5617200000000  0.5948710000000  0.5197180000000 1.0
C      1  0.5635020000000  0.5985560000000  0.4896100000000 1.0
C      1  0.5303090000000  0.4966040000000  0.4812670000000 1.0
C      1  0.5113580000000  0.5525590000000  0.5166380000000 1.0
C      1  0.4941870000000  0.4223750000000  0.4312930000000 1.0
C      1  0.4633990000000  0.4642840000000  0.5850100000000 1.0
C      1  0.5890070000000  0.4807930000000  0.5273100000000 1.0
C      1  0.5156400000000  0.5736420000000  0.4291760000000 1.0
C      1  0.5856420000000  0.5480840000000  0.5289950000000 1.0
C      1  0.4081800000000  0.4780870000000  0.4614750000000 1.0
C      1  0.4414580000000  0.5259360000000  0.4105440000000 1.0
C      1  0.5149030000000  0.4312840000000  0.5060050000000 1.0
C      1  0.4854470000000  0.5567040000000  0.5751110000000 1.0
C      1  0.5430100000000  0.4983620000000  0.5324640000000 1.0
C      1  0.4863530000000  0.5754530000000  0.5101320000000 1.0
C      1  0.5611080000000  0.5053010000000  0.5923090000000 1.0
C      1  0.4769200000000  0.4061100000000  0.4482900000000 1.0
C      1  0.5614160000000  0.5387510000000  0.4277740000000 1.0
C      1  0.5809490000000  0.5299530000000  0.5506060000000 1.0
C      1  0.5096370000000  0.4627050000000  0.6046380000000 1.0
C      1  0.5346190000000  0.5091240000000  0.6044420000000 1.0
C      1  0.5050560000000  0.4686490000000  0.4396280000000 1.0
C      1  0.3927500000000  0.4948670000000  0.5305960000000 1.0
C      1  0.4352590000000  0.5351830000000  0.5727750000000 1.0
C      1  0.4155350000000  0.4900860000000  0.5711610000000 1.0
C      1  0.5371680000000  0.5811930000000  0.4504680000000 1.0
C      1  0.4891090000000  0.4542200000000  0.5870330000000 1.0
C      1  0.5429910000000  0.6038190000000  0.4715320000000 1.0
C      1  0.5907250000000  0.4525420000000  0.4626650000000 1.0
C      1  0.4158550000000  0.4363890000000  0.4905630000000 1.0
C      1  0.4288750000000  0.5052630000000  0.5081610000000 1.0
C      1  0.4880400000000  0.4258610000000  0.5191320000000 1.0
C      1  0.4487500000000  0.5439890000000  0.4810940000000 1.0
C      1  0.3908950000000  0.4869200000000  0.4830330000000 1.0
C      1  0.4675960000000  0.5402840000000  0.4024640000000 1.0
C      1  0.4176180000000  0.4493940000000  0.4639690000000 1.0
C      1  0.5607660000000  0.5640510000000  0.4436450000000 1.0
C      1  0.4140120000000  0.5495820000000  0.5240350000000 1.0
C      1  0.4196350000000  0.4651110000000  0.5575180000000 1.0
C      1  0.5833640000000  0.5780930000000  0.4871970000000 1.0
C      1  0.5749880000000  0.4597280000000  0.5704270000000 1.0
C      1  0.4867990000000  0.4259020000000  0.5495760000000 1.0
C      1  0.5242030000000  0.5145910000000  0.5473150000000 1.0
C      1  0.4415760000000  0.5688830000000  0.4285250000000 1.0
C      1  0.4930210000000  0.4053190000000  0.4718990000000 1.0
C      1  0.4942520000000  0.4758520000000  0.5431360000000 1.0
C      1  0.4367400000000  0.4380420000000  0.4447190000000 1.0
C      1  0.5058290000000  0.4066440000000  0.5679350000000 1.0
C      1  0.5341590000000  0.4456050000000  0.4137360000000 1.0
C      1  0.4396070000000  0.4245360000000  0.5020260000000 1.0
C      1  0.5213240000000  0.6133850000000  0.5157620000000 1.0
C      1  0.4634000000000  0.5242260000000  0.5397170000000 1.0
C      1  0.4083690000000  0.4685260000000  0.5298960000000 1.0
C      1  0.4314480000000  0.4769040000000  0.5086900000000 1.0
C      1  0.4961730000000  0.5802010000000  0.5606260000000 1.0
C      1  0.4479760000000  0.4532480000000  0.5601470000000 1.0
C      1  0.5470180000000  0.5482610000000  0.5830840000000 1.0
C      1  0.5156480000000  0.5436220000000  0.4276140000000 1.0
C      1  0.4540540000000  0.5711970000000  0.5436460000000 1.0
C      1  0.3786230000000  0.4646760000000  0.4935870000000 1.0
C      1  0.5207840000000  0.6091340000000  0.4892540000000 1.0
C      1  0.5751610000000  0.4592840000000  0.5413240000000 1.0
C      1  0.5825560000000  0.5741560000000  0.5179440000000 1.0
C      1  0.5055930000000  0.4324520000000  0.4780020000000 1.0
C      1  0.4737440000000  0.5982010000000  0.4431100000000 1.0
C      1  0.4666330000000  0.5661960000000  0.4135720000000 1.0
C      1  0.6016890000000  0.4933230000000  0.4817880000000 1.0
C      1  0.4567920000000  0.4258740000000  0.5499310000000 1.0
C      1  0.5721280000000  0.4315920000000  0.5318350000000 1.0
C      1  0.4562830000000  0.4541190000000  0.4294290000000 1.0
C      1  0.4239160000000  0.4997350000000  0.4476270000000 1.0
C      1  0.4594290000000  0.5486520000000  0.5617190000000 1.0
C      1  0.4178270000000  0.5433300000000  0.4747210000000 1.0
C      1  0.5118060000000  0.4912390000000  0.6050140000000 1.0
C      1  0.4510650000000  0.5909650000000  0.4768650000000 1.0
C      1  0.4525030000000  0.5003540000000  0.5508300000000 1.0
C      1  0.4489850000000  0.4098390000000  0.5251490000000 1.0
C      1  0.4788230000000  0.5838990000000  0.5379300000000 1.0
C      1  0.5652340000000  0.4803450000000  0.4230220000000 1.0
C      1  0.4719080000000  0.5359840000000  0.4619360000000 1.0
C      1  0.5934120000000  0.4484720000000  0.4907120000000 1.0
C      1  0.4944040000000  0.4945920000000  0.4464620000000 1.0
C      1  0.5667790000000  0.4782160000000  0.5876410000000 1.0
C      1  0.5971600000000  0.5207380000000  0.4846360000000 1.0
C      1  0.4365620000000  0.5672500000000  0.5219490000000 1.0
C      1  0.5006550000000  0.4877280000000  0.3957180000000 1.0
C      1  0.4637300000000  0.4751310000000  0.5403450000000 1.0
C      1  0.5364770000000  0.5620010000000  0.5606600000000 1.0
C      1  0.5602050000000  0.4519240000000  0.4248080000000 1.0
C      1  0.4776220000000  0.6009070000000  0.4709880000000 1.0
C      1  0.5212350000000  0.5030660000000  0.5107950000000 1.0
C      1  0.5364480000000  0.6008910000000  0.5346780000000 1.0
C      1  0.4524330000000  0.4765940000000  0.4107540000000 1.0
C      1  0.5372760000000  0.5229370000000  0.4154680000000 1.0
C      1  0.5241770000000  0.5869320000000  0.5570980000000 1.0
C      1  0.5257420000000  0.4492820000000  0.4627070000000 1.0
C      1  0.4980390000000  0.5364040000000  0.5911350000000 1.0
C      1  0.5480800000000  0.4535180000000  0.5797200000000 1.0
C      1  0.5967550000000  0.4801620000000  0.4573550000000 1.0
C      1  0.4886080000000  0.5821330000000  0.4250700000000 1.0
C      1  0.5458550000000  0.4203900000000  0.5403760000000 1.0
C      1  0.4750120000000  0.3991640000000  0.5153890000000 1.0
C      1  0.4649750000000  0.4409390000000  0.5011810000000 1.0
C      1  0.5226680000000  0.4175460000000  0.5866310000000 1.0
C      1  0.4006800000000  0.5081510000000  0.5537580000000 1.0
C      1  0.4337030000000  0.5162870000000  0.5340400000000 1.0
C      1  0.4153290000000  0.5328640000000  0.5501600000000 1.0
C      1  0.4512530000000  0.5162290000000  0.4927590000000 1.0
C      1  0.5204210000000  0.4731980000000  0.4141250000000 1.0
END
