TITL C-25446-8863-20 0.117093585353506 125000 -1330.44660318431 0 0 189 (C1) n - 1
REM
REM in /rds/project/t2_vol4/rds-t2-cs072/BORA/CARBON/from-Arr/AIRSS/Generating-Clusters/GAP-ML-2020/Only-C1/SD-CG/HFTN-CG/C160-200
REM
REM
REM
REM
REM
REM ./C.cell (f2ad243b7eb7c0cd63fb1bbaf7e03044)
REM AIRSS Version 0.9.1 bugfix July 2018 build 013d7b7c2542+ Fri, 06 Jul 2018 19:26:36 +0100
REM compiler GCC version 9.3.0
REM options -cpp -mtune=generic -march=x86-64 -g -O0
REM seed -1332436142 -10898221 -454471291 912771146 -406285982 -777653497 -1102110819 1316186114 -1207434539 1255784623 -1511105524 -1842366311 69921605 -829438672 2051544191 -2102924552 1339876841 399514550 -1592478083 285260038 232945587 66630733 -955436126 783659275 -1970790174 1865997007 -1567384784 231441321 140073626 214193287 -1851491969 1260295612 233179050
REM
CELL 1.54180   50.00000   50.00000   50.00000   90.00000   90.00000   90.00000
LATT -1
SFAC C  
C      1  0.4854380000000  0.5392260000000  0.6054860000000 1.0
C      1  0.4263410000000  0.4759550000000  0.4594870000000 1.0
C      1  0.5812150000000  0.5532350000000  0.4544450000000 1.0
C      1  0.4820130000000  0.5886330000000  0.4144220000000 1.0
C      1  0.5486980000000  0.5606310000000  0.4215660000000 1.0
C      1  0.4879540000000  0.5586790000000  0.5092390000000 1.0
C      1  0.4702660000000  0.5442800000000  0.5777950000000 1.0
C      1  0.4009490000000  0.5499630000000  0.5313580000000 1.0
C      1  0.4403430000000  0.4457840000000  0.4961100000000 1.0
C      1  0.5298570000000  0.5139200000000  0.5347870000000 1.0
C      1  0.5755230000000  0.4821940000000  0.5912360000000 1.0
C      1  0.4648860000000  0.5628220000000  0.4170940000000 1.0
C      1  0.4005030000000  0.5280810000000  0.4629460000000 1.0
C      1  0.4481170000000  0.4285230000000  0.5192610000000 1.0
C      1  0.4335600000000  0.4280880000000  0.5612580000000 1.0
C      1  0.5070790000000  0.5752940000000  0.5805540000000 1.0
C      1  0.4869910000000  0.5268000000000  0.5358570000000 1.0
C      1  0.4457860000000  0.6031110000000  0.5048060000000 1.0
C      1  0.4686490000000  0.3896120000000  0.4941790000000 1.0
C      1  0.5173990000000  0.5235290000000  0.4929000000000 1.0
C      1  0.4547770000000  0.3958580000000  0.4685620000000 1.0
C      1  0.4332590000000  0.5005710000000  0.5653840000000 1.0
C      1  0.6099010000000  0.4998390000000  0.5238590000000 1.0
C      1  0.5007460000000  0.4889580000000  0.6079060000000 1.0
C      1  0.4734610000000  0.4275730000000  0.5851810000000 1.0
C      1  0.5324980000000  0.5744120000000  0.4869690000000 1.0
C      1  0.5027420000000  0.4241050000000  0.5601020000000 1.0
C      1  0.5402350000000  0.4532660000000  0.5985660000000 1.0
C      1  0.4706750000000  0.3972650000000  0.5451370000000 1.0
C      1  0.4947410000000  0.5215940000000  0.4145670000000 1.0
C      1  0.5485900000000  0.4729970000000  0.5444170000000 1.0
C      1  0.3909980000000  0.5422480000000  0.5061470000000 1.0
C      1  0.3978090000000  0.5528240000000  0.4803120000000 1.0
C      1  0.6087090000000  0.5008830000000  0.4692610000000 1.0
C      1  0.4107710000000  0.4439520000000  0.4935710000000 1.0
C      1  0.5736170000000  0.4908980000000  0.4237690000000 1.0
C      1  0.4957910000000  0.4476140000000  0.5410660000000 1.0
C      1  0.5432380000000  0.4478210000000  0.4659900000000 1.0
C      1  0.5898780000000  0.5434480000000  0.5240520000000 1.0
C      1  0.5262040000000  0.4888550000000  0.5504070000000 1.0
C      1  0.5551970000000  0.5072380000000  0.5166190000000 1.0
C      1  0.5004770000000  0.4767310000000  0.5467330000000 1.0
C      1  0.4991020000000  0.5533980000000  0.5379180000000 1.0
C      1  0.4410290000000  0.5486580000000  0.5712960000000 1.0
C      1  0.5522590000000  0.5077710000000  0.4150560000000 1.0
C      1  0.5656340000000  0.5399580000000  0.5691540000000 1.0
C      1  0.5016890000000  0.4236860000000  0.5879330000000 1.0
C      1  0.5630160000000  0.4608290000000  0.4846830000000 1.0
C      1  0.5269290000000  0.5779420000000  0.4165300000000 1.0
C      1  0.4226680000000  0.4751700000000  0.5615250000000 1.0
C      1  0.5140340000000  0.5266230000000  0.4390710000000 1.0
C      1  0.4444930000000  0.4577320000000  0.4080620000000 1.0
C      1  0.5381910000000  0.5972540000000  0.5295740000000 1.0
C      1  0.5744720000000  0.4363250000000  0.5696420000000 1.0
C      1  0.5491730000000  0.5615360000000  0.5563130000000 1.0
C      1  0.5869510000000  0.4638750000000  0.4647200000000 1.0
C      1  0.4677140000000  0.4491680000000  0.5322660000000 1.0
C      1  0.5000860000000  0.5490450000000  0.4558570000000 1.0
C      1  0.6096250000000  0.5248000000000  0.5105470000000 1.0
C      1  0.5034930000000  0.5723890000000  0.4025460000000 1.0
C      1  0.5851760000000  0.4934860000000  0.4515390000000 1.0
C      1  0.5584860000000  0.4136920000000  0.5149700000000 1.0
C      1  0.4513340000000  0.5158950000000  0.4932920000000 1.0
C      1  0.5944290000000  0.5033580000000  0.5499750000000 1.0
C      1  0.4676690000000  0.5099180000000  0.4258900000000 1.0
C      1  0.4226240000000  0.4290340000000  0.5354400000000 1.0
C      1  0.5436720000000  0.5323410000000  0.4317780000000 1.0
C      1  0.4753930000000  0.6094140000000  0.4604880000000 1.0
C      1  0.4738010000000  0.4824700000000  0.4387720000000 1.0
C      1  0.5283830000000  0.4237890000000  0.4773200000000 1.0
C      1  0.5796560000000  0.4472010000000  0.4402260000000 1.0
C      1  0.5208300000000  0.5918000000000  0.5076990000000 1.0
C      1  0.4908870000000  0.4860930000000  0.5163750000000 1.0
C      1  0.5244650000000  0.4962210000000  0.4821010000000 1.0
C      1  0.4573700000000  0.4128890000000  0.5658710000000 1.0
C      1  0.4045670000000  0.4469890000000  0.5226440000000 1.0
C      1  0.4988950000000  0.3971980000000  0.5487720000000 1.0
C      1  0.4876970000000  0.4922480000000  0.4632290000000 1.0
C      1  0.5577760000000  0.4314830000000  0.4451820000000 1.0
C      1  0.4375320000000  0.5724650000000  0.5544690000000 1.0
C      1  0.5422230000000  0.4535930000000  0.5249540000000 1.0
C      1  0.4174140000000  0.4915800000000  0.4359390000000 1.0
C      1  0.5261610000000  0.5424800000000  0.5485200000000 1.0
C      1  0.4617640000000  0.4494900000000  0.4756060000000 1.0
C      1  0.4613730000000  0.5264230000000  0.4488290000000 1.0
C      1  0.3902740000000  0.5137470000000  0.5061470000000 1.0
C      1  0.4747270000000  0.4006570000000  0.4479650000000 1.0
C      1  0.5674620000000  0.4547670000000  0.5915920000000 1.0
C      1  0.4230240000000  0.4284270000000  0.4498090000000 1.0
C      1  0.5529520000000  0.5949690000000  0.4512250000000 1.0
C      1  0.4613450000000  0.4770020000000  0.5245900000000 1.0
C      1  0.5165860000000  0.4964330000000  0.4539220000000 1.0
C      1  0.5347920000000  0.4200700000000  0.4318950000000 1.0
C      1  0.5155940000000  0.4440310000000  0.5199560000000 1.0
C      1  0.4905380000000  0.6046330000000  0.4364500000000 1.0
C      1  0.5323460000000  0.4907440000000  0.4036040000000 1.0
C      1  0.4709970000000  0.4221000000000  0.4292340000000 1.0
C      1  0.5298500000000  0.4799840000000  0.6050630000000 1.0
C      1  0.4109760000000  0.4496020000000  0.4666430000000 1.0
C      1  0.5465420000000  0.4051660000000  0.5404370000000 1.0
C      1  0.5325850000000  0.6066560000000  0.5555090000000 1.0
C      1  0.5316930000000  0.5841470000000  0.5703090000000 1.0
C      1  0.4229660000000  0.5265070000000  0.5680130000000 1.0
C      1  0.5673730000000  0.5740270000000  0.4386090000000 1.0
C      1  0.5512650000000  0.4187990000000  0.5660720000000 1.0
C      1  0.4598550000000  0.4008090000000  0.5189210000000 1.0
C      1  0.5419510000000  0.5428920000000  0.4884590000000 1.0
C      1  0.4561300000000  0.4976080000000  0.5464500000000 1.0
C      1  0.4967040000000  0.3852810000000  0.4874600000000 1.0
C      1  0.4313820000000  0.4832810000000  0.4117740000000 1.0
C      1  0.4101500000000  0.5196760000000  0.4371370000000 1.0
C      1  0.4783580000000  0.4779260000000  0.5910310000000 1.0
C      1  0.4299860000000  0.4050740000000  0.4612590000000 1.0
C      1  0.4352680000000  0.5857970000000  0.4679400000000 1.0
C      1  0.4995480000000  0.3920680000000  0.4594160000000 1.0
C      1  0.5062310000000  0.4335720000000  0.4954080000000 1.0
C      1  0.4361480000000  0.4745790000000  0.5082250000000 1.0
C      1  0.4268000000000  0.5317620000000  0.4157030000000 1.0
C      1  0.6081640000000  0.4755050000000  0.4826660000000 1.0
C      1  0.5670090000000  0.4632990000000  0.4200210000000 1.0
C      1  0.4898780000000  0.4370180000000  0.4131660000000 1.0
C      1  0.5218420000000  0.5927640000000  0.4418750000000 1.0
C      1  0.5214090000000  0.3903210000000  0.5330270000000 1.0
C      1  0.5053460000000  0.5126660000000  0.5190580000000 1.0
C      1  0.4122550000000  0.5777720000000  0.4833500000000 1.0
C      1  0.4623670000000  0.5855210000000  0.5488800000000 1.0
C      1  0.5525400000000  0.4912640000000  0.4898110000000 1.0
C      1  0.4840930000000  0.5683730000000  0.5614030000000 1.0
C      1  0.3977470000000  0.5019910000000  0.5307180000000 1.0
C      1  0.4979700000000  0.4779090000000  0.4883920000000 1.0
C      1  0.5201630000000  0.4378360000000  0.4146640000000 1.0
C      1  0.4440920000000  0.5082610000000  0.4082490000000 1.0
C      1  0.5299500000000  0.4289510000000  0.5856950000000 1.0
C      1  0.5953860000000  0.4879540000000  0.5739690000000 1.0
C      1  0.4293060000000  0.4934110000000  0.4852970000000 1.0
C      1  0.4908840000000  0.5888370000000  0.5060320000000 1.0
C      1  0.5928040000000  0.4447650000000  0.5509930000000 1.0
C      1  0.4477220000000  0.5456350000000  0.4894980000000 1.0
C      1  0.4363700000000  0.4538610000000  0.5743020000000 1.0
C      1  0.5050840000000  0.4967700000000  0.4016180000000 1.0
C      1  0.5601080000000  0.5783550000000  0.5345560000000 1.0
C      1  0.5576830000000  0.5907520000000  0.4791050000000 1.0
C      1  0.4804050000000  0.4921160000000  0.5648480000000 1.0
C      1  0.4889190000000  0.5205270000000  0.5654400000000 1.0
C      1  0.5670260000000  0.5075780000000  0.4695130000000 1.0
C      1  0.4724670000000  0.4560600000000  0.3995760000000 1.0
C      1  0.4891190000000  0.4510720000000  0.4823360000000 1.0
C      1  0.5804900000000  0.5849570000000  0.4929440000000 1.0
C      1  0.4497140000000  0.6086790000000  0.4757350000000 1.0
C      1  0.5201970000000  0.3867750000000  0.5044700000000 1.0
C      1  0.4856630000000  0.5876590000000  0.4767380000000 1.0
C      1  0.4586520000000  0.5663280000000  0.4693700000000 1.0
C      1  0.6038650000000  0.5493750000000  0.4683260000000 1.0
C      1  0.5670490000000  0.4432540000000  0.5106620000000 1.0
C      1  0.5093680000000  0.5519270000000  0.5953300000000 1.0
C      1  0.4109800000000  0.4747340000000  0.5328650000000 1.0
C      1  0.5221290000000  0.4073510000000  0.4537330000000 1.0
C      1  0.5618790000000  0.5340730000000  0.5083540000000 1.0
C      1  0.4046310000000  0.5255710000000  0.5466290000000 1.0
C      1  0.5519410000000  0.4983410000000  0.5982050000000 1.0
C      1  0.5694490000000  0.4915560000000  0.5358090000000 1.0
C      1  0.4168650000000  0.5734050000000  0.5341800000000 1.0
C      1  0.5820240000000  0.5723520000000  0.5179460000000 1.0
C      1  0.4866470000000  0.4765020000000  0.4109510000000 1.0
C      1  0.4016370000000  0.5063130000000  0.4818450000000 1.0
C      1  0.6087210000000  0.4733840000000  0.5107880000000 1.0
C      1  0.5574250000000  0.5337630000000  0.4611950000000 1.0
C      1  0.4592950000000  0.5504480000000  0.5144030000000 1.0
C      1  0.5115830000000  0.5755720000000  0.4645850000000 1.0
C      1  0.5936680000000  0.4513940000000  0.5244250000000 1.0
C      1  0.4590740000000  0.5222290000000  0.5244030000000 1.0
C      1  0.4669820000000  0.5987060000000  0.5230810000000 1.0
C      1  0.5477460000000  0.5231650000000  0.5850660000000 1.0
C      1  0.4920100000000  0.5143510000000  0.6144660000000 1.0
C      1  0.4703800000000  0.5532320000000  0.4459640000000 1.0
C      1  0.4531620000000  0.4630040000000  0.4510000000000 1.0
C      1  0.5302080000000  0.4693480000000  0.4469470000000 1.0
C      1  0.4946310000000  0.5376970000000  0.4831050000000 1.0
C      1  0.4883430000000  0.5483620000000  0.4029820000000 1.0
C      1  0.4376280000000  0.5560430000000  0.4113060000000 1.0
C      1  0.5421210000000  0.4030070000000  0.4942280000000 1.0
C      1  0.5189070000000  0.5313870000000  0.5759530000000 1.0
C      1  0.4619240000000  0.4540500000000  0.5884140000000 1.0
C      1  0.4732920000000  0.5165390000000  0.4734910000000 1.0
C      1  0.6127200000000  0.5266170000000  0.4814190000000 1.0
C      1  0.4207420000000  0.5879010000000  0.5093020000000 1.0
C      1  0.5371460000000  0.4634500000000  0.4156000000000 1.0
C      1  0.5872060000000  0.5326300000000  0.5519350000000 1.0
C      1  0.4453830000000  0.4396140000000  0.4316310000000 1.0
END
