TITL C-25446-8863-16 -0.360496886639327 125000 -1401.06097611606 0 0 200 (C1) n - 1
REM
REM in /rds/project/t2_vol4/rds-t2-cs072/BORA/CARBON/from-Arr/AIRSS/Generating-Clusters/GAP-ML-2020/Only-C1/SD-CG/HFTN-CG/C160-200
REM
REM
REM
REM
REM
REM ./C.cell (f2ad243b7eb7c0cd63fb1bbaf7e03044)
REM AIRSS Version 0.9.1 bugfix July 2018 build 013d7b7c2542+ Fri, 06 Jul 2018 19:26:36 +0100
REM compiler GCC version 9.3.0
REM options -cpp -mtune=generic -march=x86-64 -g -O0
REM seed 460625578 1998503295 513884100 79982078 1611375874 378152015 -1586338458 -579997766 296211999 -1823429222 780678979 1628079156 1834279896 345538952 391734900 -1405911072 -1219951253 -745496287 1190741645 1885638580 -511541701 -822856878 738118440 2046622389 1658344626 -1038788238 -760969150 2057629987 -793463884 -1567421094 -1444799877 1479772034 456759749
REM
CELL 1.54180   50.00000   50.00000   50.00000   90.00000   90.00000   90.00000
LATT -1
SFAC C  
C      1  0.4780930000000  0.4829240000000  0.6117820000000 1.0
C      1  0.5005130000000  0.5499220000000  0.5614900000000 1.0
C      1  0.4156450000000  0.5629910000000  0.4380580000000 1.0
C      1  0.5927180000000  0.5278630000000  0.4813090000000 1.0
C      1  0.4645180000000  0.5331760000000  0.6015770000000 1.0
C      1  0.5221860000000  0.4687600000000  0.6026370000000 1.0
C      1  0.4638910000000  0.5048360000000  0.3929950000000 1.0
C      1  0.5656140000000  0.4613990000000  0.5807340000000 1.0
C      1  0.4720640000000  0.3994580000000  0.4530020000000 1.0
C      1  0.4874120000000  0.4402940000000  0.5914930000000 1.0
C      1  0.5307310000000  0.6010620000000  0.5165190000000 1.0
C      1  0.4981200000000  0.5677370000000  0.5138540000000 1.0
C      1  0.5093990000000  0.4931910000000  0.4650090000000 1.0
C      1  0.4909550000000  0.4822030000000  0.5623970000000 1.0
C      1  0.4534500000000  0.4492920000000  0.5492770000000 1.0
C      1  0.4523260000000  0.5659910000000  0.4137560000000 1.0
C      1  0.5562880000000  0.4358780000000  0.5732660000000 1.0
C      1  0.5004930000000  0.4979250000000  0.4918160000000 1.0
C      1  0.4960380000000  0.4156740000000  0.5462550000000 1.0
C      1  0.5226830000000  0.5171840000000  0.4509000000000 1.0
C      1  0.6056900000000  0.5170990000000  0.5474830000000 1.0
C      1  0.4280270000000  0.3993440000000  0.5187530000000 1.0
C      1  0.5850270000000  0.4742090000000  0.5637060000000 1.0
C      1  0.3940570000000  0.4805460000000  0.5011490000000 1.0
C      1  0.4738730000000  0.5055510000000  0.4962270000000 1.0
C      1  0.5133910000000  0.4967470000000  0.5507590000000 1.0
C      1  0.5312070000000  0.5581320000000  0.5950940000000 1.0
C      1  0.5162860000000  0.3908220000000  0.4676500000000 1.0
C      1  0.4669740000000  0.5317920000000  0.5067970000000 1.0
C      1  0.6120780000000  0.4905400000000  0.4797740000000 1.0
C      1  0.5157330000000  0.3934720000000  0.5401750000000 1.0
C      1  0.5608030000000  0.4257160000000  0.5457970000000 1.0
C      1  0.4862330000000  0.5924290000000  0.4306010000000 1.0
C      1  0.5337550000000  0.5314870000000  0.3917770000000 1.0
C      1  0.5779000000000  0.5802490000000  0.5107660000000 1.0
C      1  0.5678110000000  0.5121140000000  0.4207100000000 1.0
C      1  0.4053030000000  0.4825590000000  0.4358470000000 1.0
C      1  0.4769040000000  0.5568800000000  0.4014240000000 1.0
C      1  0.5802810000000  0.5785910000000  0.4822000000000 1.0
C      1  0.4677650000000  0.4585200000000  0.5989180000000 1.0
C      1  0.5028270000000  0.4238270000000  0.5741980000000 1.0
C      1  0.4993840000000  0.3925570000000  0.4913380000000 1.0
C      1  0.4518750000000  0.5015800000000  0.5422690000000 1.0
C      1  0.5508660000000  0.4742350000000  0.4894930000000 1.0
C      1  0.4607530000000  0.4440460000000  0.4849690000000 1.0
C      1  0.5906030000000  0.5019020000000  0.4625700000000 1.0
C      1  0.6002700000000  0.4448450000000  0.4838200000000 1.0
C      1  0.4042650000000  0.5209750000000  0.4665860000000 1.0
C      1  0.5122840000000  0.5481000000000  0.5356410000000 1.0
C      1  0.5303440000000  0.4751820000000  0.5343980000000 1.0
C      1  0.4844190000000  0.4505990000000  0.4082550000000 1.0
C      1  0.4840020000000  0.5509570000000  0.4946560000000 1.0
C      1  0.5515360000000  0.5094150000000  0.3948900000000 1.0
C      1  0.4414590000000  0.4062780000000  0.5426010000000 1.0
C      1  0.6011590000000  0.5457920000000  0.5438540000000 1.0
C      1  0.4209000000000  0.5424400000000  0.5200220000000 1.0
C      1  0.4843660000000  0.5924250000000  0.5300550000000 1.0
C      1  0.4867560000000  0.4808010000000  0.4479460000000 1.0
C      1  0.4122070000000  0.4611920000000  0.4874770000000 1.0
C      1  0.4855620000000  0.5731550000000  0.5910090000000 1.0
C      1  0.4696340000000  0.3910820000000  0.4809040000000 1.0
C      1  0.5331840000000  0.4513410000000  0.4165290000000 1.0
C      1  0.5047230000000  0.4603520000000  0.5809250000000 1.0
C      1  0.4517360000000  0.4924560000000  0.4847110000000 1.0
C      1  0.5164330000000  0.3817340000000  0.5143140000000 1.0
C      1  0.5760440000000  0.4662840000000  0.4436560000000 1.0
C      1  0.4985900000000  0.4909150000000  0.4228590000000 1.0
C      1  0.4614000000000  0.5725990000000  0.5747420000000 1.0
C      1  0.4580210000000  0.4326850000000  0.4100200000000 1.0
C      1  0.5850340000000  0.4329520000000  0.5300890000000 1.0
C      1  0.4832140000000  0.4523150000000  0.4407240000000 1.0
C      1  0.4274060000000  0.5508900000000  0.4171040000000 1.0
C      1  0.4906200000000  0.4425650000000  0.4834410000000 1.0
C      1  0.5343010000000  0.4876640000000  0.3924030000000 1.0
C      1  0.5471790000000  0.5057270000000  0.5962410000000 1.0
C      1  0.4848370000000  0.4826010000000  0.3974450000000 1.0
C      1  0.4340710000000  0.5198740000000  0.4758340000000 1.0
C      1  0.5453270000000  0.4999500000000  0.4408380000000 1.0
C      1  0.4060740000000  0.4372550000000  0.5436630000000 1.0
C      1  0.4209310000000  0.5783780000000  0.4594700000000 1.0
C      1  0.3918840000000  0.5060850000000  0.4898710000000 1.0
C      1  0.5123950000000  0.4320910000000  0.5257170000000 1.0
C      1  0.5108750000000  0.4410050000000  0.4049430000000 1.0
C      1  0.4290630000000  0.4746410000000  0.4163640000000 1.0
C      1  0.5924320000000  0.4455960000000  0.4562970000000 1.0
C      1  0.4628090000000  0.4921660000000  0.5703690000000 1.0
C      1  0.5440460000000  0.3967100000000  0.4794580000000 1.0
C      1  0.5530900000000  0.5910540000000  0.5551250000000 1.0
C      1  0.5564460000000  0.5758240000000  0.4628300000000 1.0
C      1  0.4016370000000  0.5847620000000  0.5051780000000 1.0
C      1  0.3945030000000  0.5286120000000  0.5085500000000 1.0
C      1  0.5244010000000  0.5658380000000  0.4279340000000 1.0
C      1  0.5018350000000  0.4351100000000  0.4545340000000 1.0
C      1  0.5319470000000  0.4194760000000  0.5753220000000 1.0
C      1  0.5954240000000  0.4586960000000  0.5405880000000 1.0
C      1  0.6142590000000  0.5124820000000  0.4971650000000 1.0
C      1  0.3924720000000  0.4832990000000  0.5297650000000 1.0
C      1  0.4190320000000  0.5025720000000  0.5846210000000 1.0
C      1  0.5426020000000  0.5505640000000  0.4111770000000 1.0
C      1  0.4183320000000  0.5740590000000  0.5237620000000 1.0
C      1  0.4667590000000  0.4215630000000  0.5358040000000 1.0
C      1  0.5666740000000  0.5419670000000  0.4241870000000 1.0
C      1  0.5264730000000  0.4693610000000  0.4744400000000 1.0
C      1  0.4732640000000  0.5225980000000  0.5349740000000 1.0
C      1  0.4454650000000  0.4670350000000  0.4986800000000 1.0
C      1  0.5063500000000  0.4887750000000  0.6140720000000 1.0
C      1  0.5541350000000  0.5250450000000  0.5461270000000 1.0
C      1  0.4071530000000  0.4351530000000  0.4955710000000 1.0
C      1  0.5570110000000  0.5941430000000  0.5259990000000 1.0
C      1  0.5254830000000  0.5954330000000  0.5618270000000 1.0
C      1  0.4998850000000  0.5187220000000  0.4324640000000 1.0
C      1  0.5297790000000  0.4433350000000  0.4597140000000 1.0
C      1  0.5740140000000  0.5571630000000  0.4463800000000 1.0
C      1  0.5879080000000  0.4946810000000  0.4331690000000 1.0
C      1  0.4474930000000  0.5906700000000  0.4595630000000 1.0
C      1  0.6122810000000  0.4668330000000  0.4951570000000 1.0
C      1  0.5414830000000  0.4425810000000  0.5284050000000 1.0
C      1  0.4401590000000  0.4673370000000  0.4464440000000 1.0
C      1  0.4196410000000  0.4754390000000  0.5722000000000 1.0
C      1  0.4781610000000  0.5311530000000  0.4492790000000 1.0
C      1  0.4946080000000  0.6002930000000  0.4770740000000 1.0
C      1  0.4399310000000  0.5368770000000  0.4980520000000 1.0
C      1  0.4563650000000  0.4188490000000  0.4373590000000 1.0
C      1  0.5282650000000  0.6149380000000  0.4418480000000 1.0
C      1  0.5226530000000  0.5129720000000  0.6099470000000 1.0
C      1  0.4371220000000  0.5014140000000  0.4033110000000 1.0
C      1  0.4616430000000  0.5874850000000  0.5501520000000 1.0
C      1  0.5879840000000  0.5544050000000  0.5198490000000 1.0
C      1  0.5883630000000  0.5030420000000  0.5659560000000 1.0
C      1  0.5219090000000  0.5126040000000  0.5068940000000 1.0
C      1  0.5195410000000  0.5477440000000  0.4590480000000 1.0
C      1  0.3938170000000  0.5453000000000  0.4814930000000 1.0
C      1  0.4321680000000  0.5007970000000  0.6078840000000 1.0
C      1  0.5924460000000  0.5554450000000  0.4685980000000 1.0
C      1  0.4205560000000  0.5222260000000  0.4155300000000 1.0
C      1  0.5392930000000  0.4033560000000  0.5534110000000 1.0
C      1  0.4485980000000  0.4653460000000  0.5751130000000 1.0
C      1  0.4619010000000  0.6000410000000  0.5102790000000 1.0
C      1  0.5695670000000  0.4107190000000  0.4750440000000 1.0
C      1  0.4512960000000  0.5433830000000  0.5779800000000 1.0
C      1  0.5071000000000  0.5216400000000  0.3830690000000 1.0
C      1  0.4019390000000  0.5716520000000  0.4807460000000 1.0
C      1  0.4265950000000  0.5281190000000  0.5707680000000 1.0
C      1  0.4583850000000  0.4218510000000  0.5047500000000 1.0
C      1  0.5734090000000  0.4251910000000  0.4510940000000 1.0
C      1  0.5045490000000  0.4659470000000  0.4948010000000 1.0
C      1  0.5939590000000  0.5647750000000  0.5614420000000 1.0
C      1  0.5086260000000  0.4934620000000  0.3815300000000 1.0
C      1  0.5127030000000  0.5758430000000  0.5800210000000 1.0
C      1  0.5525830000000  0.4438080000000  0.4386840000000 1.0
C      1  0.5050200000000  0.5189310000000  0.5325810000000 1.0
C      1  0.5024340000000  0.6062940000000  0.4501160000000 1.0
C      1  0.5000430000000  0.4060590000000  0.4503630000000 1.0
C      1  0.5347340000000  0.4263850000000  0.4846840000000 1.0
C      1  0.5726960000000  0.5315890000000  0.5041130000000 1.0
C      1  0.5057830000000  0.4610200000000  0.5230900000000 1.0
C      1  0.5283860000000  0.4804030000000  0.4207070000000 1.0
C      1  0.6139630000000  0.5030160000000  0.5244970000000 1.0
C      1  0.5399460000000  0.3795890000000  0.5016520000000 1.0
C      1  0.4802530000000  0.5300330000000  0.3891620000000 1.0
C      1  0.4869350000000  0.5494660000000  0.6068050000000 1.0
C      1  0.4557560000000  0.4434180000000  0.4535910000000 1.0
C      1  0.5696910000000  0.5729920000000  0.5707800000000 1.0
C      1  0.4236820000000  0.5211680000000  0.5429330000000 1.0
C      1  0.5623540000000  0.5215510000000  0.5755370000000 1.0
C      1  0.5488140000000  0.4775970000000  0.5966950000000 1.0
C      1  0.4825250000000  0.4698050000000  0.5374810000000 1.0
C      1  0.3972520000000  0.5108710000000  0.5332910000000 1.0
C      1  0.5158960000000  0.5851810000000  0.4950000000000 1.0
C      1  0.4363690000000  0.4488820000000  0.4049200000000 1.0
C      1  0.5806840000000  0.4302700000000  0.4993610000000 1.0
C      1  0.4592110000000  0.5863740000000  0.4338030000000 1.0
C      1  0.5527390000000  0.4444420000000  0.5008200000000 1.0
C      1  0.4587790000000  0.4894180000000  0.4555890000000 1.0
C      1  0.5076630000000  0.4225610000000  0.4980320000000 1.0
C      1  0.4037620000000  0.5110700000000  0.4370830000000 1.0
C      1  0.4069580000000  0.4202650000000  0.5173790000000 1.0
C      1  0.5565720000000  0.5518110000000  0.5850400000000 1.0
C      1  0.5118960000000  0.6038640000000  0.5379550000000 1.0
C      1  0.6103780000000  0.4744660000000  0.5226120000000 1.0
C      1  0.4981970000000  0.5726420000000  0.4146700000000 1.0
C      1  0.5139770000000  0.5399310000000  0.6089830000000 1.0
C      1  0.5341010000000  0.5618110000000  0.4806350000000 1.0
C      1  0.5444780000000  0.4919730000000  0.5135730000000 1.0
C      1  0.4028250000000  0.4654270000000  0.5499230000000 1.0
C      1  0.5401930000000  0.5460810000000  0.5314820000000 1.0
C      1  0.5420140000000  0.5392620000000  0.5015900000000 1.0
C      1  0.4534140000000  0.5192020000000  0.4528520000000 1.0
C      1  0.4138830000000  0.4676580000000  0.4584130000000 1.0
C      1  0.4470050000000  0.3960450000000  0.4973300000000 1.0
C      1  0.4599880000000  0.5043370000000  0.6033420000000 1.0
C      1  0.4913240000000  0.5476600000000  0.4675690000000 1.0
C      1  0.4544330000000  0.4726160000000  0.5285670000000 1.0
C      1  0.4741430000000  0.5401760000000  0.5582160000000 1.0
C      1  0.5654730000000  0.5093880000000  0.5237720000000 1.0
C      1  0.4295350000000  0.4284220000000  0.5550730000000 1.0
C      1  0.4420540000000  0.5899940000000  0.5293260000000 1.0
C      1  0.4659910000000  0.5991610000000  0.4817960000000 1.0
C      1  0.5637060000000  0.4860220000000  0.4634860000000 1.0
C      1  0.5383380000000  0.5897720000000  0.4422860000000 1.0
END
