TITL C-25446-8863-21 -0.170459213158529 125000 -1160.19572847917 0 0 166 (C1) n - 1
REM
REM in /rds/project/t2_vol4/rds-t2-cs072/BORA/CARBON/from-Arr/AIRSS/Generating-Clusters/GAP-ML-2020/Only-C1/SD-CG/HFTN-CG/C160-200
REM
REM
REM
REM
REM
REM ./C.cell (f2ad243b7eb7c0cd63fb1bbaf7e03044)
REM AIRSS Version 0.9.1 bugfix July 2018 build 013d7b7c2542+ Fri, 06 Jul 2018 19:26:36 +0100
REM compiler GCC version 9.3.0
REM options -cpp -mtune=generic -march=x86-64 -g -O0
REM seed 1986000138 -921294193 712175706 1171574874 1271392262 -1482730056 71932159 -436468163 1690708879 36753407 1955129956 -1360878520 1931486267 -1908374840 1651607513 -1746379678 1442433711 -318898244 -1297529228 761808128 -1763206873 -991192225 348884221 -420934936 179487296 6954510 -178556897 -2030036396 1490220063 1294276061 2136968902 503618796 877940175
REM
CELL 1.54180   50.00000   50.00000   50.00000   90.00000   90.00000   90.00000
LATT -1
SFAC C  
C      1  0.4544740000000  0.5762360000000  0.5544280000000 1.0
C      1  0.5351240000000  0.4719590000000  0.4702010000000 1.0
C      1  0.4652240000000  0.4696150000000  0.5992660000000 1.0
C      1  0.4777860000000  0.5065780000000  0.3823530000000 1.0
C      1  0.5631920000000  0.4368380000000  0.4371350000000 1.0
C      1  0.5733920000000  0.4919060000000  0.5016930000000 1.0
C      1  0.4618410000000  0.5782640000000  0.4337770000000 1.0
C      1  0.4853480000000  0.4478820000000  0.5948140000000 1.0
C      1  0.4417520000000  0.4996560000000  0.4360020000000 1.0
C      1  0.4350010000000  0.4618310000000  0.5017030000000 1.0
C      1  0.4980780000000  0.4145700000000  0.4668230000000 1.0
C      1  0.4122760000000  0.5111180000000  0.5374810000000 1.0
C      1  0.5645420000000  0.4643380000000  0.5077970000000 1.0
C      1  0.5345610000000  0.5858940000000  0.5214520000000 1.0
C      1  0.4438580000000  0.5866100000000  0.5080780000000 1.0
C      1  0.4435330000000  0.5719760000000  0.4552660000000 1.0
C      1  0.4850910000000  0.3945350000000  0.4869690000000 1.0
C      1  0.5690560000000  0.4324340000000  0.5456700000000 1.0
C      1  0.4982530000000  0.5493630000000  0.5476400000000 1.0
C      1  0.4823590000000  0.5276930000000  0.5600960000000 1.0
C      1  0.4011460000000  0.4971830000000  0.4913560000000 1.0
C      1  0.4992280000000  0.6039620000000  0.4943870000000 1.0
C      1  0.4718810000000  0.4968920000000  0.6060400000000 1.0
C      1  0.4738090000000  0.5695080000000  0.5738430000000 1.0
C      1  0.5466280000000  0.5598520000000  0.4445920000000 1.0
C      1  0.4328790000000  0.5124920000000  0.5790110000000 1.0
C      1  0.5853770000000  0.4275550000000  0.4536310000000 1.0
C      1  0.4994730000000  0.5752800000000  0.5615080000000 1.0
C      1  0.4519220000000  0.4416580000000  0.5672690000000 1.0
C      1  0.5032920000000  0.5536300000000  0.5035290000000 1.0
C      1  0.4964230000000  0.5005800000000  0.5584990000000 1.0
C      1  0.4726250000000  0.5227600000000  0.4791660000000 1.0
C      1  0.4985780000000  0.5066770000000  0.6108210000000 1.0
C      1  0.5043090000000  0.4362320000000  0.4884020000000 1.0
C      1  0.4437150000000  0.4699420000000  0.4270850000000 1.0
C      1  0.5466050000000  0.4043510000000  0.4784750000000 1.0
C      1  0.4732220000000  0.4738910000000  0.4733320000000 1.0
C      1  0.5208500000000  0.5089430000000  0.4478780000000 1.0
C      1  0.4961570000000  0.5284920000000  0.3872460000000 1.0
C      1  0.4304080000000  0.5613940000000  0.5481500000000 1.0
C      1  0.5684780000000  0.4663680000000  0.4349320000000 1.0
C      1  0.5509780000000  0.5117430000000  0.4411140000000 1.0
C      1  0.5670620000000  0.4236130000000  0.4741790000000 1.0
C      1  0.4573540000000  0.4953620000000  0.5358080000000 1.0
C      1  0.4334930000000  0.5291050000000  0.4289230000000 1.0
C      1  0.5425980000000  0.5159310000000  0.6032830000000 1.0
C      1  0.4733870000000  0.4274430000000  0.5781930000000 1.0
C      1  0.5570460000000  0.5409820000000  0.5050880000000 1.0
C      1  0.5186970000000  0.4784740000000  0.4959630000000 1.0
C      1  0.4029820000000  0.5086280000000  0.4660980000000 1.0
C      1  0.5581350000000  0.4878830000000  0.4576200000000 1.0
C      1  0.4934490000000  0.5363500000000  0.4633190000000 1.0
C      1  0.4883080000000  0.4600190000000  0.5294490000000 1.0
C      1  0.5156750000000  0.4799310000000  0.4461520000000 1.0
C      1  0.5248000000000  0.4392920000000  0.5642610000000 1.0
C      1  0.5005660000000  0.5629350000000  0.4750010000000 1.0
C      1  0.4418370000000  0.4711810000000  0.4725340000000 1.0
C      1  0.4618100000000  0.5366430000000  0.5185880000000 1.0
C      1  0.4407050000000  0.4310790000000  0.5024690000000 1.0
C      1  0.5579460000000  0.4643390000000  0.5867130000000 1.0
C      1  0.5127250000000  0.4855040000000  0.3960620000000 1.0
C      1  0.4334940000000  0.4525030000000  0.4496230000000 1.0
C      1  0.4250910000000  0.4848600000000  0.5716870000000 1.0
C      1  0.4557420000000  0.5181100000000  0.5951120000000 1.0
C      1  0.4213410000000  0.5087080000000  0.5097100000000 1.0
C      1  0.5524940000000  0.4482350000000  0.4837770000000 1.0
C      1  0.4754960000000  0.5404920000000  0.5869110000000 1.0
C      1  0.4015180000000  0.5364940000000  0.4641390000000 1.0
C      1  0.5183270000000  0.4620810000000  0.5414820000000 1.0
C      1  0.4622420000000  0.4440220000000  0.5403990000000 1.0
C      1  0.5467170000000  0.5360480000000  0.4792230000000 1.0
C      1  0.5987680000000  0.4698050000000  0.5426660000000 1.0
C      1  0.5254030000000  0.4946490000000  0.6112190000000 1.0
C      1  0.5936090000000  0.4730400000000  0.4544190000000 1.0
C      1  0.5872060000000  0.5479010000000  0.5066420000000 1.0
C      1  0.4460840000000  0.4155970000000  0.4790960000000 1.0
C      1  0.5171920000000  0.4406540000000  0.4202380000000 1.0
C      1  0.4956710000000  0.5239330000000  0.4380730000000 1.0
C      1  0.4922650000000  0.5552570000000  0.3993830000000 1.0
C      1  0.5133900000000  0.4495650000000  0.5910410000000 1.0
C      1  0.5261280000000  0.5774230000000  0.4610150000000 1.0
C      1  0.5310360000000  0.5113660000000  0.5289110000000 1.0
C      1  0.4497880000000  0.5382290000000  0.4084700000000 1.0
C      1  0.4290010000000  0.5298070000000  0.5542380000000 1.0
C      1  0.4724610000000  0.4634000000000  0.4162220000000 1.0
C      1  0.4586300000000  0.3904640000000  0.4824350000000 1.0
C      1  0.5328460000000  0.4681660000000  0.6011980000000 1.0
C      1  0.5620020000000  0.5361900000000  0.4546620000000 1.0
C      1  0.4426680000000  0.4644580000000  0.5823630000000 1.0
C      1  0.4119210000000  0.5543540000000  0.5033120000000 1.0
C      1  0.4813980000000  0.5899110000000  0.4747190000000 1.0
C      1  0.5408140000000  0.5440030000000  0.5676910000000 1.0
C      1  0.5614890000000  0.4129800000000  0.5289240000000 1.0
C      1  0.4296660000000  0.5448240000000  0.4531630000000 1.0
C      1  0.4856470000000  0.4800490000000  0.3930520000000 1.0
C      1  0.5870620000000  0.5560460000000  0.5562150000000 1.0
C      1  0.4070230000000  0.4551780000000  0.4665680000000 1.0
C      1  0.4852430000000  0.4793360000000  0.4452270000000 1.0
C      1  0.5564100000000  0.5071910000000  0.4134520000000 1.0
C      1  0.3918880000000  0.5505120000000  0.4851580000000 1.0
C      1  0.4876980000000  0.5247180000000  0.5047950000000 1.0
C      1  0.4433840000000  0.5261330000000  0.4740800000000 1.0
C      1  0.5409110000000  0.4084570000000  0.5100450000000 1.0
C      1  0.4653490000000  0.5877480000000  0.5278390000000 1.0
C      1  0.4230830000000  0.5718970000000  0.5219370000000 1.0
C      1  0.4805300000000  0.4841290000000  0.5429330000000 1.0
C      1  0.5270070000000  0.4688630000000  0.4150070000000 1.0
C      1  0.5667980000000  0.5134510000000  0.5894470000000 1.0
C      1  0.5133650000000  0.4123590000000  0.5534340000000 1.0
C      1  0.4098440000000  0.4651460000000  0.5195430000000 1.0
C      1  0.5551810000000  0.4783310000000  0.4124950000000 1.0
C      1  0.5175290000000  0.4002190000000  0.5271240000000 1.0
C      1  0.5215530000000  0.4921510000000  0.5491350000000 1.0
C      1  0.5416470000000  0.5282780000000  0.4025510000000 1.0
C      1  0.5097890000000  0.5854790000000  0.4364810000000 1.0
C      1  0.5223220000000  0.5213430000000  0.4761700000000 1.0
C      1  0.4526750000000  0.5850650000000  0.4800940000000 1.0
C      1  0.4837750000000  0.5922830000000  0.4449940000000 1.0
C      1  0.5361530000000  0.4256870000000  0.4357090000000 1.0
C      1  0.6002590000000  0.5417570000000  0.4838370000000 1.0
C      1  0.5139580000000  0.5684990000000  0.4135470000000 1.0
C      1  0.4507190000000  0.4278340000000  0.4538460000000 1.0
C      1  0.3997600000000  0.4688930000000  0.4928600000000 1.0
C      1  0.4310240000000  0.4993660000000  0.4632310000000 1.0
C      1  0.4732240000000  0.5050080000000  0.4326980000000 1.0
C      1  0.4571070000000  0.5231530000000  0.5436890000000 1.0
C      1  0.5310020000000  0.4360190000000  0.5005790000000 1.0
C      1  0.5600880000000  0.5904700000000  0.5346790000000 1.0
C      1  0.5827950000000  0.4961560000000  0.4726120000000 1.0
C      1  0.4921620000000  0.3949150000000  0.5153500000000 1.0
C      1  0.5787840000000  0.5822320000000  0.5497300000000 1.0
C      1  0.5093220000000  0.5933370000000  0.5398940000000 1.0
C      1  0.4724250000000  0.4033230000000  0.5343610000000 1.0
C      1  0.5336980000000  0.4617840000000  0.5166340000000 1.0
C      1  0.5269470000000  0.4097260000000  0.4578320000000 1.0
C      1  0.5686340000000  0.5341950000000  0.5680510000000 1.0
C      1  0.5006480000000  0.5333830000000  0.6006190000000 1.0
C      1  0.5152880000000  0.5082020000000  0.5025510000000 1.0
C      1  0.5889730000000  0.4909050000000  0.5564500000000 1.0
C      1  0.5198420000000  0.5140980000000  0.3912780000000 1.0
C      1  0.5947190000000  0.5404030000000  0.5338670000000 1.0
C      1  0.4900960000000  0.6034690000000  0.5223700000000 1.0
C      1  0.5821660000000  0.4529820000000  0.5293510000000 1.0
C      1  0.5747760000000  0.4874090000000  0.5814810000000 1.0
C      1  0.5274710000000  0.5373550000000  0.5923270000000 1.0
C      1  0.4627810000000  0.5141820000000  0.4025580000000 1.0
C      1  0.5540920000000  0.4424470000000  0.5683970000000 1.0
C      1  0.4662610000000  0.5609980000000  0.4105460000000 1.0
C      1  0.4859550000000  0.4093650000000  0.5596810000000 1.0
C      1  0.4682530000000  0.4965670000000  0.4903920000000 1.0
C      1  0.4118090000000  0.4841910000000  0.5450090000000 1.0
C      1  0.4468530000000  0.4901090000000  0.5099960000000 1.0
C      1  0.4920930000000  0.4615780000000  0.4955500000000 1.0
C      1  0.4343260000000  0.5333300000000  0.5010410000000 1.0
C      1  0.5605160000000  0.5126450000000  0.5193570000000 1.0
C      1  0.4816380000000  0.5592670000000  0.5236260000000 1.0
C      1  0.6043890000000  0.4486360000000  0.4574370000000 1.0
C      1  0.5377530000000  0.5535670000000  0.4174170000000 1.0
C      1  0.5328020000000  0.5557820000000  0.5175280000000 1.0
C      1  0.5259860000000  0.5953560000000  0.4893800000000 1.0
C      1  0.4775750000000  0.4237150000000  0.4447830000000 1.0
C      1  0.4529810000000  0.4219050000000  0.5259050000000 1.0
C      1  0.5883200000000  0.5258310000000  0.4655060000000 1.0
C      1  0.5266610000000  0.5402100000000  0.5417530000000 1.0
C      1  0.5796510000000  0.5162080000000  0.5434040000000 1.0
C      1  0.4883600000000  0.4382860000000  0.4227470000000 1.0
END
