TITL C-25296-6009-13 -325.742547940277 125000 -1268.13307848177 0 0 182 (C1) n - 1
REM
REM in /rds/project/t2_vol4/rds-t2-cs072/BORA/CARBON/from-Arr/AIRSS/Generating-Clusters/GAP-ML-2020/Only-C1/SD-CG/HFTN-CG/C160-200
REM
REM
REM
REM
REM
REM ./C.cell (f2ad243b7eb7c0cd63fb1bbaf7e03044)
REM AIRSS Version 0.9.1 bugfix July 2018 build 013d7b7c2542+ Fri, 06 Jul 2018 19:26:36 +0100
REM compiler GCC version 9.3.0
REM options -cpp -mtune=generic -march=x86-64 -g -O0
REM seed -1585551828 312767968 1848199927 -1479685639 1217195366 -1511691581 1095824779 -278239506 50117773 1933102838 -812060371 -193423654 371646296 1718539869 1177311577 1555241691 1369295204 808253611 -878053010 2085267584 181427235 -1979472616 -165813924 -692324592 1934993338 1791001713 -1208842191 -214547471 -412002683 -2015950541 -1054401710 -147036810 -1826570586
REM
CELL 1.54180   50.00000   50.00000   50.00000   90.00000   90.00000   90.00000
LATT -1
SFAC C  
C      1  0.4521400000000  0.4942580000000  0.4571590000000 1.0
C      1  0.4122180000000  0.4911230000000  0.5540130000000 1.0
C      1  0.5720100000000  0.5669470000000  0.4921200000000 1.0
C      1  0.6017820000000  0.4699900000000  0.5327520000000 1.0
C      1  0.4198090000000  0.5363690000000  0.5725250000000 1.0
C      1  0.4285320000000  0.5869880000000  0.5181860000000 1.0
C      1  0.4539880000000  0.5407290000000  0.4528630000000 1.0
C      1  0.5922220000000  0.4941770000000  0.5699190000000 1.0
C      1  0.4528140000000  0.4156630000000  0.4677640000000 1.0
C      1  0.5275190000000  0.4756840000000  0.6003690000000 1.0
C      1  0.5927410000000  0.5472540000000  0.4991870000000 1.0
C      1  0.4923440000000  0.5831820000000  0.5692240000000 1.0
C      1  0.4660060000000  0.6071920000000  0.4741540000000 1.0
C      1  0.4190020000000  0.5822790000000  0.4679750000000 1.0
C      1  0.5467450000000  0.5318610000000  0.4619970000000 1.0
C      1  0.4491630000000  0.4364060000000  0.5835880000000 1.0
C      1  0.5959290000000  0.5339710000000  0.5274430000000 1.0
C      1  0.4708840000000  0.4175990000000  0.5819810000000 1.0
C      1  0.5182020000000  0.4591800000000  0.4982390000000 1.0
C      1  0.5017080000000  0.4820010000000  0.4440460000000 1.0
C      1  0.5216190000000  0.5313730000000  0.3988230000000 1.0
C      1  0.4115780000000  0.4614180000000  0.4445610000000 1.0
C      1  0.4509040000000  0.5413950000000  0.4836520000000 1.0
C      1  0.4609900000000  0.4550690000000  0.5329330000000 1.0
C      1  0.3968870000000  0.5344270000000  0.4735450000000 1.0
C      1  0.4577240000000  0.5914250000000  0.5185500000000 1.0
C      1  0.6020980000000  0.4985640000000  0.4973830000000 1.0
C      1  0.6043300000000  0.4700100000000  0.4859870000000 1.0
C      1  0.5515820000000  0.4249770000000  0.4026150000000 1.0
C      1  0.5347140000000  0.4244770000000  0.5337200000000 1.0
C      1  0.5539300000000  0.5146910000000  0.5508380000000 1.0
C      1  0.4111980000000  0.5144730000000  0.4545210000000 1.0
C      1  0.4774230000000  0.5212640000000  0.5198260000000 1.0
C      1  0.5435060000000  0.4064500000000  0.5115200000000 1.0
C      1  0.5264190000000  0.4354850000000  0.4035250000000 1.0
C      1  0.5531040000000  0.4890170000000  0.5972220000000 1.0
C      1  0.4491930000000  0.5709080000000  0.5715450000000 1.0
C      1  0.4985200000000  0.5690420000000  0.4536090000000 1.0
C      1  0.4267760000000  0.4413320000000  0.5655820000000 1.0
C      1  0.4676440000000  0.5907960000000  0.5780570000000 1.0
C      1  0.5252170000000  0.4818430000000  0.4010090000000 1.0
C      1  0.5057580000000  0.4449230000000  0.4744770000000 1.0
C      1  0.4771380000000  0.4140030000000  0.5533690000000 1.0
C      1  0.4301200000000  0.4377750000000  0.5370880000000 1.0
C      1  0.4562640000000  0.4840710000000  0.5349280000000 1.0
C      1  0.4713980000000  0.5619240000000  0.4389160000000 1.0
C      1  0.4693860000000  0.5598850000000  0.4933620000000 1.0
C      1  0.5498990000000  0.5588700000000  0.5094030000000 1.0
C      1  0.5105010000000  0.5002290000000  0.5249030000000 1.0
C      1  0.5715990000000  0.4748390000000  0.5799150000000 1.0
C      1  0.5090790000000  0.5060270000000  0.3944600000000 1.0
C      1  0.4050530000000  0.5384210000000  0.5288730000000 1.0
C      1  0.5952100000000  0.4615120000000  0.4589450000000 1.0
C      1  0.5663320000000  0.5511000000000  0.4486160000000 1.0
C      1  0.5484280000000  0.5332280000000  0.4078080000000 1.0
C      1  0.4505380000000  0.4648610000000  0.5877240000000 1.0
C      1  0.4428550000000  0.4939540000000  0.4248030000000 1.0
C      1  0.5180270000000  0.4228460000000  0.5823250000000 1.0
C      1  0.4885440000000  0.5987410000000  0.4571350000000 1.0
C      1  0.4275710000000  0.4417960000000  0.4340190000000 1.0
C      1  0.4871510000000  0.4598980000000  0.4551630000000 1.0
C      1  0.5022020000000  0.5637150000000  0.5277220000000 1.0
C      1  0.4654470000000  0.4817870000000  0.4060590000000 1.0
C      1  0.5386120000000  0.4087340000000  0.4676540000000 1.0
C      1  0.5177660000000  0.5262580000000  0.4635930000000 1.0
C      1  0.4920270000000  0.4310970000000  0.4985720000000 1.0
C      1  0.4803170000000  0.5518770000000  0.4129600000000 1.0
C      1  0.4606950000000  0.4975490000000  0.5103110000000 1.0
C      1  0.5461940000000  0.4862330000000  0.4497120000000 1.0
C      1  0.4275400000000  0.5363420000000  0.4405230000000 1.0
C      1  0.5077610000000  0.4566910000000  0.3962130000000 1.0
C      1  0.5364210000000  0.5957950000000  0.5388360000000 1.0
C      1  0.5632130000000  0.5582290000000  0.5536400000000 1.0
C      1  0.4932670000000  0.5529710000000  0.5728590000000 1.0
C      1  0.5079940000000  0.5543530000000  0.4095040000000 1.0
C      1  0.5258650000000  0.3987080000000  0.4906770000000 1.0
C      1  0.4948680000000  0.4146900000000  0.5962020000000 1.0
C      1  0.5241120000000  0.5690300000000  0.4325300000000 1.0
C      1  0.5657870000000  0.4179690000000  0.4718300000000 1.0
C      1  0.4475030000000  0.5212180000000  0.5738500000000 1.0
C      1  0.4986050000000  0.5094490000000  0.4506960000000 1.0
C      1  0.5563020000000  0.4534480000000  0.5679430000000 1.0
C      1  0.5726400000000  0.4668070000000  0.4178470000000 1.0
C      1  0.5092830000000  0.5437800000000  0.5494070000000 1.0
C      1  0.5392670000000  0.4898250000000  0.5440780000000 1.0
C      1  0.4495620000000  0.4287780000000  0.4417410000000 1.0
C      1  0.5189440000000  0.5043490000000  0.4835350000000 1.0
C      1  0.4877460000000  0.4459180000000  0.5444510000000 1.0
C      1  0.5559860000000  0.4849210000000  0.4028680000000 1.0
C      1  0.5227820000000  0.4097700000000  0.5567280000000 1.0
C      1  0.4628970000000  0.5901610000000  0.4411430000000 1.0
C      1  0.5003950000000  0.3972180000000  0.5445270000000 1.0
C      1  0.4230020000000  0.5632030000000  0.5635660000000 1.0
C      1  0.5025690000000  0.4834250000000  0.5001870000000 1.0
C      1  0.4805260000000  0.4562450000000  0.4072780000000 1.0
C      1  0.5616010000000  0.5744700000000  0.4663860000000 1.0
C      1  0.5271860000000  0.4523610000000  0.5810390000000 1.0
C      1  0.3940170000000  0.4965620000000  0.5070010000000 1.0
C      1  0.5367290000000  0.5878340000000  0.4580100000000 1.0
C      1  0.4789980000000  0.4044270000000  0.4673510000000 1.0
C      1  0.5075690000000  0.5370290000000  0.5946880000000 1.0
C      1  0.5265890000000  0.4737850000000  0.4333740000000 1.0
C      1  0.5545290000000  0.4722930000000  0.5245400000000 1.0
C      1  0.4046090000000  0.4596400000000  0.4726350000000 1.0
C      1  0.4801960000000  0.5335240000000  0.4889080000000 1.0
C      1  0.4741950000000  0.6079840000000  0.5008100000000 1.0
C      1  0.5087710000000  0.5893760000000  0.5438670000000 1.0
C      1  0.4770810000000  0.4381890000000  0.4333060000000 1.0
C      1  0.5036010000000  0.5494280000000  0.4781230000000 1.0
C      1  0.5898070000000  0.4794200000000  0.4361000000000 1.0
C      1  0.4274430000000  0.5014270000000  0.4745530000000 1.0
C      1  0.5038990000000  0.6100320000000  0.4989310000000 1.0
C      1  0.4121890000000  0.4531180000000  0.5204190000000 1.0
C      1  0.5249300000000  0.5215000000000  0.5081980000000 1.0
C      1  0.4931200000000  0.4154270000000  0.4454930000000 1.0
C      1  0.5452860000000  0.4908570000000  0.4776540000000 1.0
C      1  0.3926620000000  0.5258490000000  0.5031520000000 1.0
C      1  0.5783530000000  0.4371640000000  0.4535730000000 1.0
C      1  0.4661020000000  0.5066600000000  0.5918190000000 1.0
C      1  0.5199470000000  0.4261550000000  0.4538380000000 1.0
C      1  0.4019720000000  0.4792310000000  0.5283880000000 1.0
C      1  0.4600610000000  0.5412840000000  0.5340500000000 1.0
C      1  0.4390590000000  0.5030880000000  0.5488930000000 1.0
C      1  0.4251070000000  0.4698570000000  0.5722730000000 1.0
C      1  0.5353260000000  0.5343060000000  0.5887240000000 1.0
C      1  0.5856090000000  0.5085630000000  0.4320070000000 1.0
C      1  0.5143570000000  0.6039600000000  0.4705070000000 1.0
C      1  0.5653680000000  0.5106610000000  0.4110810000000 1.0
C      1  0.4915940000000  0.5150380000000  0.6028500000000 1.0
C      1  0.5016070000000  0.4879440000000  0.6047170000000 1.0
C      1  0.4148280000000  0.4871230000000  0.4333060000000 1.0
C      1  0.4660820000000  0.5289230000000  0.4047530000000 1.0
C      1  0.4636550000000  0.5452820000000  0.5650790000000 1.0
C      1  0.5631350000000  0.4410420000000  0.4276820000000 1.0
C      1  0.4774730000000  0.4782310000000  0.5870420000000 1.0
C      1  0.4958840000000  0.4009640000000  0.4930690000000 1.0
C      1  0.5494580000000  0.5549510000000  0.4257420000000 1.0
C      1  0.5090260000000  0.4406340000000  0.5220630000000 1.0
C      1  0.4736670000000  0.4761840000000  0.4947390000000 1.0
C      1  0.5323040000000  0.4435520000000  0.4327310000000 1.0
C      1  0.5911160000000  0.5227830000000  0.4810740000000 1.0
C      1  0.5186160000000  0.5531620000000  0.5042550000000 1.0
C      1  0.4399590000000  0.4151910000000  0.5201440000000 1.0
C      1  0.5684360000000  0.4157870000000  0.5008100000000 1.0
C      1  0.5449740000000  0.4684410000000  0.4966990000000 1.0
C      1  0.4143290000000  0.5671820000000  0.5363870000000 1.0
C      1  0.4617330000000  0.4021910000000  0.5307010000000 1.0
C      1  0.5706440000000  0.5161790000000  0.5273470000000 1.0
C      1  0.5389420000000  0.5405380000000  0.5598770000000 1.0
C      1  0.4414000000000  0.4285070000000  0.4929950000000 1.0
C      1  0.4658680000000  0.4725300000000  0.4682340000000 1.0
C      1  0.4182430000000  0.5923060000000  0.4935840000000 1.0
C      1  0.5888800000000  0.5292420000000  0.4507710000000 1.0
C      1  0.4090280000000  0.5560080000000  0.4586590000000 1.0
C      1  0.5815610000000  0.4336280000000  0.5187400000000 1.0
C      1  0.4339960000000  0.5263720000000  0.5269230000000 1.0
C      1  0.4398040000000  0.5165270000000  0.4981130000000 1.0
C      1  0.4988820000000  0.4656490000000  0.5646630000000 1.0
C      1  0.5588290000000  0.4437240000000  0.5385980000000 1.0
C      1  0.4431910000000  0.5962860000000  0.4604920000000 1.0
C      1  0.4018890000000  0.5225790000000  0.5563200000000 1.0
C      1  0.4717690000000  0.5167620000000  0.4600530000000 1.0
C      1  0.5611070000000  0.5174960000000  0.4820910000000 1.0
C      1  0.6104680000000  0.4916650000000  0.5470170000000 1.0
C      1  0.6146430000000  0.5109720000000  0.5242400000000 1.0
C      1  0.5181990000000  0.6102210000000  0.5238270000000 1.0
C      1  0.4963310000000  0.5177550000000  0.5415300000000 1.0
C      1  0.5549850000000  0.5751740000000  0.5337440000000 1.0
C      1  0.5794820000000  0.4883760000000  0.5201520000000 1.0
C      1  0.4665670000000  0.4476440000000  0.5036420000000 1.0
C      1  0.5574100000000  0.5172290000000  0.5940350000000 1.0
C      1  0.4419190000000  0.5227240000000  0.4179140000000 1.0
C      1  0.5867800000000  0.5432260000000  0.5552710000000 1.0
C      1  0.5529980000000  0.5272890000000  0.5082820000000 1.0
C      1  0.4863400000000  0.3908850000000  0.5196750000000 1.0
C      1  0.4042200000000  0.4852200000000  0.4831370000000 1.0
C      1  0.4722560000000  0.5656470000000  0.5213800000000 1.0
C      1  0.5123640000000  0.4889910000000  0.5516460000000 1.0
C      1  0.5785470000000  0.5193740000000  0.5727460000000 1.0
C      1  0.4802350000000  0.5049420000000  0.3966080000000 1.0
C      1  0.6018190000000  0.4528390000000  0.5106740000000 1.0
C      1  0.4161990000000  0.4446880000000  0.4934860000000 1.0
END
