TITL C-25296-6009-2 -20.6159102742578 125000 -1368.10134850574 0 0 195 (C1) n - 1
REM
REM in /rds/project/t2_vol4/rds-t2-cs072/BORA/CARBON/from-Arr/AIRSS/Generating-Clusters/GAP-ML-2020/Only-C1/SD-CG/HFTN-CG/C160-200
REM
REM
REM
REM
REM
REM ./C.cell (f2ad243b7eb7c0cd63fb1bbaf7e03044)
REM AIRSS Version 0.9.1 bugfix July 2018 build 013d7b7c2542+ Fri, 06 Jul 2018 19:26:36 +0100
REM compiler GCC version 9.3.0
REM options -cpp -mtune=generic -march=x86-64 -g -O0
REM seed 167274306 -1270992272 -14121858 -731437253 343644293 -1868672021 1656248269 -24745106 472157593 1857913579 -2091855551 22202315 -224492545 -1838012015 1566841569 988461509 -664835789 298970403 1143113762 -1086178267 -1756735026 -1385079294 2067101501 2000580519 1478368029 1032896911 1975480593 1840044388 2006192777 1872041633 -1444940817 1038469567 280948627
REM
CELL 1.54180   50.00000   50.00000   50.00000   90.00000   90.00000   90.00000
LATT -1
SFAC C  
C      1  0.4797990000000  0.5338770000000  0.5241850000000 1.0
C      1  0.5982840000000  0.5163310000000  0.5213560000000 1.0
C      1  0.5509480000000  0.4517580000000  0.5912670000000 1.0
C      1  0.5676090000000  0.4127990000000  0.5094990000000 1.0
C      1  0.4300700000000  0.5323230000000  0.4983900000000 1.0
C      1  0.4960990000000  0.4748350000000  0.4918400000000 1.0
C      1  0.3950250000000  0.4828240000000  0.4536500000000 1.0
C      1  0.4235420000000  0.4378470000000  0.5061120000000 1.0
C      1  0.4112500000000  0.5055510000000  0.4664540000000 1.0
C      1  0.4063020000000  0.5796390000000  0.4857390000000 1.0
C      1  0.3961210000000  0.5542940000000  0.4767690000000 1.0
C      1  0.5050160000000  0.4773850000000  0.6042620000000 1.0
C      1  0.4762770000000  0.4758660000000  0.6083340000000 1.0
C      1  0.4362860000000  0.4155140000000  0.5256790000000 1.0
C      1  0.4027700000000  0.4461390000000  0.5494040000000 1.0
C      1  0.4269470000000  0.5803920000000  0.5244570000000 1.0
C      1  0.6136270000000  0.4945860000000  0.5394300000000 1.0
C      1  0.5115510000000  0.5700840000000  0.5292670000000 1.0
C      1  0.4838860000000  0.5393240000000  0.4465650000000 1.0
C      1  0.5196660000000  0.5944090000000  0.4441750000000 1.0
C      1  0.5284410000000  0.5561460000000  0.5095750000000 1.0
C      1  0.4565060000000  0.4698780000000  0.5314820000000 1.0
C      1  0.5098260000000  0.5103480000000  0.5521450000000 1.0
C      1  0.3955820000000  0.4828250000000  0.4263020000000 1.0
C      1  0.5403720000000  0.4254480000000  0.4174340000000 1.0
C      1  0.4653940000000  0.4168130000000  0.5651300000000 1.0
C      1  0.4141390000000  0.5325550000000  0.5869590000000 1.0
C      1  0.4802920000000  0.5628530000000  0.4257360000000 1.0
C      1  0.4422000000000  0.5057310000000  0.5020680000000 1.0
C      1  0.6135260000000  0.4694070000000  0.5251580000000 1.0
C      1  0.4904290000000  0.5877140000000  0.4394030000000 1.0
C      1  0.3999770000000  0.4914320000000  0.5597930000000 1.0
C      1  0.4876480000000  0.4079820000000  0.5493440000000 1.0
C      1  0.5409840000000  0.5993840000000  0.5273650000000 1.0
C      1  0.4950600000000  0.5934380000000  0.5758740000000 1.0
C      1  0.5434420000000  0.4741560000000  0.5059530000000 1.0
C      1  0.4373660000000  0.5522640000000  0.5192570000000 1.0
C      1  0.3977180000000  0.4583170000000  0.4703040000000 1.0
C      1  0.5499580000000  0.4235490000000  0.5309920000000 1.0
C      1  0.4724140000000  0.4369380000000  0.4181320000000 1.0
C      1  0.5556050000000  0.4976070000000  0.5509900000000 1.0
C      1  0.4802670000000  0.5605470000000  0.4874160000000 1.0
C      1  0.5584280000000  0.5175210000000  0.4345490000000 1.0
C      1  0.5245330000000  0.4340290000000  0.5167870000000 1.0
C      1  0.4854570000000  0.4783400000000  0.3966220000000 1.0
C      1  0.4567990000000  0.4035660000000  0.5094260000000 1.0
C      1  0.5712350000000  0.4716440000000  0.5910810000000 1.0
C      1  0.5837880000000  0.5557110000000  0.4531250000000 1.0
C      1  0.5431060000000  0.5411470000000  0.5621790000000 1.0
C      1  0.4485010000000  0.5586560000000  0.4268890000000 1.0
C      1  0.4056140000000  0.5907150000000  0.5111810000000 1.0
C      1  0.3934390000000  0.4703830000000  0.5424800000000 1.0
C      1  0.4621420000000  0.5169120000000  0.5425310000000 1.0
C      1  0.5388800000000  0.5273430000000  0.5153180000000 1.0
C      1  0.5703220000000  0.5442770000000  0.4304550000000 1.0
C      1  0.4835640000000  0.4034490000000  0.5212570000000 1.0
C      1  0.5610460000000  0.4712900000000  0.4047450000000 1.0
C      1  0.5404900000000  0.5143230000000  0.4101780000000 1.0
C      1  0.5123860000000  0.5380020000000  0.4609840000000 1.0
C      1  0.5047460000000  0.5339450000000  0.5931350000000 1.0
C      1  0.5878890000000  0.5383170000000  0.5688550000000 1.0
C      1  0.5398040000000  0.4161990000000  0.5584730000000 1.0
C      1  0.5662610000000  0.5773770000000  0.4599520000000 1.0
C      1  0.5495290000000  0.5184210000000  0.4877720000000 1.0
C      1  0.5151730000000  0.4806400000000  0.5145510000000 1.0
C      1  0.5584620000000  0.4123010000000  0.4617660000000 1.0
C      1  0.4965620000000  0.6144930000000  0.4782620000000 1.0
C      1  0.5128200000000  0.5074170000000  0.4603900000000 1.0
C      1  0.5373970000000  0.4491160000000  0.4919970000000 1.0
C      1  0.5200940000000  0.6109300000000  0.4656220000000 1.0
C      1  0.5918180000000  0.4305540000000  0.5078190000000 1.0
C      1  0.5739940000000  0.5730600000000  0.4881660000000 1.0
C      1  0.4933740000000  0.4156020000000  0.4534390000000 1.0
C      1  0.4635010000000  0.6035850000000  0.5075580000000 1.0
C      1  0.5181120000000  0.4002190000000  0.4579000000000 1.0
C      1  0.4002840000000  0.5160310000000  0.5445360000000 1.0
C      1  0.4558370000000  0.4686230000000  0.4655190000000 1.0
C      1  0.5582960000000  0.4346700000000  0.5701350000000 1.0
C      1  0.4639400000000  0.4086000000000  0.4554730000000 1.0
C      1  0.4291580000000  0.5889270000000  0.4678330000000 1.0
C      1  0.5375680000000  0.4859130000000  0.3993510000000 1.0
C      1  0.4153710000000  0.5364340000000  0.5589380000000 1.0
C      1  0.4652550000000  0.5540100000000  0.5103890000000 1.0
C      1  0.4422200000000  0.5281090000000  0.4264580000000 1.0
C      1  0.4929490000000  0.4322100000000  0.4799620000000 1.0
C      1  0.5252190000000  0.3976710000000  0.4857030000000 1.0
C      1  0.4888940000000  0.4996950000000  0.4192660000000 1.0
C      1  0.4982040000000  0.4362480000000  0.4299250000000 1.0
C      1  0.5860100000000  0.4808000000000  0.4151610000000 1.0
C      1  0.5228620000000  0.4659000000000  0.5606040000000 1.0
C      1  0.5123100000000  0.4551570000000  0.4760260000000 1.0
C      1  0.5029250000000  0.4319830000000  0.5863610000000 1.0
C      1  0.4385230000000  0.4502850000000  0.4432480000000 1.0
C      1  0.4171640000000  0.5076480000000  0.5996250000000 1.0
C      1  0.4905500000000  0.5011290000000  0.4797290000000 1.0
C      1  0.5158380000000  0.4618420000000  0.4471280000000 1.0
C      1  0.5140010000000  0.5373910000000  0.5644790000000 1.0
C      1  0.4161460000000  0.4845040000000  0.5832850000000 1.0
C      1  0.5071980000000  0.5481910000000  0.4884030000000 1.0
C      1  0.4654810000000  0.4968990000000  0.4618540000000 1.0
C      1  0.4712900000000  0.4553390000000  0.4878860000000 1.0
C      1  0.5977280000000  0.4448210000000  0.5314980000000 1.0
C      1  0.4231070000000  0.4397000000000  0.5662540000000 1.0
C      1  0.4907180000000  0.6115310000000  0.5060420000000 1.0
C      1  0.5735280000000  0.5657110000000  0.5333670000000 1.0
C      1  0.5380310000000  0.5227610000000  0.4616790000000 1.0
C      1  0.5445450000000  0.5808300000000  0.4395690000000 1.0
C      1  0.4686520000000  0.5135670000000  0.4369150000000 1.0
C      1  0.5117320000000  0.4146790000000  0.5649290000000 1.0
C      1  0.5052930000000  0.4141090000000  0.5031490000000 1.0
C      1  0.4757980000000  0.5034060000000  0.3798960000000 1.0
C      1  0.5283840000000  0.5414920000000  0.4081950000000 1.0
C      1  0.5460860000000  0.5968390000000  0.5549590000000 1.0
C      1  0.6067650000000  0.4755750000000  0.4973970000000 1.0
C      1  0.5037540000000  0.5072990000000  0.6055740000000 1.0
C      1  0.4964790000000  0.5220080000000  0.5029310000000 1.0
C      1  0.5017920000000  0.6083980000000  0.5535610000000 1.0
C      1  0.5594650000000  0.4470000000000  0.4221170000000 1.0
C      1  0.5170640000000  0.4390800000000  0.4073810000000 1.0
C      1  0.5914420000000  0.5135840000000  0.5789080000000 1.0
C      1  0.4393030000000  0.4927330000000  0.4767590000000 1.0
C      1  0.5823400000000  0.4901900000000  0.5100150000000 1.0
C      1  0.4230870000000  0.5279830000000  0.4499750000000 1.0
C      1  0.5556440000000  0.5756290000000  0.5117380000000 1.0
C      1  0.4403820000000  0.5393480000000  0.4721000000000 1.0
C      1  0.4430150000000  0.5430960000000  0.5477960000000 1.0
C      1  0.5674700000000  0.4975420000000  0.5792820000000 1.0
C      1  0.4083470000000  0.5528480000000  0.4511090000000 1.0
C      1  0.4815720000000  0.4715880000000  0.5452360000000 1.0
C      1  0.4621270000000  0.5301180000000  0.6087440000000 1.0
C      1  0.5091650000000  0.4898320000000  0.4386540000000 1.0
C      1  0.5568140000000  0.4409190000000  0.4682250000000 1.0
C      1  0.4586410000000  0.4561210000000  0.5966380000000 1.0
C      1  0.5626300000000  0.4759020000000  0.5303310000000 1.0
C      1  0.4760150000000  0.5051550000000  0.6133640000000 1.0
C      1  0.4318080000000  0.4598660000000  0.5852760000000 1.0
C      1  0.5200940000000  0.4560780000000  0.5898860000000 1.0
C      1  0.5143280000000  0.4670200000000  0.3961210000000 1.0
C      1  0.3921690000000  0.5099820000000  0.5161980000000 1.0
C      1  0.5083850000000  0.4607100000000  0.5356620000000 1.0
C      1  0.5299570000000  0.4927780000000  0.5617700000000 1.0
C      1  0.5533270000000  0.4001340000000  0.4876880000000 1.0
C      1  0.5598870000000  0.4918620000000  0.4876110000000 1.0
C      1  0.4488110000000  0.5066140000000  0.3804280000000 1.0
C      1  0.4633470000000  0.4595760000000  0.4041660000000 1.0
C      1  0.5618150000000  0.4818170000000  0.4584900000000 1.0
C      1  0.4663090000000  0.5472300000000  0.4678750000000 1.0
C      1  0.4161300000000  0.4392540000000  0.4600020000000 1.0
C      1  0.6123390000000  0.5022620000000  0.4802480000000 1.0
C      1  0.4636640000000  0.5676730000000  0.5534590000000 1.0
C      1  0.5467470000000  0.4590420000000  0.4477260000000 1.0
C      1  0.4518860000000  0.4529060000000  0.5101230000000 1.0
C      1  0.4827970000000  0.4992810000000  0.5546820000000 1.0
C      1  0.5832660000000  0.5372020000000  0.5385670000000 1.0
C      1  0.5399050000000  0.4073080000000  0.4405430000000 1.0
C      1  0.4922670000000  0.5208020000000  0.3970160000000 1.0
C      1  0.5881730000000  0.4449060000000  0.4345380000000 1.0
C      1  0.5152350000000  0.5096950000000  0.5219030000000 1.0
C      1  0.4532430000000  0.5999320000000  0.4787480000000 1.0
C      1  0.5644440000000  0.5753370000000  0.5583740000000 1.0
C      1  0.4745130000000  0.4336540000000  0.5867840000000 1.0
C      1  0.4285410000000  0.5723170000000  0.4432390000000 1.0
C      1  0.3994690000000  0.4580310000000  0.4986250000000 1.0
C      1  0.4525260000000  0.5907560000000  0.5331270000000 1.0
C      1  0.4483340000000  0.4965680000000  0.5270860000000 1.0
C      1  0.3908120000000  0.4796100000000  0.5156650000000 1.0
C      1  0.5555730000000  0.5255620000000  0.5401870000000 1.0
C      1  0.5702120000000  0.4467530000000  0.5430650000000 1.0
C      1  0.5928500000000  0.5504230000000  0.4810190000000 1.0
C      1  0.4261490000000  0.4231700000000  0.4809160000000 1.0
C      1  0.6058900000000  0.5269270000000  0.4943740000000 1.0
C      1  0.5222170000000  0.6026460000000  0.5710540000000 1.0
C      1  0.4928720000000  0.5535350000000  0.5435160000000 1.0
C      1  0.5860300000000  0.4408190000000  0.4630270000000 1.0
C      1  0.4189600000000  0.4861370000000  0.4115740000000 1.0
C      1  0.4998820000000  0.5469080000000  0.4051460000000 1.0
C      1  0.6080660000000  0.4930830000000  0.5672970000000 1.0
C      1  0.4011210000000  0.5251070000000  0.4910560000000 1.0
C      1  0.4494050000000  0.4069110000000  0.4809980000000 1.0
C      1  0.5960810000000  0.4697960000000  0.5785590000000 1.0
C      1  0.6000980000000  0.4476750000000  0.4861950000000 1.0
C      1  0.5101880000000  0.6008630000000  0.5255850000000 1.0
C      1  0.4805920000000  0.5490320000000  0.5969960000000 1.0
C      1  0.4379340000000  0.4649610000000  0.4165270000000 1.0
C      1  0.6046170000000  0.5022460000000  0.4549450000000 1.0
C      1  0.4536590000000  0.4258750000000  0.4360130000000 1.0
C      1  0.5481080000000  0.5594410000000  0.4209840000000 1.0
C      1  0.5802420000000  0.4966050000000  0.4402750000000 1.0
C      1  0.6039940000000  0.4598040000000  0.4185220000000 1.0
C      1  0.4340650000000  0.5290580000000  0.6063110000000 1.0
C      1  0.4398610000000  0.4199230000000  0.5536800000000 1.0
C      1  0.5648410000000  0.5534990000000  0.5763140000000 1.0
C      1  0.4763310000000  0.6026550000000  0.4609940000000 1.0
C      1  0.4325150000000  0.5107540000000  0.4021190000000 1.0
C      1  0.4752280000000  0.5734280000000  0.5804760000000 1.0
END
