TITL C-25446-8863-19 0.107928401970925 125000 -1413.68316853826 0 0 200 (C1) n - 1
REM
REM in /rds/project/t2_vol4/rds-t2-cs072/BORA/CARBON/from-Arr/AIRSS/Generating-Clusters/GAP-ML-2020/Only-C1/SD-CG/HFTN-CG/C160-200
REM
REM
REM
REM
REM
REM ./C.cell (f2ad243b7eb7c0cd63fb1bbaf7e03044)
REM AIRSS Version 0.9.1 bugfix July 2018 build 013d7b7c2542+ Fri, 06 Jul 2018 19:26:36 +0100
REM compiler GCC version 9.3.0
REM options -cpp -mtune=generic -march=x86-64 -g -O0
REM seed 1311047025 -77987602 176396030 -411400071 -1931845212 92231399 -481387886 1087194578 -398949641 185325898 1535476732 -71124937 -578359810 -1492724929 1924697667 1889923903 -241050264 1896127904 1881155551 107057417 1995557444 2120879374 823814833 -1903490407 -2055284999 1145449036 -1445622547 -1264235333 1611046679 -1699390519 1876874686 -1660919467 856623787
REM
CELL 1.54180   50.00000   50.00000   50.00000   90.00000   90.00000   90.00000
LATT -1
SFAC C  
C      1  0.5329380000000  0.3983340000000  0.4746500000000 1.0
C      1  0.4881370000000  0.4805170000000  0.3899430000000 1.0
C      1  0.5315330000000  0.5159540000000  0.4856360000000 1.0
C      1  0.4570890000000  0.3806480000000  0.5211070000000 1.0
C      1  0.4957200000000  0.4550230000000  0.5924120000000 1.0
C      1  0.5764200000000  0.4141840000000  0.4859260000000 1.0
C      1  0.5186220000000  0.5327250000000  0.4438480000000 1.0
C      1  0.5468800000000  0.4030330000000  0.4507250000000 1.0
C      1  0.5962600000000  0.4300700000000  0.4978800000000 1.0
C      1  0.5378160000000  0.5404600000000  0.4661790000000 1.0
C      1  0.4965060000000  0.4637050000000  0.4821500000000 1.0
C      1  0.6215550000000  0.5024670000000  0.5071180000000 1.0
C      1  0.4449370000000  0.5423460000000  0.4618240000000 1.0
C      1  0.4243350000000  0.5246330000000  0.5801220000000 1.0
C      1  0.4514630000000  0.5846110000000  0.5740360000000 1.0
C      1  0.6095110000000  0.4524220000000  0.4833370000000 1.0
C      1  0.5034410000000  0.4965320000000  0.5766520000000 1.0
C      1  0.5752050000000  0.4989770000000  0.5059170000000 1.0
C      1  0.4547910000000  0.4484590000000  0.4512360000000 1.0
C      1  0.5270500000000  0.5650000000000  0.4786270000000 1.0
C      1  0.5404820000000  0.6003700000000  0.4528820000000 1.0
C      1  0.4100970000000  0.4615920000000  0.4695190000000 1.0
C      1  0.5084970000000  0.6132380000000  0.5147480000000 1.0
C      1  0.5076490000000  0.5542760000000  0.5178650000000 1.0
C      1  0.4529280000000  0.4944950000000  0.4736580000000 1.0
C      1  0.4768310000000  0.5261640000000  0.4055760000000 1.0
C      1  0.4668630000000  0.5302800000000  0.5644380000000 1.0
C      1  0.5385770000000  0.4061980000000  0.5237600000000 1.0
C      1  0.5240350000000  0.4638010000000  0.4960930000000 1.0
C      1  0.5183230000000  0.5018610000000  0.4343750000000 1.0
C      1  0.5131120000000  0.5898520000000  0.4655730000000 1.0
C      1  0.5584320000000  0.4724400000000  0.3864990000000 1.0
C      1  0.4736020000000  0.6095730000000  0.4827710000000 1.0
C      1  0.4475550000000  0.5138380000000  0.4480170000000 1.0
C      1  0.3965820000000  0.4765210000000  0.5205360000000 1.0
C      1  0.4331100000000  0.4655520000000  0.5523490000000 1.0
C      1  0.6189170000000  0.4722220000000  0.5031400000000 1.0
C      1  0.5697850000000  0.4391630000000  0.5418390000000 1.0
C      1  0.4899250000000  0.5692630000000  0.4216000000000 1.0
C      1  0.5583490000000  0.6043930000000  0.4740160000000 1.0
C      1  0.4392260000000  0.5847610000000  0.4654340000000 1.0
C      1  0.4312160000000  0.5363570000000  0.4882290000000 1.0
C      1  0.4681530000000  0.5005740000000  0.3922320000000 1.0
C      1  0.4056000000000  0.4885990000000  0.4310830000000 1.0
C      1  0.5695850000000  0.5905490000000  0.4944010000000 1.0
C      1  0.4158250000000  0.5514160000000  0.5765600000000 1.0
C      1  0.5153540000000  0.4863610000000  0.3860010000000 1.0
C      1  0.5335510000000  0.4076890000000  0.4262670000000 1.0
C      1  0.5391640000000  0.4877490000000  0.4774840000000 1.0
C      1  0.4085320000000  0.4335600000000  0.5337740000000 1.0
C      1  0.4495130000000  0.4611850000000  0.4068430000000 1.0
C      1  0.5436300000000  0.4724790000000  0.5935580000000 1.0
C      1  0.4483200000000  0.4679960000000  0.6072440000000 1.0
C      1  0.4994310000000  0.5236930000000  0.6203760000000 1.0
C      1  0.3876890000000  0.4964630000000  0.5021480000000 1.0
C      1  0.5108100000000  0.5239360000000  0.5401140000000 1.0
C      1  0.5420210000000  0.5540360000000  0.4074710000000 1.0
C      1  0.5059140000000  0.4957210000000  0.6186890000000 1.0
C      1  0.3885440000000  0.4963940000000  0.4507250000000 1.0
C      1  0.5529380000000  0.5796300000000  0.4073930000000 1.0
C      1  0.5241140000000  0.5094830000000  0.4028350000000 1.0
C      1  0.5638340000000  0.5220100000000  0.5853100000000 1.0
C      1  0.5013300000000  0.6086080000000  0.4870530000000 1.0
C      1  0.4115630000000  0.4621330000000  0.4394030000000 1.0
C      1  0.4883600000000  0.5444520000000  0.4970050000000 1.0
C      1  0.4388160000000  0.5832590000000  0.4931100000000 1.0
C      1  0.4633100000000  0.4207530000000  0.4577310000000 1.0
C      1  0.5421850000000  0.4425790000000  0.4893620000000 1.0
C      1  0.5327200000000  0.4642010000000  0.3826850000000 1.0
C      1  0.5081770000000  0.5520150000000  0.5468750000000 1.0
C      1  0.4613610000000  0.6015400000000  0.5301560000000 1.0
C      1  0.4230090000000  0.5645560000000  0.4509580000000 1.0
C      1  0.4913000000000  0.5590770000000  0.5929880000000 1.0
C      1  0.4551430000000  0.6035640000000  0.5033150000000 1.0
C      1  0.5862940000000  0.4830630000000  0.4560770000000 1.0
C      1  0.5321320000000  0.5613880000000  0.5063000000000 1.0
C      1  0.4121590000000  0.4845410000000  0.5432740000000 1.0
C      1  0.5338830000000  0.5579270000000  0.5684250000000 1.0
C      1  0.4985240000000  0.6012710000000  0.5604760000000 1.0
C      1  0.4870540000000  0.5810160000000  0.4495820000000 1.0
C      1  0.3985280000000  0.5593390000000  0.4670380000000 1.0
C      1  0.4655390000000  0.5405840000000  0.5122910000000 1.0
C      1  0.4565920000000  0.5139870000000  0.5217050000000 1.0
C      1  0.5052780000000  0.4015880000000  0.4742650000000 1.0
C      1  0.5196180000000  0.5561250000000  0.5947170000000 1.0
C      1  0.5229390000000  0.4515050000000  0.5834970000000 1.0
C      1  0.5485800000000  0.4103080000000  0.4971470000000 1.0
C      1  0.5004370000000  0.4329800000000  0.4042530000000 1.0
C      1  0.5458830000000  0.5178630000000  0.6073640000000 1.0
C      1  0.5093910000000  0.4355290000000  0.5412910000000 1.0
C      1  0.4220810000000  0.4163190000000  0.4812090000000 1.0
C      1  0.6166280000000  0.5166580000000  0.5321670000000 1.0
C      1  0.5848180000000  0.4840240000000  0.5336780000000 1.0
C      1  0.4424510000000  0.5091730000000  0.4968150000000 1.0
C      1  0.4997740000000  0.5176930000000  0.4833770000000 1.0
C      1  0.4717660000000  0.4925440000000  0.5396360000000 1.0
C      1  0.4628510000000  0.3903740000000  0.4964220000000 1.0
C      1  0.4767400000000  0.4264580000000  0.5088930000000 1.0
C      1  0.4387570000000  0.4442990000000  0.5287840000000 1.0
C      1  0.4549050000000  0.4825080000000  0.5619580000000 1.0
C      1  0.4080750000000  0.4288490000000  0.5608250000000 1.0
C      1  0.3977740000000  0.5308220000000  0.5370170000000 1.0
C      1  0.5377030000000  0.4827810000000  0.4462070000000 1.0
C      1  0.4406230000000  0.5572650000000  0.5070770000000 1.0
C      1  0.5711650000000  0.4673260000000  0.4095320000000 1.0
C      1  0.5340210000000  0.6104230000000  0.5284460000000 1.0
C      1  0.4858930000000  0.4675020000000  0.5296980000000 1.0
C      1  0.5474650000000  0.4407590000000  0.4622130000000 1.0
C      1  0.6008410000000  0.5118100000000  0.4910440000000 1.0
C      1  0.5996550000000  0.4567920000000  0.4566720000000 1.0
C      1  0.5924260000000  0.4389140000000  0.5245930000000 1.0
C      1  0.4913290000000  0.4036360000000  0.4993820000000 1.0
C      1  0.5744780000000  0.5612900000000  0.4897470000000 1.0
C      1  0.5015520000000  0.4491450000000  0.4549700000000 1.0
C      1  0.5492660000000  0.4205260000000  0.5460140000000 1.0
C      1  0.5680630000000  0.4875090000000  0.4322530000000 1.0
C      1  0.4776310000000  0.4546710000000  0.5036770000000 1.0
C      1  0.4436610000000  0.5293410000000  0.5445860000000 1.0
C      1  0.4457190000000  0.5845010000000  0.5463050000000 1.0
C      1  0.4777320000000  0.5367610000000  0.6073110000000 1.0
C      1  0.4267440000000  0.4444680000000  0.5736320000000 1.0
C      1  0.4809380000000  0.4421330000000  0.5497810000000 1.0
C      1  0.5169760000000  0.4646410000000  0.5262830000000 1.0
C      1  0.4810150000000  0.5834270000000  0.5767690000000 1.0
C      1  0.5348690000000  0.4920220000000  0.6130440000000 1.0
C      1  0.5967940000000  0.5097470000000  0.4630140000000 1.0
C      1  0.5825770000000  0.5293970000000  0.4485240000000 1.0
C      1  0.5465030000000  0.5835470000000  0.5624720000000 1.0
C      1  0.4802350000000  0.4560050000000  0.4068460000000 1.0
C      1  0.4332310000000  0.5591830000000  0.5361880000000 1.0
C      1  0.4413910000000  0.4658430000000  0.4754490000000 1.0
C      1  0.5817310000000  0.5016320000000  0.5773050000000 1.0
C      1  0.4926950000000  0.4171460000000  0.4526810000000 1.0
C      1  0.4067380000000  0.5550590000000  0.5488020000000 1.0
C      1  0.4597570000000  0.4905320000000  0.5932410000000 1.0
C      1  0.4881440000000  0.6094310000000  0.5355120000000 1.0
C      1  0.5589580000000  0.5476080000000  0.5118060000000 1.0
C      1  0.4421050000000  0.5660210000000  0.4040110000000 1.0
C      1  0.5377540000000  0.5124860000000  0.5379810000000 1.0
C      1  0.5676970000000  0.5475500000000  0.4651100000000 1.0
C      1  0.4886730000000  0.4828000000000  0.5989720000000 1.0
C      1  0.4687170000000  0.5563640000000  0.4068460000000 1.0
C      1  0.4841060000000  0.5550900000000  0.5639630000000 1.0
C      1  0.5264090000000  0.4385700000000  0.3934040000000 1.0
C      1  0.4760180000000  0.5542710000000  0.4679670000000 1.0
C      1  0.3908260000000  0.4852980000000  0.4755830000000 1.0
C      1  0.5508960000000  0.5182360000000  0.5104650000000 1.0
C      1  0.5695320000000  0.5163950000000  0.4253770000000 1.0
C      1  0.5866580000000  0.4351820000000  0.4407710000000 1.0
C      1  0.5948160000000  0.5055570000000  0.5511310000000 1.0
C      1  0.4628140000000  0.4249630000000  0.5347480000000 1.0
C      1  0.4490490000000  0.4580120000000  0.5029130000000 1.0
C      1  0.4154100000000  0.5125300000000  0.5526380000000 1.0
C      1  0.4047520000000  0.4367190000000  0.4861550000000 1.0
C      1  0.5604290000000  0.5975960000000  0.5217190000000 1.0
C      1  0.5669220000000  0.4821870000000  0.4832510000000 1.0
C      1  0.4750980000000  0.4423960000000  0.5790370000000 1.0
C      1  0.5476060000000  0.4254080000000  0.4087490000000 1.0
C      1  0.6051380000000  0.4641190000000  0.5261550000000 1.0
C      1  0.4749270000000  0.5162380000000  0.4367320000000 1.0
C      1  0.5361230000000  0.4818400000000  0.5434880000000 1.0
C      1  0.4336030000000  0.5687810000000  0.5872600000000 1.0
C      1  0.5271360000000  0.6030660000000  0.5554310000000 1.0
C      1  0.4917050000000  0.5325180000000  0.4560750000000 1.0
C      1  0.4451640000000  0.4886090000000  0.4033150000000 1.0
C      1  0.4465220000000  0.4052810000000  0.4760990000000 1.0
C      1  0.5083600000000  0.4082900000000  0.5255260000000 1.0
C      1  0.5053670000000  0.4134560000000  0.4249970000000 1.0
C      1  0.4354240000000  0.4513830000000  0.4292520000000 1.0
C      1  0.5142600000000  0.5512000000000  0.4182000000000 1.0
C      1  0.4231760000000  0.5663880000000  0.4212650000000 1.0
C      1  0.4857030000000  0.4916820000000  0.4737750000000 1.0
C      1  0.5245980000000  0.4794710000000  0.5699550000000 1.0
C      1  0.4901210000000  0.4913400000000  0.4429100000000 1.0
C      1  0.4897350000000  0.5102390000000  0.5553480000000 1.0
C      1  0.4646870000000  0.5972930000000  0.4589360000000 1.0
C      1  0.5496050000000  0.5963080000000  0.4264750000000 1.0
C      1  0.3901300000000  0.5248270000000  0.5096890000000 1.0
C      1  0.4009510000000  0.5417700000000  0.4873020000000 1.0
C      1  0.4955450000000  0.3943650000000  0.5494550000000 1.0
C      1  0.5538690000000  0.5359340000000  0.5605550000000 1.0
C      1  0.5690880000000  0.4763340000000  0.5786550000000 1.0
C      1  0.4811070000000  0.4622110000000  0.4377100000000 1.0
C      1  0.3963670000000  0.4476720000000  0.5129640000000 1.0
C      1  0.4300710000000  0.5018200000000  0.4240700000000 1.0
C      1  0.5047240000000  0.5307010000000  0.4006180000000 1.0
C      1  0.5730580000000  0.5508540000000  0.5396160000000 1.0
C      1  0.5671580000000  0.5806980000000  0.5433580000000 1.0
C      1  0.5977420000000  0.5341600000000  0.5402140000000 1.0
C      1  0.5648040000000  0.4681060000000  0.5493050000000 1.0
C      1  0.4679480000000  0.3938340000000  0.5422590000000 1.0
C      1  0.4482010000000  0.4454940000000  0.5924350000000 1.0
C      1  0.5265740000000  0.4269960000000  0.5652500000000 1.0
C      1  0.5104240000000  0.4020400000000  0.5706010000000 1.0
C      1  0.5294990000000  0.4549150000000  0.4457360000000 1.0
C      1  0.5247420000000  0.5359940000000  0.6128360000000 1.0
C      1  0.5721540000000  0.4398240000000  0.4166010000000 1.0
C      1  0.4552750000000  0.5209830000000  0.5912270000000 1.0
C      1  0.5702720000000  0.4186120000000  0.4579620000000 1.0
C      1  0.5505850000000  0.5266420000000  0.4066460000000 1.0
END
