TITL C-25446-8863-26 0.0400324554117359 125000 -1343.6624630684 0 0 190 (C1) n - 1
REM
REM in /rds/project/t2_vol4/rds-t2-cs072/BORA/CARBON/from-Arr/AIRSS/Generating-Clusters/GAP-ML-2020/Only-C1/SD-CG/HFTN-CG/C160-200
REM
REM
REM
REM
REM
REM ./C.cell (f2ad243b7eb7c0cd63fb1bbaf7e03044)
REM AIRSS Version 0.9.1 bugfix July 2018 build 013d7b7c2542+ Fri, 06 Jul 2018 19:26:36 +0100
REM compiler GCC version 9.3.0
REM options -cpp -mtune=generic -march=x86-64 -g -O0
REM seed -1724809581 1171220549 1045153993 2046398787 -1210648560 -1680982381 -1700911846 -1724806617 -96980289 847272705 -1841161676 -1589960121 -551532016 -1377325405 -197186794 1592843305 -884456227 -1122718253 96961305 254634354 1396999535 -1323984493 30806769 -690448609 416318005 1665584628 1336330821 -564176373 -871654310 -424730794 1957249297 634769668 1915014568
REM
CELL 1.54180   50.00000   50.00000   50.00000   90.00000   90.00000   90.00000
LATT -1
SFAC C  
C      1  0.5216810000000  0.4342720000000  0.4798550000000 1.0
C      1  0.5671400000000  0.4842860000000  0.4130340000000 1.0
C      1  0.4578740000000  0.4455990000000  0.6025100000000 1.0
C      1  0.5477810000000  0.4667270000000  0.3968020000000 1.0
C      1  0.5317580000000  0.4406650000000  0.6004110000000 1.0
C      1  0.4511100000000  0.5336860000000  0.5006680000000 1.0
C      1  0.4543930000000  0.5443940000000  0.5740530000000 1.0
C      1  0.4483560000000  0.4082950000000  0.4889190000000 1.0
C      1  0.4691380000000  0.5984910000000  0.4564870000000 1.0
C      1  0.4161950000000  0.5068810000000  0.4298480000000 1.0
C      1  0.4331050000000  0.5367460000000  0.5532300000000 1.0
C      1  0.5532980000000  0.5316640000000  0.4061970000000 1.0
C      1  0.5580260000000  0.5569560000000  0.4189010000000 1.0
C      1  0.4247180000000  0.5331880000000  0.4207130000000 1.0
C      1  0.4494070000000  0.4193330000000  0.4625420000000 1.0
C      1  0.4939580000000  0.5100760000000  0.5255700000000 1.0
C      1  0.4334340000000  0.4566880000000  0.5399910000000 1.0
C      1  0.4859090000000  0.5084930000000  0.3866550000000 1.0
C      1  0.4010680000000  0.4281850000000  0.4619600000000 1.0
C      1  0.5035250000000  0.4840530000000  0.5738390000000 1.0
C      1  0.4076760000000  0.5628760000000  0.4624410000000 1.0
C      1  0.5066130000000  0.5758930000000  0.4179110000000 1.0
C      1  0.5047720000000  0.5325550000000  0.5634470000000 1.0
C      1  0.5210020000000  0.6065080000000  0.5142800000000 1.0
C      1  0.5194960000000  0.4231920000000  0.4237260000000 1.0
C      1  0.6019480000000  0.5187500000000  0.5512840000000 1.0
C      1  0.5617640000000  0.4885530000000  0.4795970000000 1.0
C      1  0.4820390000000  0.5890490000000  0.4307260000000 1.0
C      1  0.6061030000000  0.5021820000000  0.5014930000000 1.0
C      1  0.6047180000000  0.4922810000000  0.5633960000000 1.0
C      1  0.5377160000000  0.5268590000000  0.4680430000000 1.0
C      1  0.4128040000000  0.5728090000000  0.5187370000000 1.0
C      1  0.4784400000000  0.5941870000000  0.4852380000000 1.0
C      1  0.6031010000000  0.4619950000000  0.4729000000000 1.0
C      1  0.4837130000000  0.5515130000000  0.5563530000000 1.0
C      1  0.4045900000000  0.4566760000000  0.5033970000000 1.0
C      1  0.4117170000000  0.4433380000000  0.5838960000000 1.0
C      1  0.5199960000000  0.4550720000000  0.4587500000000 1.0
C      1  0.5306290000000  0.5401860000000  0.5440970000000 1.0
C      1  0.5595710000000  0.5838580000000  0.4943880000000 1.0
C      1  0.5331770000000  0.4493620000000  0.4140790000000 1.0
C      1  0.4183810000000  0.5574850000000  0.4355340000000 1.0
C      1  0.4845740000000  0.4884310000000  0.5981630000000 1.0
C      1  0.4708150000000  0.4660030000000  0.3969010000000 1.0
C      1  0.5039730000000  0.5305920000000  0.3914060000000 1.0
C      1  0.4786090000000  0.4010750000000  0.5746290000000 1.0
C      1  0.5617060000000  0.5541110000000  0.5804830000000 1.0
C      1  0.5198210000000  0.4751610000000  0.4006760000000 1.0
C      1  0.5117890000000  0.5646370000000  0.5910220000000 1.0
C      1  0.4677330000000  0.3925290000000  0.5024390000000 1.0
C      1  0.4639710000000  0.4933730000000  0.5558650000000 1.0
C      1  0.5204890000000  0.5944730000000  0.4660820000000 1.0
C      1  0.4926450000000  0.5053260000000  0.5548070000000 1.0
C      1  0.5459750000000  0.4887340000000  0.4349800000000 1.0
C      1  0.5841380000000  0.5613850000000  0.4619090000000 1.0
C      1  0.5123320000000  0.5672220000000  0.4667380000000 1.0
C      1  0.5696530000000  0.4890290000000  0.5919000000000 1.0
C      1  0.6065730000000  0.5187300000000  0.4768190000000 1.0
C      1  0.4904320000000  0.4265970000000  0.4278610000000 1.0
C      1  0.5745750000000  0.5009060000000  0.5041710000000 1.0
C      1  0.5213780000000  0.4969990000000  0.4213400000000 1.0
C      1  0.4731420000000  0.4858940000000  0.4474530000000 1.0
C      1  0.5420610000000  0.4146290000000  0.4694100000000 1.0
C      1  0.5768630000000  0.5571220000000  0.5360480000000 1.0
C      1  0.5818960000000  0.5510320000000  0.4355710000000 1.0
C      1  0.4889910000000  0.5779540000000  0.5726220000000 1.0
C      1  0.5435560000000  0.5903440000000  0.4498600000000 1.0
C      1  0.5426280000000  0.4738590000000  0.5432440000000 1.0
C      1  0.4543410000000  0.5593460000000  0.5166070000000 1.0
C      1  0.4009440000000  0.4819990000000  0.5165220000000 1.0
C      1  0.4610240000000  0.5244960000000  0.5932690000000 1.0
C      1  0.5082500000000  0.4785810000000  0.4690490000000 1.0
C      1  0.4985020000000  0.3849670000000  0.5363390000000 1.0
C      1  0.5323570000000  0.4989610000000  0.5072330000000 1.0
C      1  0.5399010000000  0.5636470000000  0.5884480000000 1.0
C      1  0.4476130000000  0.5341080000000  0.4029460000000 1.0
C      1  0.4954060000000  0.5264060000000  0.4515070000000 1.0
C      1  0.4946100000000  0.3993790000000  0.4944570000000 1.0
C      1  0.4702760000000  0.3855950000000  0.5301190000000 1.0
C      1  0.4935440000000  0.4258340000000  0.4816030000000 1.0
C      1  0.5520670000000  0.4639230000000  0.5905450000000 1.0
C      1  0.4618980000000  0.5101900000000  0.5141280000000 1.0
C      1  0.4075850000000  0.5224450000000  0.5532440000000 1.0
C      1  0.5424440000000  0.4590270000000  0.4406680000000 1.0
C      1  0.3928680000000  0.5067240000000  0.5061870000000 1.0
C      1  0.5862630000000  0.4686460000000  0.4299580000000 1.0
C      1  0.4735080000000  0.4463390000000  0.4166140000000 1.0
C      1  0.4617910000000  0.6004490000000  0.5377480000000 1.0
C      1  0.4326960000000  0.5634050000000  0.5382780000000 1.0
C      1  0.4991400000000  0.4975770000000  0.4462110000000 1.0
C      1  0.4656440000000  0.5565640000000  0.4010280000000 1.0
C      1  0.5275180000000  0.5208300000000  0.4029600000000 1.0
C      1  0.4598860000000  0.4197370000000  0.5883750000000 1.0
C      1  0.4577370000000  0.3945110000000  0.5549230000000 1.0
C      1  0.4064250000000  0.5026380000000  0.4570020000000 1.0
C      1  0.5335530000000  0.4816410000000  0.5723420000000 1.0
C      1  0.4463220000000  0.5842150000000  0.5544660000000 1.0
C      1  0.6057190000000  0.5083510000000  0.4504690000000 1.0
C      1  0.3968940000000  0.5516010000000  0.5099620000000 1.0
C      1  0.5532570000000  0.5201330000000  0.5513390000000 1.0
C      1  0.5061530000000  0.4428110000000  0.5452560000000 1.0
C      1  0.4222600000000  0.5855880000000  0.4732210000000 1.0
C      1  0.4222070000000  0.4345280000000  0.5597220000000 1.0
C      1  0.4448970000000  0.5070390000000  0.5382410000000 1.0
C      1  0.5328360000000  0.4102850000000  0.4438680000000 1.0
C      1  0.4798000000000  0.5572760000000  0.5289040000000 1.0
C      1  0.5363460000000  0.4783190000000  0.4867010000000 1.0
C      1  0.4116090000000  0.4950220000000  0.5651980000000 1.0
C      1  0.5450890000000  0.5883770000000  0.5162840000000 1.0
C      1  0.4284770000000  0.4821270000000  0.4198980000000 1.0
C      1  0.4985920000000  0.5550200000000  0.5094030000000 1.0
C      1  0.5432930000000  0.4246970000000  0.5779370000000 1.0
C      1  0.5528390000000  0.5048320000000  0.4586710000000 1.0
C      1  0.5152360000000  0.3943560000000  0.5148140000000 1.0
C      1  0.4595490000000  0.5786330000000  0.4161920000000 1.0
C      1  0.5774680000000  0.5377340000000  0.5577010000000 1.0
C      1  0.4525970000000  0.5284550000000  0.4731540000000 1.0
C      1  0.5828320000000  0.4407270000000  0.4682550000000 1.0
C      1  0.4882580000000  0.4739120000000  0.4932440000000 1.0
C      1  0.4316450000000  0.4584090000000  0.5957500000000 1.0
C      1  0.4890640000000  0.5629890000000  0.4820910000000 1.0
C      1  0.5191290000000  0.5415750000000  0.4546070000000 1.0
C      1  0.3938340000000  0.5168620000000  0.4785690000000 1.0
C      1  0.5848740000000  0.4439680000000  0.5558150000000 1.0
C      1  0.4559870000000  0.4965780000000  0.5855160000000 1.0
C      1  0.5059550000000  0.5358960000000  0.5927840000000 1.0
C      1  0.3948380000000  0.5455350000000  0.4814840000000 1.0
C      1  0.3959190000000  0.5272780000000  0.5259080000000 1.0
C      1  0.4763480000000  0.4288980000000  0.4550720000000 1.0
C      1  0.4413330000000  0.5938380000000  0.4538730000000 1.0
C      1  0.5216370000000  0.4611790000000  0.5280230000000 1.0
C      1  0.5922410000000  0.5243130000000  0.4298760000000 1.0
C      1  0.5059500000000  0.4855390000000  0.5157180000000 1.0
C      1  0.4581200000000  0.5100970000000  0.3927230000000 1.0
C      1  0.5967430000000  0.4886770000000  0.5907010000000 1.0
C      1  0.5385430000000  0.4082850000000  0.5256830000000 1.0
C      1  0.5269640000000  0.4159450000000  0.5541100000000 1.0
C      1  0.6025590000000  0.4572920000000  0.5213010000000 1.0
C      1  0.5375250000000  0.5271520000000  0.4973170000000 1.0
C      1  0.4804410000000  0.4461410000000  0.5319000000000 1.0
C      1  0.4401650000000  0.4137590000000  0.5672670000000 1.0
C      1  0.5502710000000  0.5051160000000  0.5773960000000 1.0
C      1  0.5503070000000  0.5670000000000  0.5358430000000 1.0
C      1  0.4190210000000  0.4831750000000  0.5396460000000 1.0
C      1  0.5745930000000  0.5129780000000  0.4106000000000 1.0
C      1  0.5682440000000  0.5289330000000  0.5010700000000 1.0
C      1  0.4864360000000  0.5187450000000  0.6044420000000 1.0
C      1  0.4268050000000  0.5899990000000  0.5003600000000 1.0
C      1  0.5159070000000  0.5344140000000  0.5177000000000 1.0
C      1  0.5645790000000  0.5815030000000  0.4678690000000 1.0
C      1  0.5044980000000  0.3964710000000  0.5615040000000 1.0
C      1  0.3937460000000  0.4427990000000  0.4815830000000 1.0
C      1  0.5018780000000  0.4554880000000  0.5712610000000 1.0
C      1  0.5368880000000  0.5770020000000  0.4249580000000 1.0
C      1  0.5659590000000  0.4415030000000  0.5757280000000 1.0
C      1  0.4620150000000  0.4631940000000  0.5458100000000 1.0
C      1  0.6012930000000  0.4669550000000  0.5487470000000 1.0
C      1  0.4494610000000  0.4353520000000  0.4982660000000 1.0
C      1  0.4597510000000  0.5735430000000  0.5768680000000 1.0
C      1  0.4939190000000  0.4809370000000  0.3881520000000 1.0
C      1  0.5047380000000  0.4452920000000  0.5985050000000 1.0
C      1  0.5838150000000  0.4345680000000  0.5280540000000 1.0
C      1  0.4287660000000  0.4467620000000  0.5129420000000 1.0
C      1  0.5071480000000  0.6056320000000  0.4890490000000 1.0
C      1  0.4779430000000  0.4455570000000  0.5015440000000 1.0
C      1  0.5079200000000  0.6127400000000  0.5374400000000 1.0
C      1  0.5670560000000  0.4221430000000  0.4833800000000 1.0
C      1  0.4264230000000  0.4333510000000  0.4507760000000 1.0
C      1  0.4540880000000  0.4972450000000  0.4676430000000 1.0
C      1  0.6074830000000  0.5225580000000  0.5240590000000 1.0
C      1  0.4632530000000  0.4890130000000  0.4935390000000 1.0
C      1  0.4751950000000  0.5410120000000  0.4645660000000 1.0
C      1  0.4483900000000  0.4839040000000  0.3999460000000 1.0
C      1  0.4644440000000  0.4574470000000  0.4429730000000 1.0
C      1  0.4561400000000  0.5916480000000  0.5077010000000 1.0
C      1  0.6036120000000  0.4793640000000  0.4491540000000 1.0
C      1  0.4879200000000  0.6019720000000  0.5518360000000 1.0
C      1  0.4340600000000  0.4618590000000  0.4429650000000 1.0
C      1  0.6111900000000  0.4719630000000  0.4984100000000 1.0
C      1  0.4291640000000  0.4855210000000  0.5872840000000 1.0
C      1  0.5708230000000  0.4491210000000  0.4438220000000 1.0
C      1  0.5538550000000  0.4963650000000  0.5283110000000 1.0
C      1  0.4357600000000  0.5792960000000  0.4304730000000 1.0
C      1  0.5912900000000  0.5444290000000  0.5141490000000 1.0
C      1  0.5910330000000  0.5420800000000  0.4831260000000 1.0
C      1  0.4278660000000  0.4842460000000  0.4622090000000 1.0
C      1  0.4941810000000  0.5559990000000  0.3997250000000 1.0
C      1  0.4820430000000  0.4600920000000  0.6086000000000 1.0
C      1  0.5327010000000  0.4525190000000  0.5014300000000 1.0
C      1  0.5638360000000  0.4189850000000  0.5129830000000 1.0
END
