TITL C-2699-3823-7 53.3564751535961 125000 -807.093458231324 0 0 115 (C1) n - 1
REM
REM in /rds/project/t2_vol4/rds-t2-cs072/BORA/CARBON/from-Arr/AIRSS/Generating-Clusters/GAP-ML-2020/Only-C1/SD-CG/HFTN-CG
REM
REM
REM
REM
REM
REM ./C.cell (11c1c37f851c82e70ff6c80c92926a4b)
REM AIRSS Version 0.9.1 bugfix July 2018 build 013d7b7c2542+ Fri, 06 Jul 2018 19:26:36 +0100
REM compiler GCC version 9.3.0
REM options -cpp -mtune=generic -march=x86-64 -g -O0
REM seed 1711534671 -1170862494 -724866500 -436376324 -2121700647 499934849 -1670812949 -404281009 1400034921 1367825423 24848686 1023735574 2017933829 989628377 1299689333 -1908416273 1365693695 -1099783849 -491855878 -1258814802 855940363 960379447 1828584515 -386651146 1084858781 -810810175 -1892301724 -692216037 327379974 1805830466 -951470657 1533857773 -1682444262
REM
CELL 1.54180   50.00000   50.00000   50.00000   90.00000   90.00000   90.00000
LATT -1
SFAC C  
C      1  0.5034760000000  0.5132070000000  0.5662460000000 1.0
C      1  0.4563320000000  0.5016830000000  0.5094650000000 1.0
C      1  0.5466760000000  0.5214620000000  0.4920030000000 1.0
C      1  0.5798550000000  0.4982180000000  0.4428840000000 1.0
C      1  0.4681130000000  0.4817740000000  0.4710610000000 1.0
C      1  0.5022880000000  0.4737470000000  0.5175170000000 1.0
C      1  0.4126620000000  0.4954060000000  0.4790850000000 1.0
C      1  0.5010360000000  0.5208430000000  0.5138440000000 1.0
C      1  0.5617290000000  0.5403670000000  0.4439880000000 1.0
C      1  0.4207580000000  0.4480880000000  0.5100620000000 1.0
C      1  0.5950610000000  0.5141560000000  0.5034680000000 1.0
C      1  0.4529890000000  0.5565470000000  0.5432910000000 1.0
C      1  0.5788770000000  0.5548620000000  0.5163750000000 1.0
C      1  0.5253610000000  0.4726840000000  0.5312760000000 1.0
C      1  0.4376480000000  0.5463320000000  0.4890700000000 1.0
C      1  0.4604480000000  0.4295840000000  0.4399900000000 1.0
C      1  0.5177210000000  0.4324600000000  0.5698110000000 1.0
C      1  0.5390540000000  0.5792890000000  0.5290630000000 1.0
C      1  0.5512770000000  0.4305820000000  0.5090620000000 1.0
C      1  0.5543670000000  0.4859840000000  0.4475820000000 1.0
C      1  0.4556950000000  0.4541880000000  0.3949550000000 1.0
C      1  0.4758820000000  0.5704970000000  0.4996040000000 1.0
C      1  0.4589170000000  0.5244890000000  0.4887640000000 1.0
C      1  0.4276380000000  0.4616210000000  0.5346050000000 1.0
C      1  0.5444740000000  0.4701830000000  0.5767350000000 1.0
C      1  0.4568790000000  0.5142460000000  0.5683870000000 1.0
C      1  0.5172150000000  0.5221770000000  0.4292480000000 1.0
C      1  0.4516640000000  0.5829790000000  0.4558710000000 1.0
C      1  0.5375200000000  0.4188560000000  0.5310970000000 1.0
C      1  0.4759770000000  0.4826590000000  0.5418230000000 1.0
C      1  0.4516950000000  0.4754890000000  0.4948730000000 1.0
C      1  0.4673560000000  0.4773090000000  0.4033770000000 1.0
C      1  0.5167270000000  0.4588610000000  0.5806830000000 1.0
C      1  0.5324620000000  0.4460110000000  0.4658320000000 1.0
C      1  0.5682150000000  0.4534080000000  0.5145540000000 1.0
C      1  0.4528220000000  0.4994710000000  0.4157910000000 1.0
C      1  0.5038370000000  0.5388350000000  0.4731700000000 1.0
C      1  0.4869340000000  0.4269240000000  0.4515490000000 1.0
C      1  0.5547560000000  0.4964740000000  0.5660090000000 1.0
C      1  0.5520500000000  0.5239610000000  0.5784320000000 1.0
C      1  0.5428030000000  0.4282440000000  0.5570210000000 1.0
C      1  0.5042070000000  0.4242510000000  0.4981680000000 1.0
C      1  0.4436410000000  0.4306050000000  0.5050010000000 1.0
C      1  0.5073860000000  0.4502250000000  0.4503300000000 1.0
C      1  0.5660380000000  0.4763980000000  0.4959290000000 1.0
C      1  0.5322750000000  0.4292020000000  0.4877120000000 1.0
C      1  0.4960440000000  0.4262890000000  0.5519280000000 1.0
C      1  0.4919190000000  0.4535490000000  0.4995910000000 1.0
C      1  0.5632940000000  0.5429190000000  0.4749150000000 1.0
C      1  0.4321950000000  0.5048340000000  0.5579900000000 1.0
C      1  0.5092310000000  0.4167530000000  0.5268560000000 1.0
C      1  0.5338750000000  0.5314820000000  0.5981170000000 1.0
C      1  0.5563730000000  0.5027140000000  0.5118650000000 1.0
C      1  0.5351520000000  0.5458400000000  0.4348060000000 1.0
C      1  0.4806610000000  0.4954340000000  0.5682890000000 1.0
C      1  0.5116430000000  0.4717910000000  0.4290600000000 1.0
C      1  0.4633370000000  0.4521490000000  0.5097320000000 1.0
C      1  0.4722830000000  0.5200320000000  0.4193470000000 1.0
C      1  0.4698800000000  0.5802000000000  0.4375130000000 1.0
C      1  0.5265630000000  0.4946090000000  0.4414390000000 1.0
C      1  0.4972210000000  0.5112120000000  0.4096370000000 1.0
C      1  0.5787600000000  0.4895420000000  0.5489930000000 1.0
C      1  0.4281110000000  0.5046200000000  0.4569360000000 1.0
C      1  0.4171510000000  0.5392520000000  0.5058750000000 1.0
C      1  0.5782460000000  0.5232940000000  0.4305170000000 1.0
C      1  0.4247580000000  0.4509050000000  0.4607870000000 1.0
C      1  0.4835310000000  0.4153100000000  0.4778130000000 1.0
C      1  0.4956290000000  0.4828720000000  0.4087540000000 1.0
C      1  0.5763490000000  0.5389510000000  0.5396800000000 1.0
C      1  0.5461060000000  0.4720350000000  0.4719780000000 1.0
C      1  0.4915050000000  0.5359820000000  0.4427480000000 1.0
C      1  0.4281260000000  0.4630170000000  0.4351690000000 1.0
C      1  0.4888850000000  0.4667500000000  0.5768070000000 1.0
C      1  0.4542740000000  0.4163880000000  0.4836480000000 1.0
C      1  0.5209100000000  0.5690930000000  0.4745830000000 1.0
C      1  0.5826250000000  0.5114640000000  0.5298340000000 1.0
C      1  0.5590650000000  0.4505280000000  0.5617910000000 1.0
C      1  0.4649030000000  0.5421680000000  0.5659280000000 1.0
C      1  0.4220210000000  0.4666560000000  0.4854240000000 1.0
C      1  0.4486210000000  0.4476970000000  0.4206450000000 1.0
C      1  0.5745690000000  0.4620910000000  0.5412910000000 1.0
C      1  0.4843120000000  0.4974780000000  0.5182480000000 1.0
C      1  0.4331450000000  0.5416030000000  0.5292810000000 1.0
C      1  0.5185070000000  0.4900970000000  0.4718390000000 1.0
C      1  0.4948010000000  0.5816930000000  0.5401950000000 1.0
C      1  0.4580310000000  0.4592890000000  0.5387650000000 1.0
C      1  0.4412860000000  0.4274960000000  0.4609850000000 1.0
C      1  0.5867870000000  0.5399140000000  0.4940090000000 1.0
C      1  0.5159760000000  0.5186760000000  0.5387350000000 1.0
C      1  0.4158040000000  0.4866760000000  0.5428400000000 1.0
C      1  0.5370730000000  0.4985300000000  0.5358290000000 1.0
C      1  0.5191050000000  0.5161390000000  0.4866820000000 1.0
C      1  0.4515410000000  0.5700800000000  0.4808760000000 1.0
C      1  0.4575190000000  0.5079680000000  0.4642160000000 1.0
C      1  0.5080840000000  0.5683120000000  0.5612840000000 1.0
C      1  0.4057150000000  0.5121960000000  0.5013450000000 1.0
C      1  0.4913820000000  0.5495740000000  0.5752710000000 1.0
C      1  0.5031250000000  0.5830910000000  0.4944610000000 1.0
C      1  0.4925900000000  0.5644550000000  0.4364710000000 1.0
C      1  0.5487080000000  0.5671990000000  0.4835200000000 1.0
C      1  0.5365310000000  0.5654830000000  0.5537620000000 1.0
C      1  0.4419820000000  0.5152330000000  0.5337330000000 1.0
C      1  0.5996460000000  0.4905160000000  0.4608590000000 1.0
C      1  0.5200950000000  0.5681560000000  0.4451180000000 1.0
C      1  0.4302880000000  0.4913340000000  0.4322120000000 1.0
C      1  0.5569210000000  0.5450870000000  0.5595480000000 1.0
C      1  0.3982790000000  0.4980420000000  0.5238340000000 1.0
C      1  0.5137670000000  0.5877780000000  0.5198000000000 1.0
C      1  0.5088360000000  0.5309970000000  0.5878810000000 1.0
C      1  0.4703850000000  0.5740510000000  0.5289720000000 1.0
C      1  0.4948900000000  0.4705660000000  0.4731090000000 1.0
C      1  0.4759150000000  0.4454260000000  0.5596750000000 1.0
C      1  0.4838310000000  0.5399260000000  0.4954370000000 1.0
C      1  0.5924270000000  0.4906610000000  0.4866650000000 1.0
C      1  0.5581040000000  0.5730200000000  0.5095950000000 1.0
END
