TITL C-2698-4888-1 0.00541576784353608 125000 -471.418545263372 0 0 67 (C1) n - 1
REM
REM in /rds/project/t2_vol4/rds-t2-cs072/BORA/CARBON/from-Arr/AIRSS/Generating-Clusters/GAP-ML-2020/Only-C1/SD-CG/HFTN-CG
REM
REM
REM
REM
REM
REM ./C.cell (11c1c37f851c82e70ff6c80c92926a4b)
REM AIRSS Version 0.9.1 bugfix July 2018 build 013d7b7c2542+ Fri, 06 Jul 2018 19:26:36 +0100
REM compiler GCC version 9.3.0
REM options -cpp -mtune=generic -march=x86-64 -g -O0
REM seed -1141912924 -1471950987 223334233 883896291 1692782713 1567097207 1728495505 1443413720 1918804630 -1137315247 -378239883 -1437020839 -357635370 634240923 1760126560 -441857128 1601943827 -746052245 1239547505 1155452423 1218837897 -1682569469 264696850 397838940 1009708393 -1746346100 -104095424 87730196 1354387708 889212570 1530989650 -1052203493 1118257445
REM
CELL 1.54180   50.00000   50.00000   50.00000   90.00000   90.00000   90.00000
LATT -1
SFAC C  
C      1  0.5023610000000  0.4722700000000  0.4964690000000 1.0
C      1  0.4364650000000  0.4722620000000  0.4808490000000 1.0
C      1  0.4472650000000  0.5402850000000  0.5133660000000 1.0
C      1  0.5390570000000  0.5545160000000  0.4714340000000 1.0
C      1  0.5424260000000  0.5357980000000  0.5133330000000 1.0
C      1  0.5172600000000  0.5721220000000  0.4806490000000 1.0
C      1  0.5459090000000  0.4479610000000  0.4727270000000 1.0
C      1  0.4747880000000  0.4526730000000  0.4599980000000 1.0
C      1  0.4536130000000  0.4490630000000  0.4793330000000 1.0
C      1  0.4408110000000  0.4766070000000  0.5279240000000 1.0
C      1  0.5090810000000  0.4946410000000  0.5145520000000 1.0
C      1  0.5628090000000  0.4956850000000  0.4685690000000 1.0
C      1  0.4833290000000  0.5711750000000  0.5163830000000 1.0
C      1  0.5035390000000  0.5560730000000  0.4411230000000 1.0
C      1  0.4916430000000  0.5096080000000  0.5680700000000 1.0
C      1  0.5071500000000  0.4268750000000  0.4881140000000 1.0
C      1  0.4944860000000  0.5715410000000  0.4632500000000 1.0
C      1  0.4959040000000  0.4350910000000  0.5353980000000 1.0
C      1  0.4346020000000  0.5192250000000  0.4975370000000 1.0
C      1  0.4724300000000  0.4465590000000  0.5459590000000 1.0
C      1  0.5681840000000  0.4668460000000  0.4755820000000 1.0
C      1  0.4756620000000  0.5297350000000  0.4368120000000 1.0
C      1  0.5741850000000  0.5158400000000  0.4862500000000 1.0
C      1  0.4545190000000  0.4882840000000  0.5509100000000 1.0
C      1  0.4880380000000  0.4268410000000  0.5086160000000 1.0
C      1  0.4605860000000  0.5376760000000  0.5397810000000 1.0
C      1  0.5555560000000  0.4912390000000  0.5263670000000 1.0
C      1  0.5348550000000  0.5053140000000  0.5088890000000 1.0
C      1  0.4734340000000  0.4693320000000  0.5613040000000 1.0
C      1  0.5226200000000  0.4705300000000  0.5591280000000 1.0
C      1  0.5385550000000  0.5150790000000  0.5673960000000 1.0
C      1  0.5409680000000  0.4428080000000  0.5213860000000 1.0
C      1  0.5106750000000  0.5727680000000  0.5079630000000 1.0
C      1  0.4370240000000  0.5237480000000  0.4679310000000 1.0
C      1  0.5089580000000  0.5491010000000  0.5479560000000 1.0
C      1  0.5212980000000  0.4465570000000  0.5421140000000 1.0
C      1  0.4430360000000  0.4868970000000  0.4566730000000 1.0
C      1  0.4566630000000  0.5415840000000  0.4570360000000 1.0
C      1  0.4894670000000  0.5047320000000  0.4432150000000 1.0
C      1  0.5428770000000  0.4918360000000  0.5542340000000 1.0
C      1  0.5798270000000  0.4987910000000  0.5082770000000 1.0
C      1  0.4991620000000  0.4386130000000  0.4627530000000 1.0
C      1  0.4678680000000  0.5634450000000  0.4721500000000 1.0
C      1  0.4518840000000  0.4500140000000  0.5262500000000 1.0
C      1  0.5616990000000  0.4620940000000  0.5211290000000 1.0
C      1  0.5158220000000  0.5154850000000  0.4590370000000 1.0
C      1  0.5564720000000  0.5401830000000  0.4893570000000 1.0
C      1  0.4732540000000  0.4834350000000  0.4552250000000 1.0
C      1  0.5270150000000  0.5414700000000  0.4487990000000 1.0
C      1  0.4788520000000  0.4863290000000  0.4866660000000 1.0
C      1  0.4888130000000  0.5479660000000  0.4205880000000 1.0
C      1  0.5344130000000  0.4332740000000  0.4953630000000 1.0
C      1  0.5136690000000  0.5273100000000  0.5656710000000 1.0
C      1  0.5230000000000  0.4528100000000  0.4561490000000 1.0
C      1  0.4607690000000  0.4360910000000  0.5032460000000 1.0
C      1  0.4320940000000  0.4898770000000  0.5036930000000 1.0
C      1  0.4824030000000  0.5559540000000  0.5404870000000 1.0
C      1  0.5346360000000  0.4987040000000  0.4744710000000 1.0
C      1  0.5801120000000  0.4694490000000  0.5005850000000 1.0
C      1  0.5212560000000  0.4741970000000  0.4744920000000 1.0
C      1  0.4988620000000  0.5278770000000  0.4819690000000 1.0
C      1  0.4976580000000  0.4814470000000  0.5685140000000 1.0
C      1  0.4896290000000  0.5101390000000  0.5002550000000 1.0
C      1  0.5258270000000  0.5556330000000  0.5256570000000 1.0
C      1  0.4256540000000  0.5054980000000  0.4486420000000 1.0
C      1  0.4655610000000  0.5144190000000  0.5559650000000 1.0
C      1  0.4616990000000  0.5627160000000  0.5000310000000 1.0
END
