TITL C-260555-2310-2 0.203156989505377 125000 -141.141978024435 0 0 22 (C1) n - 1
REM
REM in /rds/project/t2_vol4/rds-t2-cs072/BORA/CARBON/from-Arr/AIRSS/Generating-Clusters/GAP-ML-2020/Only-C1/SD-CG/HFTN-CG
REM
REM
REM
REM
REM
REM ./C.cell (11c1c37f851c82e70ff6c80c92926a4b)
REM AIRSS Version 0.9.1 bugfix July 2018 build 013d7b7c2542+ Fri, 06 Jul 2018 19:26:36 +0100
REM compiler GCC version 9.3.0
REM options -cpp -mtune=generic -march=x86-64 -g -O0
REM seed 927465706 -316791478 503726505 -1190314813 -1515872607 1612966860 1308103110 -1519530595 -1336205349 -1403819845 -616766042 -1945468587 -468951128 633449568 -2131165434 665128110 1742221361 1219593593 -240875686 46152345 1810595252 -132762958 241028351 -72453819 -1238091371 -1598839857 674908138 -729068784 1444356962 -431070622 1439975540 1138370935 522456977
REM
CELL 1.54180   50.00000   50.00000   50.00000   90.00000   90.00000   90.00000
LATT -1
SFAC C  
C      1  0.4873820000000  0.4616180000000  0.5254010000000 1.0
C      1  0.5171310000000  0.5499030000000  0.4988200000000 1.0
C      1  0.5391600000000  0.4546840000000  0.4778230000000 1.0
C      1  0.4653420000000  0.4808660000000  0.5348110000000 1.0
C      1  0.5649190000000  0.4537190000000  0.4815320000000 1.0
C      1  0.5606380000000  0.5228160000000  0.5114870000000 1.0
C      1  0.4772220000000  0.4653740000000  0.4982480000000 1.0
C      1  0.5057450000000  0.4765640000000  0.5419380000000 1.0
C      1  0.4588740000000  0.4861150000000  0.5068970000000 1.0
C      1  0.4546570000000  0.5087530000000  0.4909500000000 1.0
C      1  0.5029400000000  0.5721260000000  0.4953180000000 1.0
C      1  0.5293700000000  0.4894850000000  0.5378280000000 1.0
C      1  0.5426900000000  0.5089700000000  0.5267920000000 1.0
C      1  0.4824050000000  0.4896410000000  0.5544150000000 1.0
C      1  0.4804260000000  0.4878900000000  0.4550230000000 1.0
C      1  0.4625300000000  0.5370220000000  0.4929480000000 1.0
C      1  0.4877960000000  0.5500370000000  0.4865660000000 1.0
C      1  0.4733790000000  0.5368920000000  0.4658630000000 1.0
C      1  0.4896790000000  0.4669770000000  0.4724100000000 1.0
C      1  0.5371180000000  0.5354460000000  0.5097780000000 1.0
C      1  0.4657300000000  0.5082560000000  0.4641440000000 1.0
C      1  0.5148660000000  0.4568450000000  0.4710080000000 1.0
END
