TITL C-260497-6929-3 -0.179769366607588 125000 -480.417578439498 0 0 68 (C1) n - 1
REM
REM in /rds/project/t2_vol4/rds-t2-cs072/BORA/CARBON/from-Arr/AIRSS/Generating-Clusters/GAP-ML-2020/Only-C1/SD-CG/HFTN-CG
REM
REM
REM
REM
REM
REM ./C.cell (11c1c37f851c82e70ff6c80c92926a4b)
REM AIRSS Version 0.9.1 bugfix July 2018 build 013d7b7c2542+ Fri, 06 Jul 2018 19:26:36 +0100
REM compiler GCC version 9.3.0
REM options -cpp -mtune=generic -march=x86-64 -g -O0
REM seed -762663216 1514005468 262543480 -1004618337 -1531511620 -457341409 989864150 1254247743 1397326094 -181210429 -1900797564 990943295 851499617 1417610531 285761315 216205464 -1148672270 1991530108 -561880855 1492391765 1173290334 986479565 1177739906 970172361 -904501683 -1901556570 1814340747 -79368796 905013440 951597469 -1024030534 1114690056 1207825667
REM
CELL 1.54180   50.00000   50.00000   50.00000   90.00000   90.00000   90.00000
LATT -1
SFAC C  
C      1  0.5354170000000  0.5079950000000  0.5610760000000 1.0
C      1  0.4990750000000  0.4658180000000  0.5304840000000 1.0
C      1  0.4556360000000  0.5225250000000  0.5382170000000 1.0
C      1  0.4438220000000  0.5230020000000  0.4639350000000 1.0
C      1  0.4134720000000  0.4788070000000  0.4833840000000 1.0
C      1  0.5452770000000  0.4885210000000  0.5446000000000 1.0
C      1  0.5077420000000  0.5688990000000  0.5386040000000 1.0
C      1  0.5231580000000  0.5752810000000  0.5153610000000 1.0
C      1  0.5177760000000  0.5502870000000  0.5581060000000 1.0
C      1  0.4565560000000  0.4515420000000  0.5127120000000 1.0
C      1  0.5120460000000  0.4791140000000  0.5085660000000 1.0
C      1  0.4968220000000  0.5312390000000  0.5661890000000 1.0
C      1  0.5089250000000  0.5351030000000  0.5025200000000 1.0
C      1  0.4963120000000  0.4246330000000  0.5103100000000 1.0
C      1  0.5360760000000  0.4952380000000  0.5167690000000 1.0
C      1  0.5059420000000  0.4472400000000  0.5673010000000 1.0
C      1  0.4778650000000  0.5713500000000  0.4900370000000 1.0
C      1  0.5002460000000  0.4183350000000  0.4625120000000 1.0
C      1  0.4639280000000  0.4899580000000  0.4345680000000 1.0
C      1  0.5070740000000  0.5680350000000  0.4912750000000 1.0
C      1  0.4639090000000  0.5614240000000  0.5131870000000 1.0
C      1  0.5357160000000  0.5234140000000  0.5065790000000 1.0
C      1  0.5074670000000  0.5038300000000  0.5685600000000 1.0
C      1  0.4832570000000  0.4341140000000  0.5572950000000 1.0
C      1  0.5333510000000  0.4949620000000  0.4444200000000 1.0
C      1  0.4704800000000  0.4630010000000  0.4415470000000 1.0
C      1  0.4310140000000  0.4930940000000  0.5002700000000 1.0
C      1  0.4854790000000  0.4843200000000  0.5498550000000 1.0
C      1  0.5483650000000  0.4608940000000  0.5408130000000 1.0
C      1  0.5426360000000  0.4416750000000  0.4977570000000 1.0
C      1  0.5555120000000  0.5547060000000  0.4838440000000 1.0
C      1  0.5351370000000  0.5217100000000  0.4533040000000 1.0
C      1  0.5617740000000  0.4842690000000  0.5046110000000 1.0
C      1  0.5486440000000  0.4776040000000  0.4615450000000 1.0
C      1  0.4599270000000  0.4940760000000  0.5395130000000 1.0
C      1  0.5227690000000  0.4309010000000  0.5159180000000 1.0
C      1  0.4792960000000  0.4412790000000  0.5288150000000 1.0
C      1  0.4468080000000  0.4779580000000  0.5198810000000 1.0
C      1  0.4979460000000  0.4760010000000  0.5742640000000 1.0
C      1  0.5232350000000  0.4478030000000  0.5416910000000 1.0
C      1  0.4888080000000  0.5318210000000  0.4404600000000 1.0
C      1  0.4906540000000  0.5179350000000  0.4936210000000 1.0
C      1  0.5482510000000  0.5714390000000  0.4645420000000 1.0
C      1  0.4657840000000  0.5643200000000  0.4674230000000 1.0
C      1  0.4477810000000  0.5366560000000  0.5135700000000 1.0
C      1  0.5211810000000  0.5644190000000  0.4654530000000 1.0
C      1  0.5094050000000  0.4862500000000  0.4327180000000 1.0
C      1  0.5592680000000  0.4578310000000  0.5139430000000 1.0
C      1  0.4327840000000  0.4758060000000  0.4649150000000 1.0
C      1  0.4420790000000  0.4988240000000  0.4498550000000 1.0
C      1  0.5378420000000  0.4517510000000  0.4701640000000 1.0
C      1  0.4522400000000  0.4546120000000  0.4623410000000 1.0
C      1  0.4796470000000  0.5626750000000  0.5363150000000 1.0
C      1  0.4992410000000  0.4603030000000  0.4391260000000 1.0
C      1  0.4738080000000  0.5392550000000  0.5520360000000 1.0
C      1  0.5514040000000  0.5236570000000  0.4787170000000 1.0
C      1  0.5144550000000  0.5410580000000  0.4494580000000 1.0
C      1  0.5514140000000  0.5399420000000  0.5266750000000 1.0
C      1  0.5495440000000  0.5635560000000  0.5118680000000 1.0
C      1  0.4376820000000  0.5208580000000  0.4925090000000 1.0
C      1  0.5146470000000  0.4417530000000  0.4555280000000 1.0
C      1  0.5630590000000  0.4951520000000  0.4791520000000 1.0
C      1  0.4876570000000  0.5052880000000  0.4304050000000 1.0
C      1  0.4638040000000  0.5413130000000  0.4536520000000 1.0
C      1  0.5409310000000  0.5353760000000  0.5528230000000 1.0
C      1  0.4605310000000  0.4410650000000  0.4859520000000 1.0
C      1  0.4848190000000  0.4244370000000  0.4846510000000 1.0
C      1  0.4953860000000  0.4926920000000  0.4919330000000 1.0
END
