TITL C-26387-3774-4 -0.52674651092571 125000 -894.747488527288 0 0 128 (C1) n - 1
REM
REM in /rds/project/t2_vol4/rds-t2-cs072/BORA/CARBON/from-Arr/AIRSS/Generating-Clusters/GAP-ML-2020/Only-C1/SD-CG/HFTN-CG
REM
REM
REM
REM
REM
REM ./C.cell (11c1c37f851c82e70ff6c80c92926a4b)
REM AIRSS Version 0.9.1 bugfix July 2018 build 013d7b7c2542+ Fri, 06 Jul 2018 19:26:36 +0100
REM compiler GCC version 9.3.0
REM options -cpp -mtune=generic -march=x86-64 -g -O0
REM seed -50597454 1840812378 -562495756 196733566 1856501726 1121025892 -658086625 1718309823 1268598905 723183737 1503013919 1523770931 -248571894 -36126842 -352216893 317419671 -169402316 668799779 -784103926 441746165 -1591217291 2122685833 -1191890435 -2013385477 84961244 -1753627315 -956421047 86608349 -811398737 226430156 385707628 2082557195 -982314150
REM
CELL 1.54180   50.00000   50.00000   50.00000   90.00000   90.00000   90.00000
LATT -1
SFAC C  
C      1  0.4738400000000  0.4865440000000  0.5554770000000 1.0
C      1  0.5294810000000  0.4352240000000  0.5687020000000 1.0
C      1  0.5753270000000  0.5473980000000  0.5340390000000 1.0
C      1  0.5696320000000  0.4546360000000  0.5086710000000 1.0
C      1  0.4798300000000  0.5483190000000  0.5009580000000 1.0
C      1  0.5351480000000  0.5198840000000  0.4411740000000 1.0
C      1  0.5642140000000  0.5448030000000  0.4211290000000 1.0
C      1  0.4569630000000  0.5141700000000  0.5269240000000 1.0
C      1  0.5009660000000  0.5687090000000  0.5113270000000 1.0
C      1  0.5188830000000  0.5049650000000  0.4846590000000 1.0
C      1  0.4882930000000  0.5004710000000  0.4992810000000 1.0
C      1  0.5188090000000  0.5016110000000  0.6004430000000 1.0
C      1  0.4664850000000  0.4607880000000  0.5816190000000 1.0
C      1  0.5258850000000  0.5501200000000  0.5088390000000 1.0
C      1  0.4878810000000  0.5339260000000  0.4109970000000 1.0
C      1  0.4957890000000  0.4226850000000  0.4440050000000 1.0
C      1  0.4727970000000  0.4737760000000  0.5071050000000 1.0
C      1  0.5415250000000  0.5422950000000  0.4628500000000 1.0
C      1  0.4976380000000  0.3961070000000  0.5213160000000 1.0
C      1  0.5514080000000  0.5440880000000  0.5515600000000 1.0
C      1  0.4596190000000  0.5618090000000  0.4427690000000 1.0
C      1  0.5210820000000  0.5347520000000  0.4840800000000 1.0
C      1  0.5318490000000  0.5707090000000  0.4564460000000 1.0
C      1  0.4932240000000  0.4907340000000  0.6038900000000 1.0
C      1  0.4485620000000  0.5496250000000  0.4950130000000 1.0
C      1  0.5344020000000  0.5857460000000  0.5339120000000 1.0
C      1  0.5040060000000  0.4498960000000  0.4339460000000 1.0
C      1  0.4591170000000  0.4848410000000  0.5310020000000 1.0
C      1  0.4162330000000  0.4858100000000  0.5128180000000 1.0
C      1  0.4724500000000  0.5317360000000  0.5887920000000 1.0
C      1  0.4556950000000  0.5970470000000  0.5169990000000 1.0
C      1  0.4423030000000  0.5173540000000  0.4269800000000 1.0
C      1  0.4486300000000  0.4562980000000  0.4874660000000 1.0
C      1  0.5765660000000  0.5021240000000  0.4432080000000 1.0
C      1  0.5600470000000  0.4294530000000  0.4955550000000 1.0
C      1  0.4679260000000  0.4124570000000  0.4834830000000 1.0
C      1  0.4411190000000  0.4725360000000  0.4424870000000 1.0
C      1  0.5537960000000  0.4993870000000  0.4270320000000 1.0
C      1  0.5384390000000  0.4103460000000  0.5024560000000 1.0
C      1  0.5133990000000  0.4589970000000  0.5320350000000 1.0
C      1  0.4753610000000  0.4621140000000  0.3903040000000 1.0
C      1  0.4935480000000  0.5575440000000  0.5570730000000 1.0
C      1  0.4928530000000  0.5402220000000  0.4756450000000 1.0
C      1  0.4363860000000  0.5222010000000  0.5524600000000 1.0
C      1  0.5062830000000  0.5888240000000  0.4897850000000 1.0
C      1  0.4920870000000  0.3988370000000  0.4937510000000 1.0
C      1  0.4886550000000  0.4660700000000  0.4567120000000 1.0
C      1  0.4959140000000  0.4556580000000  0.5096080000000 1.0
C      1  0.5375910000000  0.5003790000000  0.5261720000000 1.0
C      1  0.5204270000000  0.4563880000000  0.5868480000000 1.0
C      1  0.4649750000000  0.6009440000000  0.4936330000000 1.0
C      1  0.4243050000000  0.4747470000000  0.4870570000000 1.0
C      1  0.4697640000000  0.5052180000000  0.5973290000000 1.0
C      1  0.4173490000000  0.5139360000000  0.5105390000000 1.0
C      1  0.5410540000000  0.5706850000000  0.5542700000000 1.0
C      1  0.5180480000000  0.4029190000000  0.4820980000000 1.0
C      1  0.5359710000000  0.4818860000000  0.5878990000000 1.0
C      1  0.4312130000000  0.4952230000000  0.5630200000000 1.0
C      1  0.5225220000000  0.5275910000000  0.5895840000000 1.0
C      1  0.4643890000000  0.5045850000000  0.4828820000000 1.0
C      1  0.5348950000000  0.4536700000000  0.4345860000000 1.0
C      1  0.5083540000000  0.5708020000000  0.4388790000000 1.0
C      1  0.4785710000000  0.5168190000000  0.4628560000000 1.0
C      1  0.4441070000000  0.5200880000000  0.4992900000000 1.0
C      1  0.4882380000000  0.4056930000000  0.5472830000000 1.0
C      1  0.4692550000000  0.4874600000000  0.4010250000000 1.0
C      1  0.5254940000000  0.4033580000000  0.5274830000000 1.0
C      1  0.5404640000000  0.4900350000000  0.4981190000000 1.0
C      1  0.5469520000000  0.5247170000000  0.5741870000000 1.0
C      1  0.4416540000000  0.5567950000000  0.4654220000000 1.0
C      1  0.5103050000000  0.5509970000000  0.4185420000000 1.0
C      1  0.4983810000000  0.5433280000000  0.5839150000000 1.0
C      1  0.5543950000000  0.4971240000000  0.5705590000000 1.0
C      1  0.5058170000000  0.4566160000000  0.4828110000000 1.0
C      1  0.4914500000000  0.4945400000000  0.4487140000000 1.0
C      1  0.5734890000000  0.4827180000000  0.4646750000000 1.0
C      1  0.5426920000000  0.4260360000000  0.4469040000000 1.0
C      1  0.4926820000000  0.5066590000000  0.4019980000000 1.0
C      1  0.4640400000000  0.5626720000000  0.5559280000000 1.0
C      1  0.4344500000000  0.4482090000000  0.5444980000000 1.0
C      1  0.5836840000000  0.5458790000000  0.4929960000000 1.0
C      1  0.5318460000000  0.4660680000000  0.4834550000000 1.0
C      1  0.4245260000000  0.5148450000000  0.4498500000000 1.0
C      1  0.4598780000000  0.4537020000000  0.4586450000000 1.0
C      1  0.5826220000000  0.4997640000000  0.5187780000000 1.0
C      1  0.5072990000000  0.5769430000000  0.5392850000000 1.0
C      1  0.4449140000000  0.4262160000000  0.5274960000000 1.0
C      1  0.5015990000000  0.5281400000000  0.5416840000000 1.0
C      1  0.5300360000000  0.5307340000000  0.5310450000000 1.0
C      1  0.4976890000000  0.4612720000000  0.4064090000000 1.0
C      1  0.4497570000000  0.4284430000000  0.4996970000000 1.0
C      1  0.4191270000000  0.5344970000000  0.5318880000000 1.0
C      1  0.4239020000000  0.4866700000000  0.4601410000000 1.0
C      1  0.4487010000000  0.4907650000000  0.4204600000000 1.0
C      1  0.5799650000000  0.5322930000000  0.4422260000000 1.0
C      1  0.5452100000000  0.5748930000000  0.5074350000000 1.0
C      1  0.5724680000000  0.4824240000000  0.4953070000000 1.0
C      1  0.5873390000000  0.5273710000000  0.5163650000000 1.0
C      1  0.5642550000000  0.4894440000000  0.5411060000000 1.0
C      1  0.5627750000000  0.4606630000000  0.5351020000000 1.0
C      1  0.5715700000000  0.5428040000000  0.4673930000000 1.0
C      1  0.5323590000000  0.5853720000000  0.4813830000000 1.0
C      1  0.4329730000000  0.5566550000000  0.5200950000000 1.0
C      1  0.4222540000000  0.5384780000000  0.4624890000000 1.0
C      1  0.4984090000000  0.5008230000000  0.5544140000000 1.0
C      1  0.4631380000000  0.4183790000000  0.5497970000000 1.0
C      1  0.5156620000000  0.4860070000000  0.5385140000000 1.0
C      1  0.5602940000000  0.4339800000000  0.4672820000000 1.0
C      1  0.4542790000000  0.4877580000000  0.5794420000000 1.0
C      1  0.4836360000000  0.5944000000000  0.4735410000000 1.0
C      1  0.4301860000000  0.4762770000000  0.5382850000000 1.0
C      1  0.5195590000000  0.4111120000000  0.4547090000000 1.0
C      1  0.4709300000000  0.4244310000000  0.4581320000000 1.0
C      1  0.4529190000000  0.5405240000000  0.5695570000000 1.0
C      1  0.5142690000000  0.4851410000000  0.4036740000000 1.0
C      1  0.4538970000000  0.4413890000000  0.5651150000000 1.0
C      1  0.4614410000000  0.5400100000000  0.4228810000000 1.0
C      1  0.4833940000000  0.5243340000000  0.5190070000000 1.0
C      1  0.4930400000000  0.4637470000000  0.5948020000000 1.0
C      1  0.5370130000000  0.5380240000000  0.4179720000000 1.0
C      1  0.5520870000000  0.4621500000000  0.4609030000000 1.0
C      1  0.5396670000000  0.4474980000000  0.5444580000000 1.0
C      1  0.5724470000000  0.5654980000000  0.5116980000000 1.0
C      1  0.5387510000000  0.4776330000000  0.4165310000000 1.0
C      1  0.5167100000000  0.4129230000000  0.5547510000000 1.0
C      1  0.5171110000000  0.5019120000000  0.4552160000000 1.0
C      1  0.4820560000000  0.5796400000000  0.4480970000000 1.0
C      1  0.4487200000000  0.5755890000000  0.5347050000000 1.0
END
