TITL C-2681978-5050-10 -0.145131557909656 125000 -198.800355445597 0 0 31 (C1) n - 1
REM
REM in /nfs/bkarasulu/CARBON/AIRSS/Generating-Clusters/GAP-ML-2020/Only-C1/SD-CG/HFTN-CG
REM
REM
REM
REM
REM
REM ./C.cell (11c1c37f851c82e70ff6c80c92926a4b)
REM
REM compiler GCC version 9.2.1 20190827 (Red Hat 9.2.1-1)
REM options -cpp -mtune=generic -march=x86-64 -g -O0 -fpre-include=/usr/include/finclude/math-vector-fortran.h
REM seed -601665681 458494043 1983613250 544277330 -957507081 1095566335 1765697221 -1858738408 -195846240 -2051248905 1378033081 765611044 506668738 -929084428 -1060648757 33199582 435050418 -141930867 90025422 1270443048 -902448095 301091983 2036148977 401084217 -1594514112 1603629502 -1705570583 -2057243252 2005770289 -1100223003 -1418632120 782148898 2044411704
REM
CELL 1.54180   50.00000   50.00000   50.00000   90.00000   90.00000   90.00000
LATT -1
SFAC C  
C      1  0.5231010000000  0.4666500000000  0.4627390000000 1.0
C      1  0.4640030000000  0.4769530000000  0.5042120000000 1.0
C      1  0.5166340000000  0.4816170000000  0.4962800000000 1.0
C      1  0.5491390000000  0.4753950000000  0.4685130000000 1.0
C      1  0.5062350000000  0.5111370000000  0.4606270000000 1.0
C      1  0.4729810000000  0.5067520000000  0.5452960000000 1.0
C      1  0.5197290000000  0.5404750000000  0.4882490000000 1.0
C      1  0.4803830000000  0.4896510000000  0.5229210000000 1.0
C      1  0.5533940000000  0.5036030000000  0.4709520000000 1.0
C      1  0.5386740000000  0.4504770000000  0.5199590000000 1.0
C      1  0.4414740000000  0.5323500000000  0.4833640000000 1.0
C      1  0.4551760000000  0.5262240000000  0.5366050000000 1.0
C      1  0.5017400000000  0.5029430000000  0.5103300000000 1.0
C      1  0.5236520000000  0.4381600000000  0.5033620000000 1.0
C      1  0.4397590000000  0.4896320000000  0.5020690000000 1.0
C      1  0.4799780000000  0.4705910000000  0.4557670000000 1.0
C      1  0.4962750000000  0.5436580000000  0.5295590000000 1.0
C      1  0.5037470000000  0.4846770000000  0.4509900000000 1.0
C      1  0.5168430000000  0.5518390000000  0.5124380000000 1.0
C      1  0.5203470000000  0.5112950000000  0.5566190000000 1.0
C      1  0.4284460000000  0.5115130000000  0.4930790000000 1.0
C      1  0.4700210000000  0.5428080000000  0.5189530000000 1.0
C      1  0.4931820000000  0.5234340000000  0.4839650000000 1.0
C      1  0.5394090000000  0.4798210000000  0.5168560000000 1.0
C      1  0.5257070000000  0.5011480000000  0.5322500000000 1.0
C      1  0.5319890000000  0.5212310000000  0.4699180000000 1.0
C      1  0.5566830000000  0.4855420000000  0.4941000000000 1.0
C      1  0.4791880000000  0.4640850000000  0.4822680000000 1.0
C      1  0.4677370000000  0.5377830000000  0.4906370000000 1.0
C      1  0.4964940000000  0.5242090000000  0.5514020000000 1.0
C      1  0.5078790000000  0.4543470000000  0.4857200000000 1.0
END
