TITL C-2693-5551-6 1368.24745982139 125000 -413.656966753678 0 0 62 (C1) n - 1
REM
REM in /rds/project/t2_vol4/rds-t2-cs072/BORA/CARBON/from-Arr/AIRSS/Generating-Clusters/GAP-ML-2020/Only-C1/SD-CG/HFTN-CG
REM
REM
REM
REM
REM
REM ./C.cell (11c1c37f851c82e70ff6c80c92926a4b)
REM AIRSS Version 0.9.1 bugfix July 2018 build 013d7b7c2542+ Fri, 06 Jul 2018 19:26:36 +0100
REM compiler GCC version 9.3.0
REM options -cpp -mtune=generic -march=x86-64 -g -O0
REM seed -754816870 -1213654715 -1468264809 1101958658 764502152 -1780677368 -1962638434 -1753621976 -194348681 -100017759 -1462497070 1763591312 1551240355 531000398 -2084270027 -782038510 1396476864 1583184781 -1897595904 -1224457644 357942773 -1405811531 -952022749 -478759827 1367663062 1233107186 2064921565 1072554286 2030733378 658607007 666726107 307307318 -533500234
REM
CELL 1.54180   50.00000   50.00000   50.00000   90.00000   90.00000   90.00000
LATT -1
SFAC C  
C      1  0.4929000000000  0.4782630000000  0.5015920000000 1.0
C      1  0.5216220000000  0.4394570000000  0.5298890000000 1.0
C      1  0.4307130000000  0.4865840000000  0.4956480000000 1.0
C      1  0.5181410000000  0.4984470000000  0.4602170000000 1.0
C      1  0.4891430000000  0.4376110000000  0.4761990000000 1.0
C      1  0.4768450000000  0.5490180000000  0.4990280000000 1.0
C      1  0.4817200000000  0.5329630000000  0.5555910000000 1.0
C      1  0.5033020000000  0.5567710000000  0.5091960000000 1.0
C      1  0.4847380000000  0.4756930000000  0.5812840000000 1.0
C      1  0.4495540000000  0.4647580000000  0.4752140000000 1.0
C      1  0.4464190000000  0.4916730000000  0.5201510000000 1.0
C      1  0.4943740000000  0.5237330000000  0.4353600000000 1.0
C      1  0.5636200000000  0.4573110000000  0.5356730000000 1.0
C      1  0.5165380000000  0.5425040000000  0.4369100000000 1.0
C      1  0.5586210000000  0.5028580000000  0.5124180000000 1.0
C      1  0.4614950000000  0.4842420000000  0.4572910000000 1.0
C      1  0.4740280000000  0.4815880000000  0.5566600000000 1.0
C      1  0.5416930000000  0.4483030000000  0.5494370000000 1.0
C      1  0.4681790000000  0.5663560000000  0.4766030000000 1.0
C      1  0.5010020000000  0.4965940000000  0.4375800000000 1.0
C      1  0.4836440000000  0.4749280000000  0.4431670000000 1.0
C      1  0.4388920000000  0.5236000000000  0.5127850000000 1.0
C      1  0.5415790000000  0.4610660000000  0.4958790000000 1.0
C      1  0.4655630000000  0.5588800000000  0.4497160000000 1.0
C      1  0.4695220000000  0.5311990000000  0.4462940000000 1.0
C      1  0.4706390000000  0.4462000000000  0.5207130000000 1.0
C      1  0.5274870000000  0.5382500000000  0.5443740000000 1.0
C      1  0.5166470000000  0.4687170000000  0.5170770000000 1.0
C      1  0.5264040000000  0.5136330000000  0.5044030000000 1.0
C      1  0.5060940000000  0.5016760000000  0.4868390000000 1.0
C      1  0.5053690000000  0.4252090000000  0.4952220000000 1.0
C      1  0.5126160000000  0.5650240000000  0.4549260000000 1.0
C      1  0.5166400000000  0.5124240000000  0.5334650000000 1.0
C      1  0.4592170000000  0.4675140000000  0.5370250000000 1.0
C      1  0.4598020000000  0.5123840000000  0.4678620000000 1.0
C      1  0.5072850000000  0.5613520000000  0.5359600000000 1.0
C      1  0.4541980000000  0.5450100000000  0.5202770000000 1.0
C      1  0.4596700000000  0.5455860000000  0.5466450000000 1.0
C      1  0.4802790000000  0.5183050000000  0.4903310000000 1.0
C      1  0.4221260000000  0.4647170000000  0.4819080000000 1.0
C      1  0.5223670000000  0.4858260000000  0.5394490000000 1.0
C      1  0.5402960000000  0.4672250000000  0.4668870000000 1.0
C      1  0.5349850000000  0.5549680000000  0.4708110000000 1.0
C      1  0.5459330000000  0.4936410000000  0.4567700000000 1.0
C      1  0.5232430000000  0.4511310000000  0.4524750000000 1.0
C      1  0.5623270000000  0.4737200000000  0.5134450000000 1.0
C      1  0.4359800000000  0.5140180000000  0.4861120000000 1.0
C      1  0.5103360000000  0.4711370000000  0.5844840000000 1.0
C      1  0.4718950000000  0.4547290000000  0.4917880000000 1.0
C      1  0.5287170000000  0.4711850000000  0.5642320000000 1.0
C      1  0.4963130000000  0.4500200000000  0.4514130000000 1.0
C      1  0.5435860000000  0.5372650000000  0.4479330000000 1.0
C      1  0.5285200000000  0.5450280000000  0.4986400000000 1.0
C      1  0.4947260000000  0.4298340000000  0.5228600000000 1.0
C      1  0.5057480000000  0.5492100000000  0.5594610000000 1.0
C      1  0.5591880000000  0.5145400000000  0.4455450000000 1.0
C      1  0.5677600000000  0.5266300000000  0.5214640000000 1.0
C      1  0.4875370000000  0.5757470000000  0.4577250000000 1.0
C      1  0.5477620000000  0.5458100000000  0.5235880000000 1.0
C      1  0.5320070000000  0.4326500000000  0.5023550000000 1.0
C      1  0.4746850000000  0.4989720000000  0.5147430000000 1.0
C      1  0.4877690000000  0.5063130000000  0.5410130000000 1.0
END
