TITL C-260508-6654-5 -21.2945524552465 125000 -255.043511844765 0 0 39 (C1) n - 1
REM
REM in /rds/project/t2_vol4/rds-t2-cs072/BORA/CARBON/from-Arr/AIRSS/Generating-Clusters/GAP-ML-2020/Only-C1/SD-CG/HFTN-CG
REM
REM
REM
REM
REM
REM ./C.cell (11c1c37f851c82e70ff6c80c92926a4b)
REM AIRSS Version 0.9.1 bugfix July 2018 build 013d7b7c2542+ Fri, 06 Jul 2018 19:26:36 +0100
REM compiler GCC version 9.3.0
REM options -cpp -mtune=generic -march=x86-64 -g -O0
REM seed -710150950 -1669373424 1471610366 -1912869841 -263170673 -2124814772 210856090 984185757 931735009 -275548839 1171769073 -1725982918 1651821102 1447607372 1442077410 -446068933 -1787602410 55020582 1698586613 82599507 1609611100 880763623 537197465 49532324 -2011521590 -57752969 575521237 -1651787 -21629065 86126785 1624697148 1315640661 -1286388311
REM
CELL 1.54180   50.00000   50.00000   50.00000   90.00000   90.00000   90.00000
LATT -1
SFAC C  
C      1  0.5461440000000  0.5569220000000  0.4944600000000 1.0
C      1  0.4656880000000  0.4456790000000  0.4706420000000 1.0
C      1  0.4905420000000  0.4806330000000  0.5548060000000 1.0
C      1  0.5359600000000  0.4645080000000  0.4708530000000 1.0
C      1  0.5570120000000  0.5390720000000  0.4781450000000 1.0
C      1  0.5389720000000  0.4572170000000  0.5186820000000 1.0
C      1  0.5158260000000  0.4651860000000  0.4520780000000 1.0
C      1  0.5186940000000  0.5073120000000  0.5276950000000 1.0
C      1  0.5387230000000  0.5289100000000  0.5295340000000 1.0
C      1  0.4678480000000  0.4977870000000  0.5472180000000 1.0
C      1  0.4464960000000  0.4927280000000  0.4637730000000 1.0
C      1  0.5340990000000  0.4443680000000  0.4910670000000 1.0
C      1  0.4937320000000  0.4619930000000  0.5343650000000 1.0
C      1  0.5054280000000  0.5055410000000  0.5534020000000 1.0
C      1  0.5335910000000  0.4902070000000  0.4864950000000 1.0
C      1  0.4458520000000  0.5115760000000  0.5094000000000 1.0
C      1  0.4796410000000  0.5439720000000  0.5303710000000 1.0
C      1  0.4815680000000  0.5422590000000  0.4708780000000 1.0
C      1  0.5141820000000  0.4446400000000  0.5276670000000 1.0
C      1  0.4849350000000  0.5344140000000  0.4438100000000 1.0
C      1  0.5385950000000  0.4859440000000  0.5167900000000 1.0
C      1  0.4901550000000  0.5096920000000  0.4421530000000 1.0
C      1  0.4429690000000  0.5135950000000  0.4797700000000 1.0
C      1  0.5000210000000  0.5129170000000  0.5039780000000 1.0
C      1  0.5080790000000  0.4352330000000  0.4999810000000 1.0
C      1  0.4572020000000  0.5398470000000  0.4833760000000 1.0
C      1  0.5515400000000  0.5141000000000  0.4883900000000 1.0
C      1  0.4827450000000  0.4466690000000  0.4918900000000 1.0
C      1  0.5024150000000  0.5547550000000  0.5155070000000 1.0
C      1  0.5307480000000  0.5538200000000  0.5179100000000 1.0
C      1  0.4573880000000  0.5379360000000  0.5125300000000 1.0
C      1  0.4639180000000  0.4717410000000  0.4603580000000 1.0
C      1  0.5018920000000  0.5388540000000  0.4911450000000 1.0
C      1  0.4935660000000  0.4847380000000  0.4571050000000 1.0
C      1  0.5565170000000  0.5102610000000  0.5173430000000 1.0
C      1  0.4815710000000  0.5229540000000  0.5496070000000 1.0
C      1  0.4831610000000  0.4724200000000  0.5082290000000 1.0
C      1  0.5022230000000  0.4894450000000  0.4877140000000 1.0
C      1  0.4603640000000  0.4901580000000  0.5208850000000 1.0
END
