TITL C-26368-7880-7 72.2852241885403 125000 -499.01524053276 0 0 72 (C1) n - 1
REM
REM in /rds/project/t2_vol4/rds-t2-cs072/BORA/CARBON/from-Arr/AIRSS/Generating-Clusters/GAP-ML-2020/Only-C1/SD-CG/HFTN-CG
REM
REM
REM
REM
REM
REM ./C.cell (11c1c37f851c82e70ff6c80c92926a4b)
REM AIRSS Version 0.9.1 bugfix July 2018 build 013d7b7c2542+ Fri, 06 Jul 2018 19:26:36 +0100
REM compiler GCC version 9.3.0
REM options -cpp -mtune=generic -march=x86-64 -g -O0
REM seed -1586437974 -2108011786 69980309 -1640615065 -3275398 -935165276 1329292683 -256627670 176779283 -1466780498 818322588 -2076263041 837938560 550240737 639361775 -1171996062 1864464296 30489033 -627819507 528772762 -699981524 -1761662801 1390056139 1086855328 434758253 -632406397 -289063545 -1639995445 1653064659 1432132047 126335483 1229667710 1935626002
REM
CELL 1.54180   50.00000   50.00000   50.00000   90.00000   90.00000   90.00000
LATT -1
SFAC C  
C      1  0.5036670000000  0.5226720000000  0.5724330000000 1.0
C      1  0.5310520000000  0.5665110000000  0.4944430000000 1.0
C      1  0.4948060000000  0.5045360000000  0.4770290000000 1.0
C      1  0.4474550000000  0.5313120000000  0.4591300000000 1.0
C      1  0.5317600000000  0.5485480000000  0.4406930000000 1.0
C      1  0.4916590000000  0.4242710000000  0.5472490000000 1.0
C      1  0.4921530000000  0.4375750000000  0.4564010000000 1.0
C      1  0.5699900000000  0.5060420000000  0.4809030000000 1.0
C      1  0.5546790000000  0.4523680000000  0.4911000000000 1.0
C      1  0.5363760000000  0.4512240000000  0.4476760000000 1.0
C      1  0.5054020000000  0.5542540000000  0.4853630000000 1.0
C      1  0.5265450000000  0.4582210000000  0.5527330000000 1.0
C      1  0.4900770000000  0.4285170000000  0.5192720000000 1.0
C      1  0.4481540000000  0.4530930000000  0.5136100000000 1.0
C      1  0.4255320000000  0.4649490000000  0.5038660000000 1.0
C      1  0.5267250000000  0.4932750000000  0.4256800000000 1.0
C      1  0.5171000000000  0.5153390000000  0.5151850000000 1.0
C      1  0.4857290000000  0.5626250000000  0.5096420000000 1.0
C      1  0.4731420000000  0.4777610000000  0.4296530000000 1.0
C      1  0.5204950000000  0.4345830000000  0.4633820000000 1.0
C      1  0.4859490000000  0.4413790000000  0.5684700000000 1.0
C      1  0.5576180000000  0.4619730000000  0.4641750000000 1.0
C      1  0.5087690000000  0.5389360000000  0.4292370000000 1.0
C      1  0.5502180000000  0.5157390000000  0.5253410000000 1.0
C      1  0.4295510000000  0.5227500000000  0.5318570000000 1.0
C      1  0.5315240000000  0.4345000000000  0.4895070000000 1.0
C      1  0.4201520000000  0.4973990000000  0.5416640000000 1.0
C      1  0.4960520000000  0.5473230000000  0.5574410000000 1.0
C      1  0.5506790000000  0.5310550000000  0.4479310000000 1.0
C      1  0.4578680000000  0.5286400000000  0.5331770000000 1.0
C      1  0.4793560000000  0.4691370000000  0.5604500000000 1.0
C      1  0.5104070000000  0.5246920000000  0.4890670000000 1.0
C      1  0.5144010000000  0.4350820000000  0.5621230000000 1.0
C      1  0.5464530000000  0.4994040000000  0.5501860000000 1.0
C      1  0.4776590000000  0.5046850000000  0.4257890000000 1.0
C      1  0.4645610000000  0.5290800000000  0.4383930000000 1.0
C      1  0.5495780000000  0.4715350000000  0.5415050000000 1.0
C      1  0.4403040000000  0.4847270000000  0.5550280000000 1.0
C      1  0.5198290000000  0.4664270000000  0.4308820000000 1.0
C      1  0.4799900000000  0.5907660000000  0.4724290000000 1.0
C      1  0.5495070000000  0.5035620000000  0.4393990000000 1.0
C      1  0.5561410000000  0.5511770000000  0.4924670000000 1.0
C      1  0.5071020000000  0.4795590000000  0.4781870000000 1.0
C      1  0.4668660000000  0.4339450000000  0.5015250000000 1.0
C      1  0.5061250000000  0.4798100000000  0.5519440000000 1.0
C      1  0.5644410000000  0.5331690000000  0.4733410000000 1.0
C      1  0.5636560000000  0.4887410000000  0.4590780000000 1.0
C      1  0.4849480000000  0.5496660000000  0.4394560000000 1.0
C      1  0.5053970000000  0.5117360000000  0.4217410000000 1.0
C      1  0.4715150000000  0.4982180000000  0.5211880000000 1.0
C      1  0.4190220000000  0.4897530000000  0.5118810000000 1.0
C      1  0.5603090000000  0.4700200000000  0.5140390000000 1.0
C      1  0.4495570000000  0.5270660000000  0.4879020000000 1.0
C      1  0.4618070000000  0.4900020000000  0.5735680000000 1.0
C      1  0.4619170000000  0.5453430000000  0.5103680000000 1.0
C      1  0.4690580000000  0.5370410000000  0.5584630000000 1.0
C      1  0.4687960000000  0.5040330000000  0.4920330000000 1.0
C      1  0.4593960000000  0.4728620000000  0.5353530000000 1.0
C      1  0.5536070000000  0.5449990000000  0.5208750000000 1.0
C      1  0.4913090000000  0.5666740000000  0.4617540000000 1.0
C      1  0.5216790000000  0.5016620000000  0.5657410000000 1.0
C      1  0.5655040000000  0.4973790000000  0.5072920000000 1.0
C      1  0.5006910000000  0.4919130000000  0.5237420000000 1.0
C      1  0.4919080000000  0.4587470000000  0.4349360000000 1.0
C      1  0.5046670000000  0.5614790000000  0.5342990000000 1.0
C      1  0.4735520000000  0.4308370000000  0.4747000000000 1.0
C      1  0.4788100000000  0.5909770000000  0.4981600000000 1.0
C      1  0.4749790000000  0.5150000000000  0.5761790000000 1.0
C      1  0.5055740000000  0.4705610000000  0.5039860000000 1.0
C      1  0.5306940000000  0.5630480000000  0.5233350000000 1.0
C      1  0.4256700000000  0.5164360000000  0.5040590000000 1.0
C      1  0.5123810000000  0.4416820000000  0.5089150000000 1.0
END
