TITL C-260510-6746-1 0.110589198314215 125000 -192.862327456884 0 0 30 (C1) n - 1
REM
REM in /rds/project/t2_vol4/rds-t2-cs072/BORA/CARBON/from-Arr/AIRSS/Generating-Clusters/GAP-ML-2020/Only-C1/SD-CG/HFTN-CG
REM
REM
REM
REM
REM
REM ./C.cell (11c1c37f851c82e70ff6c80c92926a4b)
REM AIRSS Version 0.9.1 bugfix July 2018 build 013d7b7c2542+ Fri, 06 Jul 2018 19:26:36 +0100
REM compiler GCC version 9.3.0
REM options -cpp -mtune=generic -march=x86-64 -g -O0
REM seed -599171352 -991643207 762062887 -521388163 -1446469074 -1411692504 -1101996686 1227678911 515298839 1175757742 2005481224 -868921362 -242784728 -1242702758 8605461 -2141085784 -518301026 841472050 -1217511574 1522706208 269194437 -128702918 1556754364 101424009 -2137368861 231273202 -1406365933 1049428449 724095309 1085215846 1208547467 1410134443 536299107
REM
CELL 1.54180   50.00000   50.00000   50.00000   90.00000   90.00000   90.00000
LATT -1
SFAC C  
C      1  0.5455220000000  0.4971550000000  0.4629260000000 1.0
C      1  0.4583020000000  0.5255420000000  0.4851190000000 1.0
C      1  0.5077260000000  0.5216650000000  0.4704330000000 1.0
C      1  0.5212680000000  0.4719360000000  0.5277700000000 1.0
C      1  0.5416630000000  0.4931090000000  0.5304460000000 1.0
C      1  0.4446230000000  0.5212130000000  0.5324250000000 1.0
C      1  0.4966080000000  0.4718370000000  0.5404870000000 1.0
C      1  0.5243940000000  0.5006030000000  0.4855850000000 1.0
C      1  0.4597730000000  0.5527530000000  0.4818820000000 1.0
C      1  0.5158570000000  0.5355730000000  0.5150730000000 1.0
C      1  0.4480930000000  0.5100970000000  0.5079180000000 1.0
C      1  0.4591500000000  0.4816960000000  0.5071730000000 1.0
C      1  0.5660460000000  0.4811920000000  0.5218220000000 1.0
C      1  0.5289310000000  0.5111570000000  0.5121970000000 1.0
C      1  0.4576650000000  0.4658110000000  0.4848160000000 1.0
C      1  0.4699970000000  0.4730980000000  0.5337050000000 1.0
C      1  0.4819600000000  0.5544100000000  0.4978080000000 1.0
C      1  0.5568660000000  0.4708430000000  0.4979590000000 1.0
C      1  0.5092290000000  0.4752110000000  0.4863270000000 1.0
C      1  0.4811120000000  0.5107840000000  0.4767440000000 1.0
C      1  0.5284620000000  0.4606950000000  0.5024530000000 1.0
C      1  0.5088010000000  0.5464330000000  0.4880900000000 1.0
C      1  0.4733260000000  0.5209100000000  0.5346890000000 1.0
C      1  0.4889590000000  0.5416650000000  0.5241400000000 1.0
C      1  0.4856160000000  0.4916530000000  0.4979110000000 1.0
C      1  0.4829870000000  0.4964080000000  0.5447690000000 1.0
C      1  0.5269580000000  0.5141650000000  0.4492390000000 1.0
C      1  0.5647800000000  0.4800470000000  0.4726270000000 1.0
C      1  0.4948400000000  0.4653750000000  0.4635410000000 1.0
C      1  0.4704850000000  0.4569660000000  0.4639270000000 1.0
END
