TITL C-2681598-4990-15 -0.0526603975312004 125000 -1006.59729656828 0 0 143 (C1) n - 1
REM
REM in /nfs/bkarasulu/CARBON/AIRSS/Generating-Clusters/GAP-ML-2020/Only-C1/SD-CG/HFTN-CG
REM
REM
REM
REM
REM
REM ./C.cell (11c1c37f851c82e70ff6c80c92926a4b)
REM
REM compiler GCC version 9.2.1 20190827 (Red Hat 9.2.1-1)
REM options -cpp -mtune=generic -march=x86-64 -g -O0 -fpre-include=/usr/include/finclude/math-vector-fortran.h
REM seed 2139450033 1776114068 -415848230 -1727795495 252428513 1119664355 -1583525631 -288174751 -19830241 570718385 1011673380 -820814692 2001991647 195180299 244218641 -732811092 -1489904546 -1443660802 -360313401 1962311972 -1597722589 1305541873 -729080582 515402002 -1873774091 -1055941028 -1760176218 2101036834 -881062144 -549079459 1730963518 -1050829500 852194918
REM
CELL 1.54180   50.00000   50.00000   50.00000   90.00000   90.00000   90.00000
LATT -1
SFAC C  
C      1  0.5031890000000  0.5834330000000  0.5308910000000 1.0
C      1  0.5315510000000  0.5410820000000  0.5819090000000 1.0
C      1  0.4906550000000  0.4887680000000  0.5129710000000 1.0
C      1  0.4415510000000  0.4337430000000  0.4864850000000 1.0
C      1  0.5213430000000  0.5366160000000  0.5207530000000 1.0
C      1  0.4023210000000  0.5114290000000  0.5159400000000 1.0
C      1  0.4501490000000  0.4892740000000  0.5856470000000 1.0
C      1  0.4095440000000  0.4660090000000  0.5055200000000 1.0
C      1  0.4738290000000  0.5153650000000  0.4011760000000 1.0
C      1  0.4456100000000  0.4551790000000  0.4636820000000 1.0
C      1  0.4623940000000  0.4285950000000  0.5484090000000 1.0
C      1  0.5203830000000  0.4015400000000  0.4503660000000 1.0
C      1  0.4908850000000  0.5495160000000  0.5633470000000 1.0
C      1  0.5301580000000  0.5695290000000  0.4830660000000 1.0
C      1  0.4606030000000  0.5463910000000  0.5671530000000 1.0
C      1  0.5509920000000  0.5018030000000  0.5024210000000 1.0
C      1  0.5083710000000  0.5734620000000  0.5568400000000 1.0
C      1  0.4872810000000  0.5475020000000  0.4898340000000 1.0
C      1  0.5387520000000  0.5755560000000  0.4295020000000 1.0
C      1  0.4885540000000  0.4924840000000  0.4640200000000 1.0
C      1  0.4674960000000  0.5296780000000  0.4774190000000 1.0
C      1  0.5349300000000  0.5231010000000  0.4550230000000 1.0
C      1  0.4468360000000  0.5136440000000  0.4093930000000 1.0
C      1  0.5381750000000  0.4335070000000  0.4339490000000 1.0
C      1  0.4491860000000  0.5232660000000  0.5490570000000 1.0
C      1  0.5732740000000  0.4826970000000  0.5025370000000 1.0
C      1  0.5126630000000  0.4796760000000  0.4454710000000 1.0
C      1  0.5436450000000  0.5023390000000  0.4182480000000 1.0
C      1  0.5760640000000  0.5482550000000  0.5436340000000 1.0
C      1  0.4144900000000  0.4864960000000  0.5248210000000 1.0
C      1  0.4722050000000  0.5820900000000  0.5240460000000 1.0
C      1  0.5123070000000  0.5732700000000  0.4229930000000 1.0
C      1  0.4676330000000  0.4110350000000  0.5248090000000 1.0
C      1  0.4568310000000  0.5335620000000  0.5929830000000 1.0
C      1  0.4808240000000  0.4492670000000  0.4928930000000 1.0
C      1  0.4880680000000  0.4909120000000  0.4080940000000 1.0
C      1  0.4177210000000  0.5509650000000  0.4796570000000 1.0
C      1  0.5730190000000  0.5598660000000  0.4603240000000 1.0
C      1  0.4759690000000  0.5181930000000  0.4541990000000 1.0
C      1  0.4748760000000  0.5466470000000  0.4364970000000 1.0
C      1  0.5670810000000  0.5215530000000  0.5508820000000 1.0
C      1  0.4661420000000  0.4722220000000  0.4196730000000 1.0
C      1  0.5854090000000  0.5522800000000  0.5158880000000 1.0
C      1  0.4732640000000  0.5931580000000  0.4553390000000 1.0
C      1  0.5703000000000  0.5743310000000  0.5057210000000 1.0
C      1  0.4802110000000  0.4950050000000  0.5974060000000 1.0
C      1  0.5327540000000  0.4074960000000  0.4273110000000 1.0
C      1  0.4511060000000  0.5869610000000  0.4716340000000 1.0
C      1  0.5724930000000  0.4216190000000  0.4667990000000 1.0
C      1  0.5145460000000  0.4358860000000  0.5657270000000 1.0
C      1  0.5330200000000  0.4935880000000  0.5727970000000 1.0
C      1  0.4219990000000  0.4895980000000  0.4388560000000 1.0
C      1  0.5358700000000  0.4936180000000  0.4591190000000 1.0
C      1  0.5435910000000  0.4679650000000  0.5820260000000 1.0
C      1  0.4933720000000  0.4098750000000  0.4547890000000 1.0
C      1  0.5622460000000  0.4893220000000  0.4424160000000 1.0
C      1  0.5022740000000  0.5725170000000  0.4740720000000 1.0
C      1  0.4934290000000  0.4042290000000  0.5354060000000 1.0
C      1  0.5320260000000  0.3935810000000  0.4751630000000 1.0
C      1  0.5984980000000  0.4856520000000  0.4902770000000 1.0
C      1  0.5293910000000  0.4903850000000  0.5408970000000 1.0
C      1  0.4376760000000  0.5648610000000  0.5576910000000 1.0
C      1  0.5044480000000  0.5009050000000  0.4892300000000 1.0
C      1  0.4869250000000  0.4039490000000  0.4816560000000 1.0
C      1  0.5583120000000  0.5582190000000  0.4350200000000 1.0
C      1  0.5505750000000  0.5805470000000  0.5250820000000 1.0
C      1  0.4826650000000  0.5231380000000  0.6001850000000 1.0
C      1  0.4835650000000  0.5411610000000  0.4084110000000 1.0
C      1  0.5568540000000  0.5685370000000  0.5499760000000 1.0
C      1  0.4576730000000  0.4947440000000  0.5549100000000 1.0
C      1  0.5254850000000  0.4595820000000  0.4990190000000 1.0
C      1  0.5170590000000  0.3995010000000  0.5216160000000 1.0
C      1  0.4233580000000  0.5497430000000  0.5084090000000 1.0
C      1  0.4671910000000  0.4209070000000  0.4962820000000 1.0
C      1  0.5032070000000  0.5385190000000  0.5872650000000 1.0
C      1  0.5696910000000  0.4613990000000  0.5220630000000 1.0
C      1  0.4337290000000  0.5666200000000  0.4618070000000 1.0
C      1  0.4858150000000  0.4878120000000  0.5576410000000 1.0
C      1  0.5159040000000  0.4908800000000  0.4174550000000 1.0
C      1  0.5310320000000  0.4881800000000  0.4878050000000 1.0
C      1  0.4888790000000  0.4352830000000  0.4429460000000 1.0
C      1  0.5019050000000  0.5596340000000  0.4008440000000 1.0
C      1  0.5611950000000  0.4126520000000  0.5104880000000 1.0
C      1  0.5769180000000  0.4642950000000  0.4484030000000 1.0
C      1  0.5923740000000  0.4639610000000  0.4729060000000 1.0
C      1  0.5784420000000  0.4355310000000  0.5105560000000 1.0
C      1  0.4150760000000  0.5171480000000  0.4431720000000 1.0
C      1  0.4653380000000  0.4506840000000  0.4387780000000 1.0
C      1  0.5307470000000  0.5400390000000  0.4763130000000 1.0
C      1  0.4756960000000  0.5495530000000  0.5182140000000 1.0
C      1  0.4962380000000  0.5332960000000  0.5362560000000 1.0
C      1  0.5249630000000  0.5719940000000  0.5139760000000 1.0
C      1  0.4987570000000  0.4604070000000  0.5105820000000 1.0
C      1  0.5020810000000  0.4831190000000  0.5820360000000 1.0
C      1  0.5169940000000  0.4571040000000  0.5843170000000 1.0
C      1  0.4506100000000  0.5832740000000  0.5436150000000 1.0
C      1  0.4316270000000  0.5321310000000  0.4256980000000 1.0
C      1  0.5409950000000  0.4130640000000  0.5297910000000 1.0
C      1  0.5149350000000  0.4494480000000  0.4482260000000 1.0
C      1  0.5381670000000  0.4615700000000  0.5271690000000 1.0
C      1  0.5878050000000  0.4379660000000  0.4838880000000 1.0
C      1  0.5777570000000  0.4725040000000  0.5480180000000 1.0
C      1  0.5853990000000  0.4996910000000  0.5426430000000 1.0
C      1  0.4614980000000  0.4889490000000  0.5056200000000 1.0
C      1  0.5108730000000  0.5295720000000  0.4932470000000 1.0
C      1  0.5732680000000  0.5167040000000  0.4486570000000 1.0
C      1  0.5973580000000  0.5054400000000  0.5112560000000 1.0
C      1  0.4541360000000  0.5151890000000  0.4979590000000 1.0
C      1  0.4418330000000  0.4875200000000  0.4184420000000 1.0
C      1  0.4412630000000  0.4625990000000  0.5828750000000 1.0
C      1  0.4269360000000  0.4438600000000  0.5086560000000 1.0
C      1  0.4402770000000  0.4517230000000  0.5342000000000 1.0
C      1  0.5569170000000  0.4037450000000  0.4833500000000 1.0
C      1  0.5852520000000  0.5349710000000  0.4685420000000 1.0
C      1  0.5597360000000  0.5756090000000  0.4798880000000 1.0
C      1  0.4355200000000  0.5147160000000  0.5903100000000 1.0
C      1  0.3994740000000  0.5070270000000  0.4877320000000 1.0
C      1  0.4908140000000  0.4226990000000  0.5570580000000 1.0
C      1  0.5110450000000  0.3947790000000  0.4942280000000 1.0
C      1  0.5518760000000  0.5290110000000  0.4323590000000 1.0
C      1  0.5476870000000  0.5191090000000  0.5745980000000 1.0
C      1  0.5000110000000  0.5007620000000  0.5374120000000 1.0
C      1  0.4066160000000  0.5270200000000  0.4687670000000 1.0
C      1  0.4207810000000  0.4709330000000  0.4593870000000 1.0
C      1  0.5379160000000  0.4376560000000  0.5470500000000 1.0
C      1  0.4445580000000  0.5538010000000  0.4373590000000 1.0
C      1  0.4147360000000  0.5461170000000  0.5539260000000 1.0
C      1  0.4231760000000  0.5227720000000  0.5657870000000 1.0
C      1  0.4915350000000  0.5708590000000  0.4459050000000 1.0
C      1  0.5602760000000  0.4552030000000  0.5642490000000 1.0
C      1  0.4879460000000  0.5978170000000  0.4800430000000 1.0
C      1  0.5929020000000  0.5311310000000  0.4977850000000 1.0
C      1  0.4497750000000  0.5344620000000  0.5199690000000 1.0
C      1  0.4054040000000  0.5385740000000  0.5271540000000 1.0
C      1  0.5258770000000  0.4412030000000  0.4777650000000 1.0
C      1  0.5427340000000  0.5140280000000  0.5272800000000 1.0
C      1  0.4438400000000  0.4810310000000  0.5313460000000 1.0
C      1  0.4671540000000  0.4719090000000  0.4797900000000 1.0
C      1  0.5646040000000  0.4384500000000  0.4450410000000 1.0
C      1  0.5340880000000  0.5652600000000  0.5661340000000 1.0
C      1  0.4657730000000  0.5937910000000  0.4970290000000 1.0
C      1  0.4046870000000  0.4790550000000  0.4812970000000 1.0
C      1  0.4424350000000  0.4448130000000  0.5620130000000 1.0
END
