TITL C-2681590-4462-19 0.00253659958387547 125000 -22.9478494892733 0 0 4 (D(inf)h) n - 1
REM
REM in /nfs/bkarasulu/CARBON/AIRSS/Generating-Clusters/GAP-ML-2020/Only-C1/SD-CG/HFTN-CG
REM
REM
REM
REM
REM
REM ./C.cell (11c1c37f851c82e70ff6c80c92926a4b)
REM
REM compiler GCC version 9.2.1 20190827 (Red Hat 9.2.1-1)
REM options -cpp -mtune=generic -march=x86-64 -g -O0 -fpre-include=/usr/include/finclude/math-vector-fortran.h
REM seed 2017307061 1142630076 302453448 2087678588 2073953465 1373521979 938148347 -1902018358 -2039728852 382608273 -2031268867 -644219926 -1181308137 877799155 1048177783 717763609 -421002132 -1896850532 -326229273 -816773182 -1992799955 159012939 919579594 -1038935842 1861655316 739956819 494907766 -904109192 803275771 -1653151282 886074725 1224678607 1332543405
REM
CELL 1.54180   50.00000   50.00000   50.00000   90.00000   90.00000   90.00000
LATT -1
SFAC C  
C      1  0.5132300000000  0.5023540000000  0.4991350000000 1.0
C      1  0.4618170000000  0.4932050000000  0.5024950000000 1.0
C      1  0.4867700000000  0.4976460000000  0.5008650000000 1.0
C      1  0.5381830000000  0.5067950000000  0.4975050000000 1.0
END
