TITL C-26367-8133-8 -0.0389085627275889 125000 -667.538650767012 0 0 94 (C1) n - 1
REM
REM in /rds/project/t2_vol4/rds-t2-cs072/BORA/CARBON/from-Arr/AIRSS/Generating-Clusters/GAP-ML-2020/Only-C1/SD-CG/HFTN-CG
REM
REM
REM
REM
REM
REM ./C.cell (11c1c37f851c82e70ff6c80c92926a4b)
REM AIRSS Version 0.9.1 bugfix July 2018 build 013d7b7c2542+ Fri, 06 Jul 2018 19:26:36 +0100
REM compiler GCC version 9.3.0
REM options -cpp -mtune=generic -march=x86-64 -g -O0
REM seed -799650148 -1645535477 121226267 -2029482443 1615288764 1058634949 -2004501263 1264118479 -1962148437 -1498731699 -1461168002 -546763499 -1284825592 562780024 90488867 2077099259 -241161388 1620491634 1815894355 -1208978181 -1292850508 -277837592 354825327 841023177 1284636349 689591608 -1791429559 -452212267 -1170835410 1117003845 -312327525 -2015007951 2003004068
REM
CELL 1.54180   50.00000   50.00000   50.00000   90.00000   90.00000   90.00000
LATT -1
SFAC C  
C      1  0.5455820000000  0.4566960000000  0.4672710000000 1.0
C      1  0.4669630000000  0.4957770000000  0.4338690000000 1.0
C      1  0.4826850000000  0.4089930000000  0.5592920000000 1.0
C      1  0.4260160000000  0.5274500000000  0.5137460000000 1.0
C      1  0.4835750000000  0.4738240000000  0.4460720000000 1.0
C      1  0.4736220000000  0.5497650000000  0.5576590000000 1.0
C      1  0.4409480000000  0.5521200000000  0.5138990000000 1.0
C      1  0.4592700000000  0.5601410000000  0.5344530000000 1.0
C      1  0.4521680000000  0.4628350000000  0.5361540000000 1.0
C      1  0.4957280000000  0.5706060000000  0.5024030000000 1.0
C      1  0.4446670000000  0.5464180000000  0.4633520000000 1.0
C      1  0.4698350000000  0.4734560000000  0.5580550000000 1.0
C      1  0.5111100000000  0.5013780000000  0.4182670000000 1.0
C      1  0.5464710000000  0.4682400000000  0.5539320000000 1.0
C      1  0.4287390000000  0.4664390000000  0.4745950000000 1.0
C      1  0.4232500000000  0.4841310000000  0.4966380000000 1.0
C      1  0.4529810000000  0.4520530000000  0.4784970000000 1.0
C      1  0.4830880000000  0.5220520000000  0.5604370000000 1.0
C      1  0.5476920000000  0.4504660000000  0.5317460000000 1.0
C      1  0.5843340000000  0.5043570000000  0.5078040000000 1.0
C      1  0.5215200000000  0.4799320000000  0.5648890000000 1.0
C      1  0.4693510000000  0.5031790000000  0.5991610000000 1.0
C      1  0.5069210000000  0.5193710000000  0.5805360000000 1.0
C      1  0.4803120000000  0.4145570000000  0.5326910000000 1.0
C      1  0.4692590000000  0.4977070000000  0.4876280000000 1.0
C      1  0.4979090000000  0.5361160000000  0.4993710000000 1.0
C      1  0.4820210000000  0.4278060000000  0.5773640000000 1.0
C      1  0.4319560000000  0.5210110000000  0.4641530000000 1.0
C      1  0.5035690000000  0.5298220000000  0.4722830000000 1.0
C      1  0.5046820000000  0.4729740000000  0.5891330000000 1.0
C      1  0.4964110000000  0.4986430000000  0.5993540000000 1.0
C      1  0.5692350000000  0.5114540000000  0.4613710000000 1.0
C      1  0.4976680000000  0.5663650000000  0.5524600000000 1.0
C      1  0.5660100000000  0.4888090000000  0.5504680000000 1.0
C      1  0.5309550000000  0.5086580000000  0.5703620000000 1.0
C      1  0.5030720000000  0.4658080000000  0.4911700000000 1.0
C      1  0.5237440000000  0.4392730000000  0.5234830000000 1.0
C      1  0.4797740000000  0.5762810000000  0.4567180000000 1.0
C      1  0.5012370000000  0.4301330000000  0.4534420000000 1.0
C      1  0.4829070000000  0.5424380000000  0.4253890000000 1.0
C      1  0.5663860000000  0.4662350000000  0.4850670000000 1.0
C      1  0.4493150000000  0.5613100000000  0.4878090000000 1.0
C      1  0.5652750000000  0.5472300000000  0.4963070000000 1.0
C      1  0.4928550000000  0.4482130000000  0.4326610000000 1.0
C      1  0.5116010000000  0.4860420000000  0.4441180000000 1.0
C      1  0.4770190000000  0.5144800000000  0.5075660000000 1.0
C      1  0.4403680000000  0.4994170000000  0.4458240000000 1.0
C      1  0.5239040000000  0.5621450000000  0.5540710000000 1.0
C      1  0.5793720000000  0.4839490000000  0.5263940000000 1.0
C      1  0.5323610000000  0.5027070000000  0.5111460000000 1.0
C      1  0.5342450000000  0.5436780000000  0.4295830000000 1.0
C      1  0.5185850000000  0.4223980000000  0.5009910000000 1.0
C      1  0.5452530000000  0.5578300000000  0.5372330000000 1.0
C      1  0.5459910000000  0.5647250000000  0.5087810000000 1.0
C      1  0.5679180000000  0.4610430000000  0.5135020000000 1.0
C      1  0.4827210000000  0.4548190000000  0.5792160000000 1.0
C      1  0.4768100000000  0.4718740000000  0.4762140000000 1.0
C      1  0.5370430000000  0.5163810000000  0.4240520000000 1.0
C      1  0.4735580000000  0.5770480000000  0.4838420000000 1.0
C      1  0.5025210000000  0.4556900000000  0.4073190000000 1.0
C      1  0.5247520000000  0.5761950000000  0.4936190000000 1.0
C      1  0.5199050000000  0.4901600000000  0.4906290000000 1.0
C      1  0.4614280000000  0.5013020000000  0.5712270000000 1.0
C      1  0.4912590000000  0.5081730000000  0.5336310000000 1.0
C      1  0.5101530000000  0.4788920000000  0.3995480000000 1.0
C      1  0.5193400000000  0.4421690000000  0.4768460000000 1.0
C      1  0.4758010000000  0.4089290000000  0.4865190000000 1.0
C      1  0.5769630000000  0.5304730000000  0.5161910000000 1.0
C      1  0.5471250000000  0.5554330000000  0.4528690000000 1.0
C      1  0.4328270000000  0.4805660000000  0.5237620000000 1.0
C      1  0.4955560000000  0.4070190000000  0.5074990000000 1.0
C      1  0.5567300000000  0.5145730000000  0.5587830000000 1.0
C      1  0.4986120000000  0.4578230000000  0.5210190000000 1.0
C      1  0.4835030000000  0.5750190000000  0.5284800000000 1.0
C      1  0.4696550000000  0.4420100000000  0.5223540000000 1.0
C      1  0.4862600000000  0.4088400000000  0.4609760000000 1.0
C      1  0.5147120000000  0.5209570000000  0.5209080000000 1.0
C      1  0.4599980000000  0.4316730000000  0.4958380000000 1.0
C      1  0.5774190000000  0.4936060000000  0.4818080000000 1.0
C      1  0.5639040000000  0.5393430000000  0.4690350000000 1.0
C      1  0.4215850000000  0.5125560000000  0.4899810000000 1.0
C      1  0.4647900000000  0.5554220000000  0.4441770000000 1.0
C      1  0.4242400000000  0.4774090000000  0.4498510000000 1.0
C      1  0.4387810000000  0.5126190000000  0.5586300000000 1.0
C      1  0.5399590000000  0.4749160000000  0.4459820000000 1.0
C      1  0.5083860000000  0.5559820000000  0.4275200000000 1.0
C      1  0.5538460000000  0.4998880000000  0.4405220000000 1.0
C      1  0.5287120000000  0.5743290000000  0.4653640000000 1.0
C      1  0.5137710000000  0.5057010000000  0.4675460000000 1.0
C      1  0.4837620000000  0.5146580000000  0.4211470000000 1.0
C      1  0.5640770000000  0.5358730000000  0.5413510000000 1.0
C      1  0.4961410000000  0.4795390000000  0.5426570000000 1.0
C      1  0.4292910000000  0.5075400000000  0.5345490000000 1.0
C      1  0.5064200000000  0.5756700000000  0.4479210000000 1.0
END
