TITL C-260519-6842-5 45.7102393321774 125000 -871.176720179241 0 0 125 (C1) n - 1
REM
REM in /rds/project/t2_vol4/rds-t2-cs072/BORA/CARBON/from-Arr/AIRSS/Generating-Clusters/GAP-ML-2020/Only-C1/SD-CG/HFTN-CG
REM
REM
REM
REM
REM
REM ./C.cell (11c1c37f851c82e70ff6c80c92926a4b)
REM AIRSS Version 0.9.1 bugfix July 2018 build 013d7b7c2542+ Fri, 06 Jul 2018 19:26:36 +0100
REM compiler GCC version 9.3.0
REM options -cpp -mtune=generic -march=x86-64 -g -O0
REM seed 972873394 -1862569150 2127617260 -496568261 1743794532 2138322447 678424819 672736236 -1427534115 1223592655 -37721663 -58457644 -350435724 -172747914 470297023 -1034057110 1980433562 1334029712 -1199835125 1636950925 -384891202 1211851937 679901920 400355011 754896534 1136997905 -510724360 721634683 -594468801 -218155906 1721546951 803058118 -366236961
REM
CELL 1.54180   50.00000   50.00000   50.00000   90.00000   90.00000   90.00000
LATT -1
SFAC C  
C      1  0.5710250000000  0.5057800000000  0.5700470000000 1.0
C      1  0.5590100000000  0.4871630000000  0.5286950000000 1.0
C      1  0.4359780000000  0.4178540000000  0.5057830000000 1.0
C      1  0.4373950000000  0.4188190000000  0.4650450000000 1.0
C      1  0.4823850000000  0.4836680000000  0.4462460000000 1.0
C      1  0.4792370000000  0.5087980000000  0.4035020000000 1.0
C      1  0.4607080000000  0.5044000000000  0.5063830000000 1.0
C      1  0.5438060000000  0.5019440000000  0.5062230000000 1.0
C      1  0.5368720000000  0.4122090000000  0.5308870000000 1.0
C      1  0.5725040000000  0.4583660000000  0.4642680000000 1.0
C      1  0.5111690000000  0.5724760000000  0.4242330000000 1.0
C      1  0.5482950000000  0.4274690000000  0.5524130000000 1.0
C      1  0.4999410000000  0.4698940000000  0.5911630000000 1.0
C      1  0.4902200000000  0.5568550000000  0.4154980000000 1.0
C      1  0.4165300000000  0.4677390000000  0.5152100000000 1.0
C      1  0.4767110000000  0.5319850000000  0.4572990000000 1.0
C      1  0.4356730000000  0.4688570000000  0.5610680000000 1.0
C      1  0.4958170000000  0.5313020000000  0.4030970000000 1.0
C      1  0.5040840000000  0.4457920000000  0.5760010000000 1.0
C      1  0.5590680000000  0.5805030000000  0.5060000000000 1.0
C      1  0.5889890000000  0.5011760000000  0.4851880000000 1.0
C      1  0.4871690000000  0.4331480000000  0.4608860000000 1.0
C      1  0.4957180000000  0.5221670000000  0.5766230000000 1.0
C      1  0.4781720000000  0.4402830000000  0.5632950000000 1.0
C      1  0.5270600000000  0.5284450000000  0.5117350000000 1.0
C      1  0.4279250000000  0.4777290000000  0.4415960000000 1.0
C      1  0.5016370000000  0.4823710000000  0.4852080000000 1.0
C      1  0.5160900000000  0.4299610000000  0.5202110000000 1.0
C      1  0.5054070000000  0.4951090000000  0.4616050000000 1.0
C      1  0.5657690000000  0.5182130000000  0.4912500000000 1.0
C      1  0.4995660000000  0.5296350000000  0.5211410000000 1.0
C      1  0.5249000000000  0.5379080000000  0.4808620000000 1.0
C      1  0.4894250000000  0.4225550000000  0.5146400000000 1.0
C      1  0.4736910000000  0.4801360000000  0.5885750000000 1.0
C      1  0.5227860000000  0.4803780000000  0.5035450000000 1.0
C      1  0.4710710000000  0.4279220000000  0.5373700000000 1.0
C      1  0.5578480000000  0.5054590000000  0.4513890000000 1.0
C      1  0.5702890000000  0.4380460000000  0.5348060000000 1.0
C      1  0.5372780000000  0.4279250000000  0.4610130000000 1.0
C      1  0.4601880000000  0.4724850000000  0.4108830000000 1.0
C      1  0.5670570000000  0.4846070000000  0.5858510000000 1.0
C      1  0.4711270000000  0.5553630000000  0.4373350000000 1.0
C      1  0.4700220000000  0.5080640000000  0.5863350000000 1.0
C      1  0.4565600000000  0.5646830000000  0.5544270000000 1.0
C      1  0.5450100000000  0.5347170000000  0.4176630000000 1.0
C      1  0.4692260000000  0.5792320000000  0.4568520000000 1.0
C      1  0.4965440000000  0.5931580000000  0.5279430000000 1.0
C      1  0.5461870000000  0.5488860000000  0.4416530000000 1.0
C      1  0.4688000000000  0.4966320000000  0.5345300000000 1.0
C      1  0.4940720000000  0.5106980000000  0.5427830000000 1.0
C      1  0.4281200000000  0.5088900000000  0.4983690000000 1.0
C      1  0.4441200000000  0.4317230000000  0.5286730000000 1.0
C      1  0.5812030000000  0.5003930000000  0.4339390000000 1.0
C      1  0.4219480000000  0.5242240000000  0.4515620000000 1.0
C      1  0.4243520000000  0.5370460000000  0.5381840000000 1.0
C      1  0.4464020000000  0.5680640000000  0.4460280000000 1.0
C      1  0.5732530000000  0.5357410000000  0.5164210000000 1.0
C      1  0.4452160000000  0.5166460000000  0.5754830000000 1.0
C      1  0.4157470000000  0.4778910000000  0.4665460000000 1.0
C      1  0.5329520000000  0.4430460000000  0.5710960000000 1.0
C      1  0.4373780000000  0.5052080000000  0.4337600000000 1.0
C      1  0.6075250000000  0.5023020000000  0.5051270000000 1.0
C      1  0.5610670000000  0.4599760000000  0.5176360000000 1.0
C      1  0.4639400000000  0.5061450000000  0.4503000000000 1.0
C      1  0.5550800000000  0.4101560000000  0.5091000000000 1.0
C      1  0.5107410000000  0.4851500000000  0.5326710000000 1.0
C      1  0.4750960000000  0.5840660000000  0.5113960000000 1.0
C      1  0.4539800000000  0.4088140000000  0.4855150000000 1.0
C      1  0.5804220000000  0.4860310000000  0.4616070000000 1.0
C      1  0.5720210000000  0.4463990000000  0.4909360000000 1.0
C      1  0.4410500000000  0.5413940000000  0.5603180000000 1.0
C      1  0.5775500000000  0.5616710000000  0.5064630000000 1.0
C      1  0.5466280000000  0.5364260000000  0.5366850000000 1.0
C      1  0.4164270000000  0.5055420000000  0.4729760000000 1.0
C      1  0.4323050000000  0.5554620000000  0.5160670000000 1.0
C      1  0.4994860000000  0.5853650000000  0.5550330000000 1.0
C      1  0.5333490000000  0.5869510000000  0.4922750000000 1.0
C      1  0.4234910000000  0.4590930000000  0.4876450000000 1.0
C      1  0.5819200000000  0.4996710000000  0.5441470000000 1.0
C      1  0.4747130000000  0.4779020000000  0.4968790000000 1.0
C      1  0.5172980000000  0.4737330000000  0.4122790000000 1.0
C      1  0.5048160000000  0.5232040000000  0.4624940000000 1.0
C      1  0.4994960000000  0.5510510000000  0.5780940000000 1.0
C      1  0.5225670000000  0.4858070000000  0.5911680000000 1.0
C      1  0.4534360000000  0.5723640000000  0.5266440000000 1.0
C      1  0.4478820000000  0.4595540000000  0.4330240000000 1.0
C      1  0.5370980000000  0.4876110000000  0.5485270000000 1.0
C      1  0.4517560000000  0.5002980000000  0.4073380000000 1.0
C      1  0.5228500000000  0.5231670000000  0.4030570000000 1.0
C      1  0.4773760000000  0.5274720000000  0.5037230000000 1.0
C      1  0.5455300000000  0.5861040000000  0.5308420000000 1.0
C      1  0.5220910000000  0.5123710000000  0.5828500000000 1.0
C      1  0.4834740000000  0.5729880000000  0.4824020000000 1.0
C      1  0.4287230000000  0.4546060000000  0.5371590000000 1.0
C      1  0.5431090000000  0.5153980000000  0.5608010000000 1.0
C      1  0.5447700000000  0.4296760000000  0.4882190000000 1.0
C      1  0.4385200000000  0.5528040000000  0.4876830000000 1.0
C      1  0.5220390000000  0.5959300000000  0.5169590000000 1.0
C      1  0.4885240000000  0.4815370000000  0.4153750000000 1.0
C      1  0.5324160000000  0.4523230000000  0.5070480000000 1.0
C      1  0.5263160000000  0.5689580000000  0.4461230000000 1.0
C      1  0.5953640000000  0.5160070000000  0.5263760000000 1.0
C      1  0.5167210000000  0.5684350000000  0.4756420000000 1.0
C      1  0.4283450000000  0.4967970000000  0.5635830000000 1.0
C      1  0.5514180000000  0.5303600000000  0.4664300000000 1.0
C      1  0.4680970000000  0.4558460000000  0.4553960000000 1.0
C      1  0.4285090000000  0.5505220000000  0.4602220000000 1.0
C      1  0.5202920000000  0.5672820000000  0.5656760000000 1.0
C      1  0.4592700000000  0.4601680000000  0.5742030000000 1.0
C      1  0.5569660000000  0.5073640000000  0.4202450000000 1.0
C      1  0.5416780000000  0.5636830000000  0.5480630000000 1.0
C      1  0.4839910000000  0.4732470000000  0.5263700000000 1.0
C      1  0.4797680000000  0.5703100000000  0.5685990000000 1.0
C      1  0.5330070000000  0.4963120000000  0.4063700000000 1.0
C      1  0.5122580000000  0.4342000000000  0.4479650000000 1.0
C      1  0.4574360000000  0.4587050000000  0.4833300000000 1.0
C      1  0.4805380000000  0.4186810000000  0.4868040000000 1.0
C      1  0.4151430000000  0.5097520000000  0.5417900000000 1.0
C      1  0.5432080000000  0.4710370000000  0.5761900000000 1.0
C      1  0.5795520000000  0.4237200000000  0.5116560000000 1.0
C      1  0.4201140000000  0.4299400000000  0.4843500000000 1.0
C      1  0.4690730000000  0.5457470000000  0.4834860000000 1.0
C      1  0.5261950000000  0.4542510000000  0.4312610000000 1.0
C      1  0.4127870000000  0.4952840000000  0.5182620000000 1.0
C      1  0.5506900000000  0.4490420000000  0.4468330000000 1.0
END
