TITL C-2681593-4431-17 231.308176535292 125000 -1062.31022084715 0 0 151 (C1) n - 1
REM
REM in /nfs/bkarasulu/CARBON/AIRSS/Generating-Clusters/GAP-ML-2020/Only-C1/SD-CG/HFTN-CG
REM
REM
REM
REM
REM
REM ./C.cell (11c1c37f851c82e70ff6c80c92926a4b)
REM
REM compiler GCC version 9.2.1 20190827 (Red Hat 9.2.1-1)
REM options -cpp -mtune=generic -march=x86-64 -g -O0 -fpre-include=/usr/include/finclude/math-vector-fortran.h
REM seed 351981833 -396362573 -1483603467 620719355 -1259608072 1937979746 -282035553 -1121255519 990581629 1218816749 1897658064 -1483041011 -935350604 1890416353 -1338341342 1259460774 1537975290 340306380 1157251111 91772876 -1685238669 -1659976272 -881134517 -577513534 -754112633 -828673934 -865661261 -1672456085 383170966 -1610318175 -480538997 1711000368 1029147623
REM
CELL 1.54180   50.00000   50.00000   50.00000   90.00000   90.00000   90.00000
LATT -1
SFAC C  
C      1  0.4933270000000  0.5368970000000  0.4928510000000 1.0
C      1  0.4418630000000  0.5584290000000  0.4906290000000 1.0
C      1  0.4749920000000  0.4585230000000  0.5239350000000 1.0
C      1  0.4519640000000  0.5845780000000  0.5020850000000 1.0
C      1  0.5144360000000  0.4958200000000  0.5205570000000 1.0
C      1  0.4629200000000  0.5352000000000  0.4963080000000 1.0
C      1  0.5515050000000  0.4514590000000  0.5560240000000 1.0
C      1  0.5974130000000  0.5331190000000  0.5250990000000 1.0
C      1  0.5151610000000  0.4293160000000  0.4964350000000 1.0
C      1  0.5817440000000  0.4518690000000  0.4815060000000 1.0
C      1  0.4086220000000  0.4863400000000  0.4530420000000 1.0
C      1  0.5485070000000  0.5831450000000  0.5081680000000 1.0
C      1  0.4265020000000  0.4306280000000  0.5417960000000 1.0
C      1  0.5325720000000  0.5176660000000  0.5290860000000 1.0
C      1  0.5212430000000  0.5216230000000  0.4548990000000 1.0
C      1  0.5588660000000  0.4233910000000  0.5141940000000 1.0
C      1  0.5208250000000  0.4458020000000  0.5210970000000 1.0
C      1  0.4498630000000  0.4768250000000  0.4923910000000 1.0
C      1  0.4010460000000  0.5019900000000  0.4756980000000 1.0
C      1  0.4953470000000  0.3927430000000  0.5122160000000 1.0
C      1  0.5329830000000  0.5600360000000  0.5548200000000 1.0
C      1  0.5987060000000  0.4991830000000  0.4920340000000 1.0
C      1  0.4861360000000  0.4949400000000  0.4202150000000 1.0
C      1  0.5021560000000  0.6086000000000  0.4593980000000 1.0
C      1  0.4705480000000  0.5226470000000  0.4238380000000 1.0
C      1  0.4361470000000  0.5119020000000  0.5869760000000 1.0
C      1  0.4190310000000  0.5380860000000  0.5475650000000 1.0
C      1  0.4931500000000  0.5434030000000  0.4130500000000 1.0
C      1  0.5444580000000  0.5296280000000  0.5014920000000 1.0
C      1  0.4357010000000  0.4478710000000  0.4429040000000 1.0
C      1  0.4623590000000  0.5989580000000  0.4805730000000 1.0
C      1  0.5387350000000  0.4100750000000  0.4955510000000 1.0
C      1  0.5062000000000  0.6073510000000  0.5053220000000 1.0
C      1  0.5565670000000  0.4767490000000  0.5401630000000 1.0
C      1  0.5082300000000  0.5558670000000  0.5114820000000 1.0
C      1  0.5798080000000  0.4809780000000  0.4780720000000 1.0
C      1  0.5138490000000  0.5837940000000  0.5498830000000 1.0
C      1  0.4580270000000  0.5725850000000  0.5470950000000 1.0
C      1  0.4364620000000  0.5207520000000  0.4284920000000 1.0
C      1  0.5110500000000  0.5058250000000  0.5918280000000 1.0
C      1  0.4503120000000  0.4960280000000  0.5172660000000 1.0
C      1  0.4679410000000  0.5862110000000  0.5255280000000 1.0
C      1  0.5330260000000  0.6051430000000  0.4964050000000 1.0
C      1  0.4063210000000  0.5307430000000  0.5224880000000 1.0
C      1  0.4392140000000  0.4844250000000  0.5898940000000 1.0
C      1  0.5067960000000  0.5658850000000  0.4522160000000 1.0
C      1  0.4392730000000  0.4179370000000  0.5063100000000 1.0
C      1  0.5273490000000  0.5297420000000  0.5882080000000 1.0
C      1  0.5605460000000  0.5490790000000  0.5576830000000 1.0
C      1  0.5419920000000  0.4294600000000  0.5377840000000 1.0
C      1  0.4970530000000  0.4494210000000  0.5390510000000 1.0
C      1  0.4026210000000  0.4593340000000  0.5037920000000 1.0
C      1  0.3962710000000  0.4876570000000  0.5022970000000 1.0
C      1  0.4931380000000  0.4888590000000  0.4725970000000 1.0
C      1  0.5293940000000  0.5084660000000  0.4028390000000 1.0
C      1  0.4999300000000  0.4704560000000  0.5616340000000 1.0
C      1  0.4225690000000  0.4717380000000  0.5704730000000 1.0
C      1  0.5198390000000  0.5341460000000  0.4106250000000 1.0
C      1  0.5289420000000  0.6014990000000  0.4685200000000 1.0
C      1  0.5788890000000  0.5567470000000  0.4621580000000 1.0
C      1  0.4877420000000  0.4099400000000  0.4884150000000 1.0
C      1  0.5339940000000  0.5591940000000  0.4966180000000 1.0
C      1  0.4524780000000  0.4273560000000  0.4552810000000 1.0
C      1  0.4745490000000  0.5675070000000  0.5694150000000 1.0
C      1  0.5651770000000  0.4808170000000  0.5894350000000 1.0
C      1  0.4470940000000  0.5443190000000  0.5442380000000 1.0
C      1  0.6051270000000  0.5236970000000  0.4794720000000 1.0
C      1  0.5566060000000  0.5130480000000  0.4210320000000 1.0
C      1  0.4741740000000  0.4475300000000  0.4020960000000 1.0
C      1  0.4230020000000  0.4613890000000  0.4851560000000 1.0
C      1  0.5146670000000  0.5399110000000  0.5372410000000 1.0
C      1  0.4983780000000  0.5403490000000  0.4629940000000 1.0
C      1  0.5931500000000  0.5329360000000  0.4555070000000 1.0
C      1  0.4342730000000  0.4458330000000  0.5641740000000 1.0
C      1  0.4982540000000  0.5856970000000  0.5236230000000 1.0
C      1  0.4490740000000  0.4158040000000  0.5330150000000 1.0
C      1  0.5118030000000  0.4866080000000  0.4036830000000 1.0
C      1  0.4706670000000  0.5345200000000  0.4517180000000 1.0
C      1  0.4598350000000  0.5854460000000  0.4556230000000 1.0
C      1  0.4166660000000  0.5173980000000  0.5667040000000 1.0
C      1  0.5972640000000  0.5037450000000  0.5207550000000 1.0
C      1  0.4624640000000  0.4393810000000  0.5702000000000 1.0
C      1  0.4928740000000  0.5250190000000  0.5514540000000 1.0
C      1  0.5646110000000  0.4408900000000  0.4625560000000 1.0
C      1  0.5537760000000  0.5588630000000  0.4487940000000 1.0
C      1  0.4419560000000  0.4702430000000  0.4255350000000 1.0
C      1  0.5395410000000  0.4602020000000  0.4654140000000 1.0
C      1  0.4620160000000  0.5228870000000  0.5892240000000 1.0
C      1  0.4604450000000  0.4248230000000  0.4862980000000 1.0
C      1  0.5469960000000  0.4817010000000  0.4865320000000 1.0
C      1  0.5004310000000  0.5761270000000  0.5740610000000 1.0
C      1  0.5404730000000  0.5354190000000  0.4336740000000 1.0
C      1  0.4151050000000  0.4594440000000  0.4586420000000 1.0
C      1  0.4877360000000  0.6127080000000  0.4834210000000 1.0
C      1  0.4075140000000  0.4936360000000  0.5547250000000 1.0
C      1  0.4266630000000  0.4943390000000  0.4318470000000 1.0
C      1  0.5810400000000  0.4399600000000  0.5074640000000 1.0
C      1  0.5541160000000  0.5228420000000  0.5736250000000 1.0
C      1  0.5876960000000  0.5644770000000  0.4902350000000 1.0
C      1  0.5059310000000  0.5072160000000  0.4940890000000 1.0
C      1  0.4475720000000  0.5586140000000  0.4587270000000 1.0
C      1  0.5180040000000  0.4208000000000  0.4514300000000 1.0
C      1  0.5344730000000  0.5110040000000  0.4816810000000 1.0
C      1  0.4257590000000  0.5391450000000  0.4486000000000 1.0
C      1  0.5842300000000  0.5138140000000  0.4377350000000 1.0
C      1  0.5353370000000  0.4733410000000  0.5155040000000 1.0
C      1  0.4928630000000  0.4607600000000  0.4776200000000 1.0
C      1  0.5328130000000  0.4748040000000  0.4407240000000 1.0
C      1  0.4737970000000  0.4156640000000  0.4415660000000 1.0
C      1  0.5207890000000  0.4612270000000  0.4178160000000 1.0
C      1  0.4940070000000  0.4063330000000  0.4594480000000 1.0
C      1  0.4971440000000  0.5691630000000  0.4248060000000 1.0
C      1  0.5331100000000  0.5723000000000  0.4641340000000 1.0
C      1  0.5578200000000  0.4862260000000  0.4315490000000 1.0
C      1  0.5716300000000  0.5053660000000  0.5909460000000 1.0
C      1  0.4762040000000  0.4251540000000  0.5467510000000 1.0
C      1  0.4675610000000  0.4793850000000  0.5960370000000 1.0
C      1  0.3985340000000  0.5026700000000  0.5264220000000 1.0
C      1  0.5207200000000  0.5562370000000  0.5816540000000 1.0
C      1  0.4823110000000  0.5037470000000  0.5966410000000 1.0
C      1  0.5957830000000  0.4554400000000  0.5243710000000 1.0
C      1  0.4540030000000  0.5241510000000  0.5202970000000 1.0
C      1  0.4148670000000  0.5426840000000  0.4970400000000 1.0
C      1  0.5795130000000  0.5535970000000  0.5371980000000 1.0
C      1  0.5432100000000  0.5011230000000  0.5539280000000 1.0
C      1  0.5123200000000  0.4347230000000  0.4239760000000 1.0
C      1  0.4163120000000  0.4357440000000  0.5144060000000 1.0
C      1  0.4924380000000  0.4959850000000  0.5431160000000 1.0
C      1  0.6042310000000  0.5438150000000  0.4992610000000 1.0
C      1  0.4093690000000  0.5296580000000  0.4722680000000 1.0
C      1  0.4853570000000  0.4283740000000  0.4180880000000 1.0
C      1  0.4948700000000  0.4034060000000  0.5398500000000 1.0
C      1  0.5232960000000  0.4840290000000  0.5747200000000 1.0
C      1  0.5863360000000  0.4798860000000  0.5332180000000 1.0
C      1  0.5436320000000  0.4091360000000  0.4651870000000 1.0
C      1  0.5158490000000  0.4446970000000  0.4720800000000 1.0
C      1  0.4862910000000  0.5887540000000  0.4433380000000 1.0
C      1  0.4640770000000  0.4924900000000  0.4734340000000 1.0
C      1  0.5801040000000  0.4882000000000  0.4488080000000 1.0
C      1  0.4703750000000  0.4536220000000  0.4955800000000 1.0
C      1  0.5244490000000  0.4039120000000  0.5398930000000 1.0
C      1  0.4677140000000  0.4718970000000  0.4138850000000 1.0
C      1  0.4695110000000  0.5382880000000  0.5661210000000 1.0
C      1  0.5249530000000  0.3913750000000  0.5141670000000 1.0
C      1  0.4679280000000  0.4841670000000  0.5339740000000 1.0
C      1  0.4577710000000  0.5184860000000  0.4726210000000 1.0
C      1  0.5455120000000  0.4635270000000  0.5810710000000 1.0
C      1  0.5079870000000  0.4956050000000  0.4468200000000 1.0
C      1  0.5739820000000  0.5733250000000  0.5148550000000 1.0
C      1  0.5684220000000  0.4138050000000  0.4553640000000 1.0
C      1  0.4790670000000  0.4595510000000  0.5807510000000 1.0
END
