TITL C-26373-9433-2 -0.0691721984405796 125000 -238.18196119424 0 0 36 (C1) n - 1
REM
REM in /rds/project/t2_vol4/rds-t2-cs072/BORA/CARBON/from-Arr/AIRSS/Generating-Clusters/GAP-ML-2020/Only-C1/SD-CG/HFTN-CG
REM
REM
REM
REM
REM
REM ./C.cell (11c1c37f851c82e70ff6c80c92926a4b)
REM AIRSS Version 0.9.1 bugfix July 2018 build 013d7b7c2542+ Fri, 06 Jul 2018 19:26:36 +0100
REM compiler GCC version 9.3.0
REM options -cpp -mtune=generic -march=x86-64 -g -O0
REM seed -938182521 -1163729132 -122723790 1766440526 436999619 1220818443 -723524329 -43919996 -1267342075 -182403313 1482597723 1370023878 1170584585 -1455055889 1477702207 1722631679 -2078461238 558696780 260538254 1244563321 55792362 1136373834 -505124814 2136568355 -1963160971 -863157095 -393356796 -488013671 -1762316246 -491757214 173359053 641223959 -256164650
REM
CELL 1.54180   50.00000   50.00000   50.00000   90.00000   90.00000   90.00000
LATT -1
SFAC C  
C      1  0.5025990000000  0.4431810000000  0.5046550000000 1.0
C      1  0.5054720000000  0.4448670000000  0.5334520000000 1.0
C      1  0.4552850000000  0.5352990000000  0.4385630000000 1.0
C      1  0.5495300000000  0.5193650000000  0.4664560000000 1.0
C      1  0.5496690000000  0.5378840000000  0.4867080000000 1.0
C      1  0.5560920000000  0.4996730000000  0.5182900000000 1.0
C      1  0.4812040000000  0.5614040000000  0.4923470000000 1.0
C      1  0.4833320000000  0.4558830000000  0.5459980000000 1.0
C      1  0.5354990000000  0.4637920000000  0.4854800000000 1.0
C      1  0.5068200000000  0.5472550000000  0.4943950000000 1.0
C      1  0.4562770000000  0.5065090000000  0.5202360000000 1.0
C      1  0.5179790000000  0.4819050000000  0.4717060000000 1.0
C      1  0.4463860000000  0.4809360000000  0.5285420000000 1.0
C      1  0.4789500000000  0.5056510000000  0.5396370000000 1.0
C      1  0.4344020000000  0.4599000000000  0.5149470000000 1.0
C      1  0.5246240000000  0.5082710000000  0.4664960000000 1.0
C      1  0.5517600000000  0.4607220000000  0.5325090000000 1.0
C      1  0.5245780000000  0.4381920000000  0.4892960000000 1.0
C      1  0.5026210000000  0.5248960000000  0.4730640000000 1.0
C      1  0.4907370000000  0.4804800000000  0.4774290000000 1.0
C      1  0.5011930000000  0.5201050000000  0.5374070000000 1.0
C      1  0.4565430000000  0.5461740000000  0.4903260000000 1.0
C      1  0.5321750000000  0.5588840000000  0.4841230000000 1.0
C      1  0.4694370000000  0.5155950000000  0.4479060000000 1.0
C      1  0.5642980000000  0.4858420000000  0.5425060000000 1.0
C      1  0.5443540000000  0.5248260000000  0.5129560000000 1.0
C      1  0.5325120000000  0.4452530000000  0.5428540000000 1.0
C      1  0.4579880000000  0.5516590000000  0.4611370000000 1.0
C      1  0.4581600000000  0.5183030000000  0.4949900000000 1.0
C      1  0.4557340000000  0.4562170000000  0.5004460000000 1.0
C      1  0.4811020000000  0.4580640000000  0.4915770000000 1.0
C      1  0.4687110000000  0.4775810000000  0.5485020000000 1.0
C      1  0.5170120000000  0.5317710000000  0.5187500000000 1.0
C      1  0.4787140000000  0.5075330000000  0.4747090000000 1.0
C      1  0.4760130000000  0.5726790000000  0.4662670000000 1.0
C      1  0.5522400000000  0.4734490000000  0.5053370000000 1.0
END
