TITL C-2681603-2985-4 123.605912387529 125000 -686.848772154269 0 0 97 (C1) n - 1
REM
REM in /nfs/bkarasulu/CARBON/AIRSS/Generating-Clusters/GAP-ML-2020/Only-C1/SD-CG/HFTN-CG
REM
REM
REM
REM
REM
REM ./C.cell (11c1c37f851c82e70ff6c80c92926a4b)
REM
REM compiler GCC version 9.2.1 20190827 (Red Hat 9.2.1-1)
REM options -cpp -mtune=generic -march=x86-64 -g -O0 -fpre-include=/usr/include/finclude/math-vector-fortran.h
REM seed -376918956 -381608439 2012672980 -938195788 -468755459 1778523330 -294484177 1911510209 784725273 -109116519 -160799326 -209297865 1583569642 1608072641 -1123334343 1863485915 1930388827 1361858219 897228994 -1932051526 -281698 1913045537 -1639187498 1544135178 -1723683741 -2145323010 1292047799 852253957 495196238 386936844 15811398 -931078942 -361710389
REM
CELL 1.54180   50.00000   50.00000   50.00000   90.00000   90.00000   90.00000
LATT -1
SFAC C  
C      1  0.4713470000000  0.5829400000000  0.5200780000000 1.0
C      1  0.5228680000000  0.5180570000000  0.4252800000000 1.0
C      1  0.4357720000000  0.5499390000000  0.5068270000000 1.0
C      1  0.5780360000000  0.4593360000000  0.4668990000000 1.0
C      1  0.5025820000000  0.4969690000000  0.5281170000000 1.0
C      1  0.5443920000000  0.5089890000000  0.5697350000000 1.0
C      1  0.5290570000000  0.5331210000000  0.5678090000000 1.0
C      1  0.5129630000000  0.4575890000000  0.4980020000000 1.0
C      1  0.4261930000000  0.4660090000000  0.5360810000000 1.0
C      1  0.4608970000000  0.5087830000000  0.5759880000000 1.0
C      1  0.4476700000000  0.4476510000000  0.5421780000000 1.0
C      1  0.5389410000000  0.5240980000000  0.5140890000000 1.0
C      1  0.4216000000000  0.4935110000000  0.4707250000000 1.0
C      1  0.4600410000000  0.5751790000000  0.4649490000000 1.0
C      1  0.4486690000000  0.4843110000000  0.5702930000000 1.0
C      1  0.5014610000000  0.5326310000000  0.5763650000000 1.0
C      1  0.4728130000000  0.5334330000000  0.4531840000000 1.0
C      1  0.5795860000000  0.4666830000000  0.5139280000000 1.0
C      1  0.4520390000000  0.5638640000000  0.5271510000000 1.0
C      1  0.5319400000000  0.4654140000000  0.4749730000000 1.0
C      1  0.4616490000000  0.4595980000000  0.5652440000000 1.0
C      1  0.5271460000000  0.4860920000000  0.5685000000000 1.0
C      1  0.4521200000000  0.4556030000000  0.4537860000000 1.0
C      1  0.4474470000000  0.5283810000000  0.5597510000000 1.0
C      1  0.5709250000000  0.5015620000000  0.4445130000000 1.0
C      1  0.4731740000000  0.5184970000000  0.4248520000000 1.0
C      1  0.5577630000000  0.4478340000000  0.5106570000000 1.0
C      1  0.4822160000000  0.5907290000000  0.4939160000000 1.0
C      1  0.4177880000000  0.4724960000000  0.5104360000000 1.0
C      1  0.4896630000000  0.4589020000000  0.5731020000000 1.0
C      1  0.5006370000000  0.4229580000000  0.4975820000000 1.0
C      1  0.5446230000000  0.5603740000000  0.4737140000000 1.0
C      1  0.5105600000000  0.5864190000000  0.5044850000000 1.0
C      1  0.4419410000000  0.5553880000000  0.4785270000000 1.0
C      1  0.4882350000000  0.5085890000000  0.5832390000000 1.0
C      1  0.4898540000000  0.5311830000000  0.4998940000000 1.0
C      1  0.4986100000000  0.5038820000000  0.4232000000000 1.0
C      1  0.4270190000000  0.4536100000000  0.4917470000000 1.0
C      1  0.4337180000000  0.5099850000000  0.4515220000000 1.0
C      1  0.4981070000000  0.5845330000000  0.5303780000000 1.0
C      1  0.4871260000000  0.5537910000000  0.5632840000000 1.0
C      1  0.5953870000000  0.5029550000000  0.4859970000000 1.0
C      1  0.5072590000000  0.5694290000000  0.5512220000000 1.0
C      1  0.4633950000000  0.4344670000000  0.4701460000000 1.0
C      1  0.4932380000000  0.4779390000000  0.4941420000000 1.0
C      1  0.5306360000000  0.5639750000000  0.4482000000000 1.0
C      1  0.5101420000000  0.5214880000000  0.5174900000000 1.0
C      1  0.4605990000000  0.5517870000000  0.5521710000000 1.0
C      1  0.5286580000000  0.4134680000000  0.4973990000000 1.0
C      1  0.5221670000000  0.5457850000000  0.4284270000000 1.0
C      1  0.4674250000000  0.5467660000000  0.4162450000000 1.0
C      1  0.5343610000000  0.5699150000000  0.4994170000000 1.0
C      1  0.5059000000000  0.4377990000000  0.5635650000000 1.0
C      1  0.4960130000000  0.4800150000000  0.4418250000000 1.0
C      1  0.5146110000000  0.4309400000000  0.4551630000000 1.0
C      1  0.4668680000000  0.6008370000000  0.4734770000000 1.0
C      1  0.5266650000000  0.4327280000000  0.5410060000000 1.0
C      1  0.4438730000000  0.5346870000000  0.4597390000000 1.0
C      1  0.5486560000000  0.5023850000000  0.5315500000000 1.0
C      1  0.5950970000000  0.5102160000000  0.5123590000000 1.0
C      1  0.4686220000000  0.5139080000000  0.5052420000000 1.0
C      1  0.5552450000000  0.4457830000000  0.4796140000000 1.0
C      1  0.5269580000000  0.4823750000000  0.5379700000000 1.0
C      1  0.4764300000000  0.5618620000000  0.4415570000000 1.0
C      1  0.4579640000000  0.4304960000000  0.5212860000000 1.0
C      1  0.5419750000000  0.5530720000000  0.5215200000000 1.0
C      1  0.4231000000000  0.5236750000000  0.5149570000000 1.0
C      1  0.5375280000000  0.4231280000000  0.4722950000000 1.0
C      1  0.5794460000000  0.4928120000000  0.5295200000000 1.0
C      1  0.5412360000000  0.5009720000000  0.4393310000000 1.0
C      1  0.5432690000000  0.4713300000000  0.4331790000000 1.0
C      1  0.5611140000000  0.5370110000000  0.4750330000000 1.0
C      1  0.5197840000000  0.4591190000000  0.4457410000000 1.0
C      1  0.5317240000000  0.5548460000000  0.5485250000000 1.0
C      1  0.5021540000000  0.4836660000000  0.5807520000000 1.0
C      1  0.5318240000000  0.4963310000000  0.4705930000000 1.0
C      1  0.5007150000000  0.4198870000000  0.5440710000000 1.0
C      1  0.4293500000000  0.4663630000000  0.4671430000000 1.0
C      1  0.5016490000000  0.4959260000000  0.4709570000000 1.0
C      1  0.5459610000000  0.5159140000000  0.4874490000000 1.0
C      1  0.5054130000000  0.5665170000000  0.4354480000000 1.0
C      1  0.4275860000000  0.5159780000000  0.5427060000000 1.0
C      1  0.5447510000000  0.4221310000000  0.5209560000000 1.0
C      1  0.4169390000000  0.4993730000000  0.4989180000000 1.0
C      1  0.5810320000000  0.5180180000000  0.4654900000000 1.0
C      1  0.4904230000000  0.4253210000000  0.4699600000000 1.0
C      1  0.4918420000000  0.5231990000000  0.4732710000000 1.0
C      1  0.5296960000000  0.4571220000000  0.5232180000000 1.0
C      1  0.4777540000000  0.4892170000000  0.5144500000000 1.0
C      1  0.5671780000000  0.5041760000000  0.5535870000000 1.0
C      1  0.4841830000000  0.4200890000000  0.5213200000000 1.0
C      1  0.4278410000000  0.4891330000000  0.5517170000000 1.0
C      1  0.5902650000000  0.4739380000000  0.4880330000000 1.0
C      1  0.4477690000000  0.4347370000000  0.4949260000000 1.0
C      1  0.5711680000000  0.4730700000000  0.4433120000000 1.0
C      1  0.4533500000000  0.4986040000000  0.4330170000000 1.0
C      1  0.4666260000000  0.4744090000000  0.4384170000000 1.0
END
