TITL C-260534-2330-5 -0.050332631877291 125000 -516.587818411536 0 0 75 (C1) n - 1
REM
REM in /rds/project/t2_vol4/rds-t2-cs072/BORA/CARBON/from-Arr/AIRSS/Generating-Clusters/GAP-ML-2020/Only-C1/SD-CG/HFTN-CG
REM
REM
REM
REM
REM
REM ./C.cell (11c1c37f851c82e70ff6c80c92926a4b)
REM AIRSS Version 0.9.1 bugfix July 2018 build 013d7b7c2542+ Fri, 06 Jul 2018 19:26:36 +0100
REM compiler GCC version 9.3.0
REM options -cpp -mtune=generic -march=x86-64 -g -O0
REM seed -392759993 -517324700 1307988446 -1891454466 -604646783 502780094 -542958089 1126217155 -2024276334 -396920522 -1506365168 1135943595 -1147112802 712636225 -1425822707 422790980 588033946 -2066092147 452800479 848423593 -719466916 -1772819239 809026699 -760813326 -881023744 -1586040885 1733597552 1720784934 -694900692 2080914176 -2130911911 2005164775 232771158
REM
CELL 1.54180   50.00000   50.00000   50.00000   90.00000   90.00000   90.00000
LATT -1
SFAC C  
C      1  0.4670250000000  0.5393710000000  0.4429090000000 1.0
C      1  0.4973150000000  0.4767960000000  0.4813570000000 1.0
C      1  0.4904340000000  0.5547910000000  0.4525200000000 1.0
C      1  0.5230670000000  0.4666560000000  0.4301430000000 1.0
C      1  0.5368710000000  0.4754830000000  0.4529730000000 1.0
C      1  0.5228810000000  0.5429310000000  0.5661400000000 1.0
C      1  0.4407800000000  0.4971810000000  0.5389120000000 1.0
C      1  0.5480870000000  0.5018020000000  0.5632490000000 1.0
C      1  0.4877140000000  0.5765640000000  0.5003470000000 1.0
C      1  0.5248840000000  0.4379130000000  0.4783900000000 1.0
C      1  0.4365730000000  0.4726880000000  0.5242190000000 1.0
C      1  0.5614290000000  0.5345880000000  0.5100300000000 1.0
C      1  0.4718890000000  0.5156790000000  0.4285290000000 1.0
C      1  0.5419460000000  0.5522000000000  0.5456960000000 1.0
C      1  0.4524170000000  0.4487440000000  0.5257300000000 1.0
C      1  0.5482670000000  0.4304710000000  0.4920140000000 1.0
C      1  0.4984130000000  0.5089320000000  0.4207580000000 1.0
C      1  0.5696350000000  0.5076090000000  0.5466310000000 1.0
C      1  0.5317340000000  0.5662160000000  0.5217960000000 1.0
C      1  0.4511420000000  0.5397100000000  0.5141220000000 1.0
C      1  0.4309340000000  0.5163720000000  0.4699110000000 1.0
C      1  0.4719390000000  0.4711280000000  0.5617210000000 1.0
C      1  0.5638380000000  0.5351760000000  0.5379800000000 1.0
C      1  0.5217450000000  0.5165720000000  0.5254090000000 1.0
C      1  0.4222880000000  0.5081420000000  0.4965720000000 1.0
C      1  0.4799990000000  0.4540090000000  0.4630620000000 1.0
C      1  0.5468760000000  0.5168850000000  0.4734300000000 1.0
C      1  0.4831900000000  0.5156480000000  0.5676230000000 1.0
C      1  0.5045870000000  0.5739720000000  0.5235680000000 1.0
C      1  0.4537670000000  0.4495310000000  0.4760370000000 1.0
C      1  0.5242690000000  0.4938800000000  0.5466810000000 1.0
C      1  0.5679870000000  0.4530800000000  0.4888980000000 1.0
C      1  0.4619900000000  0.4967770000000  0.5591360000000 1.0
C      1  0.5236710000000  0.4445290000000  0.5358630000000 1.0
C      1  0.5688880000000  0.4699070000000  0.5116540000000 1.0
C      1  0.5216490000000  0.4724420000000  0.5264550000000 1.0
C      1  0.4314690000000  0.5192860000000  0.5212030000000 1.0
C      1  0.5071140000000  0.5013970000000  0.5715010000000 1.0
C      1  0.5654450000000  0.4715100000000  0.4638730000000 1.0
C      1  0.4728670000000  0.4483490000000  0.5464890000000 1.0
C      1  0.5784950000000  0.4870010000000  0.5303940000000 1.0
C      1  0.5408350000000  0.4794150000000  0.5046150000000 1.0
C      1  0.4938430000000  0.5430490000000  0.5616250000000 1.0
C      1  0.4603560000000  0.5639710000000  0.5282720000000 1.0
C      1  0.4853040000000  0.5632960000000  0.5433780000000 1.0
C      1  0.4252090000000  0.4800300000000  0.4989940000000 1.0
C      1  0.5432750000000  0.5101170000000  0.5033560000000 1.0
C      1  0.4517660000000  0.5557750000000  0.4862670000000 1.0
C      1  0.4448740000000  0.5402810000000  0.4629350000000 1.0
C      1  0.4586820000000  0.4361420000000  0.5007570000000 1.0
C      1  0.4978020000000  0.5030960000000  0.4677340000000 1.0
C      1  0.4708830000000  0.5182630000000  0.5061080000000 1.0
C      1  0.4382690000000  0.4922680000000  0.4564330000000 1.0
C      1  0.5195320000000  0.5231470000000  0.4342430000000 1.0
C      1  0.4592980000000  0.5797150000000  0.5040960000000 1.0
C      1  0.4585690000000  0.4911820000000  0.4370040000000 1.0
C      1  0.5304600000000  0.5183280000000  0.5780680000000 1.0
C      1  0.5384910000000  0.5453930000000  0.4715180000000 1.0
C      1  0.5022680000000  0.4179790000000  0.5180390000000 1.0
C      1  0.4971060000000  0.4317480000000  0.4737770000000 1.0
C      1  0.4892520000000  0.5238230000000  0.4863990000000 1.0
C      1  0.5450660000000  0.5551590000000  0.4983570000000 1.0
C      1  0.4839680000000  0.4226170000000  0.4968730000000 1.0
C      1  0.5004030000000  0.4797220000000  0.4237580000000 1.0
C      1  0.5701880000000  0.4978040000000  0.4671600000000 1.0
C      1  0.5256420000000  0.4672210000000  0.4792320000000 1.0
C      1  0.4349860000000  0.4700240000000  0.4745970000000 1.0
C      1  0.4847310000000  0.5549840000000  0.4808720000000 1.0
C      1  0.5274810000000  0.5048780000000  0.4556050000000 1.0
C      1  0.5308000000000  0.4261900000000  0.5138370000000 1.0
C      1  0.4962260000000  0.5098750000000  0.5141180000000 1.0
C      1  0.5179240000000  0.5475290000000  0.4492780000000 1.0
C      1  0.4972150000000  0.4341230000000  0.5409010000000 1.0
C      1  0.4773060000000  0.4696600000000  0.4372660000000 1.0
C      1  0.4964820000000  0.4812830000000  0.5106040000000 1.0
END
