TITL C-260493-6801-6 -0.112338967174042 125000 -635.881856353338 0 0 92 (C1) n - 1
REM
REM in /rds/project/t2_vol4/rds-t2-cs072/BORA/CARBON/from-Arr/AIRSS/Generating-Clusters/GAP-ML-2020/Only-C1/SD-CG/HFTN-CG
REM
REM
REM
REM
REM
REM ./C.cell (11c1c37f851c82e70ff6c80c92926a4b)
REM AIRSS Version 0.9.1 bugfix July 2018 build 013d7b7c2542+ Fri, 06 Jul 2018 19:26:36 +0100
REM compiler GCC version 9.3.0
REM options -cpp -mtune=generic -march=x86-64 -g -O0
REM seed 867680525 648718114 889714632 623312295 1816413950 -924723770 -2047564375 -1697094863 1057489486 -1316982315 -1954294476 28872283 -686272818 -1932887037 228941395 -1596834057 -415225971 -1910364374 1613383174 2066349422 -616109365 -801050604 625700142 720705026 -1149134057 -1160748373 -1138417168 982247393 -1674794393 -1682730476 653591997 372704466 1148956545
REM
CELL 1.54180   50.00000   50.00000   50.00000   90.00000   90.00000   90.00000
LATT -1
SFAC C  
C      1  0.5502950000000  0.5137390000000  0.5430870000000 1.0
C      1  0.4145410000000  0.4895730000000  0.4906780000000 1.0
C      1  0.5016350000000  0.4692540000000  0.5823140000000 1.0
C      1  0.5229110000000  0.5499270000000  0.5612840000000 1.0
C      1  0.5265100000000  0.5558170000000  0.4357020000000 1.0
C      1  0.5404070000000  0.4987500000000  0.5688220000000 1.0
C      1  0.5451710000000  0.4553620000000  0.5436430000000 1.0
C      1  0.5188770000000  0.4616630000000  0.4971400000000 1.0
C      1  0.4442930000000  0.4908570000000  0.5576470000000 1.0
C      1  0.5627990000000  0.4509230000000  0.4789570000000 1.0
C      1  0.4903190000000  0.5391520000000  0.4686430000000 1.0
C      1  0.5781400000000  0.4928840000000  0.5026320000000 1.0
C      1  0.4224060000000  0.4743640000000  0.5135630000000 1.0
C      1  0.5743450000000  0.5122050000000  0.5247250000000 1.0
C      1  0.4591320000000  0.5153030000000  0.5671860000000 1.0
C      1  0.5580070000000  0.5783930000000  0.5105790000000 1.0
C      1  0.5181900000000  0.4719390000000  0.4681160000000 1.0
C      1  0.5038040000000  0.5695190000000  0.5133060000000 1.0
C      1  0.4572390000000  0.5673540000000  0.4378780000000 1.0
C      1  0.5783030000000  0.5375980000000  0.5135980000000 1.0
C      1  0.4974470000000  0.5446920000000  0.5672660000000 1.0
C      1  0.4224460000000  0.5168360000000  0.4925070000000 1.0
C      1  0.4708960000000  0.5455390000000  0.4275860000000 1.0
C      1  0.5041120000000  0.4231030000000  0.5446270000000 1.0
C      1  0.5217510000000  0.4318340000000  0.4602450000000 1.0
C      1  0.4403750000000  0.5279130000000  0.4732140000000 1.0
C      1  0.5042500000000  0.4188660000000  0.5159310000000 1.0
C      1  0.4269380000000  0.4942760000000  0.5345240000000 1.0
C      1  0.5542860000000  0.5139910000000  0.4383160000000 1.0
C      1  0.4914590000000  0.4295380000000  0.4711050000000 1.0
C      1  0.4953030000000  0.4697920000000  0.5349120000000 1.0
C      1  0.5491120000000  0.5419240000000  0.4455760000000 1.0
C      1  0.5455840000000  0.4715450000000  0.5680150000000 1.0
C      1  0.4810050000000  0.4225420000000  0.4994640000000 1.0
C      1  0.5085570000000  0.5754230000000  0.4415010000000 1.0
C      1  0.4574140000000  0.4392800000000  0.5429550000000 1.0
C      1  0.5792610000000  0.5068040000000  0.4782060000000 1.0
C      1  0.5301920000000  0.5005150000000  0.4337370000000 1.0
C      1  0.5244290000000  0.5002720000000  0.4641610000000 1.0
C      1  0.5417210000000  0.5438590000000  0.5419030000000 1.0
C      1  0.5238740000000  0.4749940000000  0.4241080000000 1.0
C      1  0.5034820000000  0.5150290000000  0.4777840000000 1.0
C      1  0.4763710000000  0.5565420000000  0.5520180000000 1.0
C      1  0.4168950000000  0.4745230000000  0.4677620000000 1.0
C      1  0.4564760000000  0.5563970000000  0.5102060000000 1.0
C      1  0.4916630000000  0.5167060000000  0.5264730000000 1.0
C      1  0.5119600000000  0.5794320000000  0.4877960000000 1.0
C      1  0.4540000000000  0.4638710000000  0.5611000000000 1.0
C      1  0.5078220000000  0.4975930000000  0.5731030000000 1.0
C      1  0.4552880000000  0.4328570000000  0.5149240000000 1.0
C      1  0.4595600000000  0.5498870000000  0.4807950000000 1.0
C      1  0.5309840000000  0.4987760000000  0.5243500000000 1.0
C      1  0.5402570000000  0.5670180000000  0.4899720000000 1.0
C      1  0.4977930000000  0.5466060000000  0.4393840000000 1.0
C      1  0.4785070000000  0.4955820000000  0.4705940000000 1.0
C      1  0.4382340000000  0.4808560000000  0.4508150000000 1.0
C      1  0.5145630000000  0.5196000000000  0.5065930000000 1.0
C      1  0.5411290000000  0.4704070000000  0.5171720000000 1.0
C      1  0.4948640000000  0.5843020000000  0.4652420000000 1.0
C      1  0.4289180000000  0.4482980000000  0.4749610000000 1.0
C      1  0.4907730000000  0.4730740000000  0.4547160000000 1.0
C      1  0.4787730000000  0.5663330000000  0.5252670000000 1.0
C      1  0.5266730000000  0.4361100000000  0.5564140000000 1.0
C      1  0.4633220000000  0.5173320000000  0.4274670000000 1.0
C      1  0.5054800000000  0.4950230000000  0.5418020000000 1.0
C      1  0.4802410000000  0.4310890000000  0.5581750000000 1.0
C      1  0.5609590000000  0.4661100000000  0.4556110000000 1.0
C      1  0.4778820000000  0.4548980000000  0.5754170000000 1.0
C      1  0.5242350000000  0.5473780000000  0.5137660000000 1.0
C      1  0.5250460000000  0.4543890000000  0.5789450000000 1.0
C      1  0.4739970000000  0.4867370000000  0.4971080000000 1.0
C      1  0.5652200000000  0.5588180000000  0.5282130000000 1.0
C      1  0.5755620000000  0.5344190000000  0.4852440000000 1.0
C      1  0.4527650000000  0.5071800000000  0.4543700000000 1.0
C      1  0.5661770000000  0.4675310000000  0.5016480000000 1.0
C      1  0.4487520000000  0.4524800000000  0.4545200000000 1.0
C      1  0.4532120000000  0.5396980000000  0.5539180000000 1.0
C      1  0.5425770000000  0.4284620000000  0.4798650000000 1.0
C      1  0.4870960000000  0.5187430000000  0.5766690000000 1.0
C      1  0.4393480000000  0.5422860000000  0.5290410000000 1.0
C      1  0.5574810000000  0.5508410000000  0.4712910000000 1.0
C      1  0.5265280000000  0.4303650000000  0.5023240000000 1.0
C      1  0.4245200000000  0.5200770000000  0.5208900000000 1.0
C      1  0.4694220000000  0.5077000000000  0.5137760000000 1.0
C      1  0.4930700000000  0.4684290000000  0.5077150000000 1.0
C      1  0.5334410000000  0.4573210000000  0.4462040000000 1.0
C      1  0.4760530000000  0.4476080000000  0.4562500000000 1.0
C      1  0.4793740000000  0.4987720000000  0.4155330000000 1.0
C      1  0.4964620000000  0.4807330000000  0.4263670000000 1.0
C      1  0.5690750000000  0.4947380000000  0.4545580000000 1.0
C      1  0.4661310000000  0.5745690000000  0.4632960000000 1.0
C      1  0.4338490000000  0.4483600000000  0.5032210000000 1.0
END
