TITL C-2681590-4462-3 146.708397216208 125000 -357.367153203747 0 0 54 (C1) n - 1
REM
REM in /nfs/bkarasulu/CARBON/AIRSS/Generating-Clusters/GAP-ML-2020/Only-C1/SD-CG/HFTN-CG
REM
REM
REM
REM
REM
REM ./C.cell (11c1c37f851c82e70ff6c80c92926a4b)
REM
REM compiler GCC version 9.2.1 20190827 (Red Hat 9.2.1-1)
REM options -cpp -mtune=generic -march=x86-64 -g -O0 -fpre-include=/usr/include/finclude/math-vector-fortran.h
REM seed -188323050 -676080618 1005787631 -1121877514 -1749003117 -617129324 350619464 289793192 -2117479800 -470914415 44572244 -812094087 843215621 1232285760 1774262561 -1345235824 -1670200788 -77190407 600065548 -587574296 -1841327490 -1639074796 1958456058 1859648093 -1395786388 -1434194477 -577965988 -1948118171 1984943086 -556792701 -357514609 -1754627854 -1625428473
REM
CELL 1.54180   50.00000   50.00000   50.00000   90.00000   90.00000   90.00000
LATT -1
SFAC C  
C      1  0.4987920000000  0.4803680000000  0.5243610000000 1.0
C      1  0.4804090000000  0.4461930000000  0.5152420000000 1.0
C      1  0.4690160000000  0.4828370000000  0.4837970000000 1.0
C      1  0.4915840000000  0.4547500000000  0.5389530000000 1.0
C      1  0.4885950000000  0.5273230000000  0.5026850000000 1.0
C      1  0.5532850000000  0.5192610000000  0.4929220000000 1.0
C      1  0.5024590000000  0.5677710000000  0.5119640000000 1.0
C      1  0.5044890000000  0.5188980000000  0.4339850000000 1.0
C      1  0.4598080000000  0.5350890000000  0.4498770000000 1.0
C      1  0.5067650000000  0.5221400000000  0.5497280000000 1.0
C      1  0.5258950000000  0.4769040000000  0.5139160000000 1.0
C      1  0.4951980000000  0.4213110000000  0.4753810000000 1.0
C      1  0.5707720000000  0.4770920000000  0.4905060000000 1.0
C      1  0.4349760000000  0.5131040000000  0.4856270000000 1.0
C      1  0.4480570000000  0.4952100000000  0.4683640000000 1.0
C      1  0.4420090000000  0.4768220000000  0.5217990000000 1.0
C      1  0.5405590000000  0.4755780000000  0.5603000000000 1.0
C      1  0.4990910000000  0.5015860000000  0.5675770000000 1.0
C      1  0.4735130000000  0.5526770000000  0.5110680000000 1.0
C      1  0.5478630000000  0.4765460000000  0.5342360000000 1.0
C      1  0.5502260000000  0.4926190000000  0.4472040000000 1.0
C      1  0.5306560000000  0.5123040000000  0.4494070000000 1.0
C      1  0.5083090000000  0.4606860000000  0.4559320000000 1.0
C      1  0.4851680000000  0.4988880000000  0.4391650000000 1.0
C      1  0.4446090000000  0.5393000000000  0.4749540000000 1.0
C      1  0.4917080000000  0.4606370000000  0.5658450000000 1.0
C      1  0.5288270000000  0.5037640000000  0.5002920000000 1.0
C      1  0.5550050000000  0.4736480000000  0.4669800000000 1.0
C      1  0.5436930000000  0.5466600000000  0.4857710000000 1.0
C      1  0.5248780000000  0.4517350000000  0.4967630000000 1.0
C      1  0.5332650000000  0.4570600000000  0.4706820000000 1.0
C      1  0.5059810000000  0.5690960000000  0.5385950000000 1.0
C      1  0.4574150000000  0.5135610000000  0.5304440000000 1.0
C      1  0.4745200000000  0.4845100000000  0.5645960000000 1.0
C      1  0.4532660000000  0.5576980000000  0.4925970000000 1.0
C      1  0.4674170000000  0.5414350000000  0.5373360000000 1.0
C      1  0.4891370000000  0.5373370000000  0.4502220000000 1.0
C      1  0.5489040000000  0.5300230000000  0.4645320000000 1.0
C      1  0.4543580000000  0.4892100000000  0.5466070000000 1.0
C      1  0.4792790000000  0.5003890000000  0.5096890000000 1.0
C      1  0.5179300000000  0.5557760000000  0.4897510000000 1.0
C      1  0.5160980000000  0.4779470000000  0.5701210000000 1.0
C      1  0.4585250000000  0.4622860000000  0.5039860000000 1.0
C      1  0.4934200000000  0.4847760000000  0.4644170000000 1.0
C      1  0.5116340000000  0.5203920000000  0.5202140000000 1.0
C      1  0.4925590000000  0.5468870000000  0.5510750000000 1.0
C      1  0.5757540000000  0.5043070000000  0.5004880000000 1.0
C      1  0.5135320000000  0.5061230000000  0.4746020000000 1.0
C      1  0.5008080000000  0.5337580000000  0.4773970000000 1.0
C      1  0.4357550000000  0.5049540000000  0.5122080000000 1.0
C      1  0.5709340000000  0.4819050000000  0.5180270000000 1.0
C      1  0.5010270000000  0.4355580000000  0.4990740000000 1.0
C      1  0.4583160000000  0.5069680000000  0.4441310000000 1.0
C      1  0.4939510000000  0.4363420000000  0.4546050000000 1.0
END
