TITL C-2681982-5927-15 -71.7734667158986 125000 -835.621000747748 0 0 121 (C1) n - 1
REM
REM in /nfs/bkarasulu/CARBON/AIRSS/Generating-Clusters/GAP-ML-2020/Only-C1/SD-CG/HFTN-CG
REM
REM
REM
REM
REM
REM ./C.cell (11c1c37f851c82e70ff6c80c92926a4b)
REM
REM compiler GCC version 9.2.1 20190827 (Red Hat 9.2.1-1)
REM options -cpp -mtune=generic -march=x86-64 -g -O0 -fpre-include=/usr/include/finclude/math-vector-fortran.h
REM seed -1715616184 1191145359 634010963 -1572915966 -1597363260 456277784 670840343 -17691886 360720369 -1773167307 -793454368 -1460706871 -1570988821 -876108392 -676153673 1051364423 203674840 445021463 926532943 1301528241 -1555280937 1916591558 -1938945929 -416519989 -1223715115 -1371608499 -1322314111 275261642 -1809478180 279631322 -503993285 -1621049150 -2120355395
REM
CELL 1.54180   50.00000   50.00000   50.00000   90.00000   90.00000   90.00000
LATT -1
SFAC C  
C      1  0.4560420000000  0.5363030000000  0.5819540000000 1.0
C      1  0.5231310000000  0.5817450000000  0.4702400000000 1.0
C      1  0.4878030000000  0.4978130000000  0.5422840000000 1.0
C      1  0.5095650000000  0.4342810000000  0.4181200000000 1.0
C      1  0.4960660000000  0.4772100000000  0.5238330000000 1.0
C      1  0.4848940000000  0.5473630000000  0.4854060000000 1.0
C      1  0.4553420000000  0.5680110000000  0.5353210000000 1.0
C      1  0.4872060000000  0.5117910000000  0.4512380000000 1.0
C      1  0.5057750000000  0.5768120000000  0.5393470000000 1.0
C      1  0.5580530000000  0.4357170000000  0.5340760000000 1.0
C      1  0.5272590000000  0.5861290000000  0.4984310000000 1.0
C      1  0.5493100000000  0.4702890000000  0.4662200000000 1.0
C      1  0.5981820000000  0.5336330000000  0.4978080000000 1.0
C      1  0.5421110000000  0.5222750000000  0.4273310000000 1.0
C      1  0.5197500000000  0.4777460000000  0.4555290000000 1.0
C      1  0.4674560000000  0.4626030000000  0.5757590000000 1.0
C      1  0.4798460000000  0.5695180000000  0.5512400000000 1.0
C      1  0.5553380000000  0.5431940000000  0.4428990000000 1.0
C      1  0.4221340000000  0.4798650000000  0.4458370000000 1.0
C      1  0.4382820000000  0.5023020000000  0.5559510000000 1.0
C      1  0.4211840000000  0.5270270000000  0.4586820000000 1.0
C      1  0.4805420000000  0.4568190000000  0.4789260000000 1.0
C      1  0.4541590000000  0.4886000000000  0.5792430000000 1.0
C      1  0.4749870000000  0.4249900000000  0.5437100000000 1.0
C      1  0.5016940000000  0.3974480000000  0.5066160000000 1.0
C      1  0.5013200000000  0.5111780000000  0.4222620000000 1.0
C      1  0.4580070000000  0.4485820000000  0.4292450000000 1.0
C      1  0.5585470000000  0.4978300000000  0.4770440000000 1.0
C      1  0.5026560000000  0.5857070000000  0.5122840000000 1.0
C      1  0.5781640000000  0.5371980000000  0.4577290000000 1.0
C      1  0.5264230000000  0.4928820000000  0.4284090000000 1.0
C      1  0.5485500000000  0.4441890000000  0.5599150000000 1.0
C      1  0.4925870000000  0.4809740000000  0.4950140000000 1.0
C      1  0.5166470000000  0.4284930000000  0.4677450000000 1.0
C      1  0.6067370000000  0.4884600000000  0.5049120000000 1.0
C      1  0.5378740000000  0.4995530000000  0.5207890000000 1.0
C      1  0.4860560000000  0.4419800000000  0.4320660000000 1.0
C      1  0.4128380000000  0.5010430000000  0.4632560000000 1.0
C      1  0.5155200000000  0.4056800000000  0.5293450000000 1.0
C      1  0.4542180000000  0.4976360000000  0.4065150000000 1.0
C      1  0.5316030000000  0.5353710000000  0.4958560000000 1.0
C      1  0.4540890000000  0.5733330000000  0.5073900000000 1.0
C      1  0.5142940000000  0.4428600000000  0.5611990000000 1.0
C      1  0.5145540000000  0.5589720000000  0.4320390000000 1.0
C      1  0.4745510000000  0.4307070000000  0.4920260000000 1.0
C      1  0.5252670000000  0.4966900000000  0.5650130000000 1.0
C      1  0.4992860000000  0.5340220000000  0.5758410000000 1.0
C      1  0.4954720000000  0.4124410000000  0.4852180000000 1.0
C      1  0.4657000000000  0.5106890000000  0.5931640000000 1.0
C      1  0.4354120000000  0.5313190000000  0.5637590000000 1.0
C      1  0.5555290000000  0.4531580000000  0.4885460000000 1.0
C      1  0.4062680000000  0.4958610000000  0.4909930000000 1.0
C      1  0.4779830000000  0.5520860000000  0.5734390000000 1.0
C      1  0.4656080000000  0.4935040000000  0.4957720000000 1.0
C      1  0.5380530000000  0.4686440000000  0.4164780000000 1.0
C      1  0.4338420000000  0.5488790000000  0.5417520000000 1.0
C      1  0.4124530000000  0.5117910000000  0.5147700000000 1.0
C      1  0.5082220000000  0.5168500000000  0.5507340000000 1.0
C      1  0.4195980000000  0.4926240000000  0.5353600000000 1.0
C      1  0.5558880000000  0.5305400000000  0.5775600000000 1.0
C      1  0.4488290000000  0.4800330000000  0.4297740000000 1.0
C      1  0.5354790000000  0.5698060000000  0.5420210000000 1.0
C      1  0.4811380000000  0.5768720000000  0.4936420000000 1.0
C      1  0.5323700000000  0.5147420000000  0.4769410000000 1.0
C      1  0.6051800000000  0.5088000000000  0.4862260000000 1.0
C      1  0.5582690000000  0.5513960000000  0.5013650000000 1.0
C      1  0.5821350000000  0.5512260000000  0.4823680000000 1.0
C      1  0.5579890000000  0.4704050000000  0.5604580000000 1.0
C      1  0.4996620000000  0.4524250000000  0.4571440000000 1.0
C      1  0.5835110000000  0.4810740000000  0.5207040000000 1.0
C      1  0.5076600000000  0.4986840000000  0.4723890000000 1.0
C      1  0.4549400000000  0.5254410000000  0.4057250000000 1.0
C      1  0.5188180000000  0.5346910000000  0.4189410000000 1.0
C      1  0.5743040000000  0.5297320000000  0.5151730000000 1.0
C      1  0.5357060000000  0.4810440000000  0.5432760000000 1.0
C      1  0.4045450000000  0.4498540000000  0.4775770000000 1.0
C      1  0.4594130000000  0.4774670000000  0.4737190000000 1.0
C      1  0.5108280000000  0.4810320000000  0.5874680000000 1.0
C      1  0.5526930000000  0.5515770000000  0.5566900000000 1.0
C      1  0.5012970000000  0.4186150000000  0.5510140000000 1.0
C      1  0.5690320000000  0.4550650000000  0.5143730000000 1.0
C      1  0.5357630000000  0.5652690000000  0.4487390000000 1.0
C      1  0.4366450000000  0.4357650000000  0.4397900000000 1.0
C      1  0.5634690000000  0.5013070000000  0.5079500000000 1.0
C      1  0.4203860000000  0.4656720000000  0.5245910000000 1.0
C      1  0.5302960000000  0.4292200000000  0.4412610000000 1.0
C      1  0.5238820000000  0.4503210000000  0.4005730000000 1.0
C      1  0.4177220000000  0.4529090000000  0.4535390000000 1.0
C      1  0.4315970000000  0.5574850000000  0.4975710000000 1.0
C      1  0.4575750000000  0.4444160000000  0.5563020000000 1.0
C      1  0.4755530000000  0.5396510000000  0.4581120000000 1.0
C      1  0.5478400000000  0.4519520000000  0.4397940000000 1.0
C      1  0.5180760000000  0.5219270000000  0.5193470000000 1.0
C      1  0.4939910000000  0.5149150000000  0.5970770000000 1.0
C      1  0.4657250000000  0.5161420000000  0.5114480000000 1.0
C      1  0.5742780000000  0.5367340000000  0.5428950000000 1.0
C      1  0.5163630000000  0.4602120000000  0.5338830000000 1.0
C      1  0.4906410000000  0.5296170000000  0.5066180000000 1.0
C      1  0.4449960000000  0.5430130000000  0.4494820000000 1.0
C      1  0.5841100000000  0.5097510000000  0.4656780000000 1.0
C      1  0.4673730000000  0.5690410000000  0.4224500000000 1.0
C      1  0.5466870000000  0.5745660000000  0.5156890000000 1.0
C      1  0.5179060000000  0.5019900000000  0.6053440000000 1.0
C      1  0.4953830000000  0.5817700000000  0.4668910000000 1.0
C      1  0.4967450000000  0.4584570000000  0.5802730000000 1.0
C      1  0.4480540000000  0.5499230000000  0.4203750000000 1.0
C      1  0.5755420000000  0.5147210000000  0.5607940000000 1.0
C      1  0.5241040000000  0.4395360000000  0.5143960000000 1.0
C      1  0.5405150000000  0.4175610000000  0.5229030000000 1.0
C      1  0.4212140000000  0.5397020000000  0.5180360000000 1.0
C      1  0.4270050000000  0.5501510000000  0.4712070000000 1.0
C      1  0.4414820000000  0.4463310000000  0.5316050000000 1.0
C      1  0.4617640000000  0.4294210000000  0.5178430000000 1.0
C      1  0.5397040000000  0.5118020000000  0.5882630000000 1.0
C      1  0.5792050000000  0.4875760000000  0.5528760000000 1.0
C      1  0.5347810000000  0.4352490000000  0.4888400000000 1.0
C      1  0.4079440000000  0.4676210000000  0.4980870000000 1.0
C      1  0.4878420000000  0.5657070000000  0.4422500000000 1.0
C      1  0.4785720000000  0.5111200000000  0.4025670000000 1.0
C      1  0.4630340000000  0.5090750000000  0.5380130000000 1.0
C      1  0.4665080000000  0.4912150000000  0.4502170000000 1.0
END
