TITL C-26369-8281-8 -186.52618057497 125000 -893.150617906903 0 0 126 (C1) n - 1
REM
REM in /rds/project/t2_vol4/rds-t2-cs072/BORA/CARBON/from-Arr/AIRSS/Generating-Clusters/GAP-ML-2020/Only-C1/SD-CG/HFTN-CG
REM
REM
REM
REM
REM
REM ./C.cell (11c1c37f851c82e70ff6c80c92926a4b)
REM AIRSS Version 0.9.1 bugfix July 2018 build 013d7b7c2542+ Fri, 06 Jul 2018 19:26:36 +0100
REM compiler GCC version 9.3.0
REM options -cpp -mtune=generic -march=x86-64 -g -O0
REM seed 2131075605 -1937013055 -510485673 281706360 -1930955664 2016793165 -121372802 -2102106622 -1992137760 -748470736 318318458 -588525981 -2042917088 594811037 590263390 852143287 -1479421839 -486533502 -842952821 -106749023 1614600149 657936650 1481960149 -185053050 1331305420 -307617890 -1009849115 412807699 -677551935 -350739462 943240392 304547264 -775422590
REM
CELL 1.54180   50.00000   50.00000   50.00000   90.00000   90.00000   90.00000
LATT -1
SFAC C  
C      1  0.4747950000000  0.5034090000000  0.5942140000000 1.0
C      1  0.4953490000000  0.4743180000000  0.5404640000000 1.0
C      1  0.5236400000000  0.5702140000000  0.4303070000000 1.0
C      1  0.5176700000000  0.5618780000000  0.5020730000000 1.0
C      1  0.5946360000000  0.4865070000000  0.5094890000000 1.0
C      1  0.5298820000000  0.4209360000000  0.5525760000000 1.0
C      1  0.5498530000000  0.4627000000000  0.4339180000000 1.0
C      1  0.4806240000000  0.5304600000000  0.5866440000000 1.0
C      1  0.4506100000000  0.5340340000000  0.4316730000000 1.0
C      1  0.4907560000000  0.4801610000000  0.6008330000000 1.0
C      1  0.5804510000000  0.4592980000000  0.4726960000000 1.0
C      1  0.5440650000000  0.5377220000000  0.4119420000000 1.0
C      1  0.5080130000000  0.5269730000000  0.4527900000000 1.0
C      1  0.4865380000000  0.5234880000000  0.5254740000000 1.0
C      1  0.4878000000000  0.4347130000000  0.5786720000000 1.0
C      1  0.4659740000000  0.4675040000000  0.4605540000000 1.0
C      1  0.4246970000000  0.4600900000000  0.4925440000000 1.0
C      1  0.4283990000000  0.5462910000000  0.5236290000000 1.0
C      1  0.5036800000000  0.5820400000000  0.5407710000000 1.0
C      1  0.4331690000000  0.4463350000000  0.4416630000000 1.0
C      1  0.5025400000000  0.5873590000000  0.4948400000000 1.0
C      1  0.4917700000000  0.4873060000000  0.4953330000000 1.0
C      1  0.5498060000000  0.4881430000000  0.5527650000000 1.0
C      1  0.5560170000000  0.5791190000000  0.5229460000000 1.0
C      1  0.5413430000000  0.4311040000000  0.4757210000000 1.0
C      1  0.4870710000000  0.5902250000000  0.5186140000000 1.0
C      1  0.4444560000000  0.4448450000000  0.5623030000000 1.0
C      1  0.4413920000000  0.4339830000000  0.4938900000000 1.0
C      1  0.5409150000000  0.5088540000000  0.4135010000000 1.0
C      1  0.4565940000000  0.4806240000000  0.4325500000000 1.0
C      1  0.4112160000000  0.4897360000000  0.4530080000000 1.0
C      1  0.5208110000000  0.4278240000000  0.5249530000000 1.0
C      1  0.4897110000000  0.5062320000000  0.4498590000000 1.0
C      1  0.4308840000000  0.5431760000000  0.4502790000000 1.0
C      1  0.5033990000000  0.5460500000000  0.5773070000000 1.0
C      1  0.5527460000000  0.5324700000000  0.5098350000000 1.0
C      1  0.4482810000000  0.4785480000000  0.4819860000000 1.0
C      1  0.5572900000000  0.4172980000000  0.5558170000000 1.0
C      1  0.5311240000000  0.4568460000000  0.5846730000000 1.0
C      1  0.4605790000000  0.5083160000000  0.4425450000000 1.0
C      1  0.4757630000000  0.5426890000000  0.4244300000000 1.0
C      1  0.4021760000000  0.5001870000000  0.4983840000000 1.0
C      1  0.4645390000000  0.4301590000000  0.4774560000000 1.0
C      1  0.5075590000000  0.4614110000000  0.4967190000000 1.0
C      1  0.5181240000000  0.5500850000000  0.4094490000000 1.0
C      1  0.4328010000000  0.5169840000000  0.5345720000000 1.0
C      1  0.5288130000000  0.5719090000000  0.5276780000000 1.0
C      1  0.4921960000000  0.4835290000000  0.4648900000000 1.0
C      1  0.5299380000000  0.5245990000000  0.4691110000000 1.0
C      1  0.5397490000000  0.5475990000000  0.4871940000000 1.0
C      1  0.4910230000000  0.5672310000000  0.5613340000000 1.0
C      1  0.4598470000000  0.5128590000000  0.5156020000000 1.0
C      1  0.4762500000000  0.4574410000000  0.5925770000000 1.0
C      1  0.4885260000000  0.5881800000000  0.4708640000000 1.0
C      1  0.4960060000000  0.5410700000000  0.5041320000000 1.0
C      1  0.4510890000000  0.4657570000000  0.5813160000000 1.0
C      1  0.4942520000000  0.4189850000000  0.5150570000000 1.0
C      1  0.5252090000000  0.5043120000000  0.5603190000000 1.0
C      1  0.4188410000000  0.5476720000000  0.4962730000000 1.0
C      1  0.5237350000000  0.4563930000000  0.4245340000000 1.0
C      1  0.5172720000000  0.4608690000000  0.5248210000000 1.0
C      1  0.4141670000000  0.4947770000000  0.5235160000000 1.0
C      1  0.4929940000000  0.4311640000000  0.4877440000000 1.0
C      1  0.5011550000000  0.5021570000000  0.5417130000000 1.0
C      1  0.5160860000000  0.4339730000000  0.5754910000000 1.0
C      1  0.5836010000000  0.5288850000000  0.4554560000000 1.0
C      1  0.4055490000000  0.5249050000000  0.4857670000000 1.0
C      1  0.5083580000000  0.4361340000000  0.4389730000000 1.0
C      1  0.4281410000000  0.4723350000000  0.4364410000000 1.0
C      1  0.5695020000000  0.5106230000000  0.5504050000000 1.0
C      1  0.5282880000000  0.5055980000000  0.5897710000000 1.0
C      1  0.5605970000000  0.5661460000000  0.4769740000000 1.0
C      1  0.5130750000000  0.5031640000000  0.4079750000000 1.0
C      1  0.5804610000000  0.5014630000000  0.4431860000000 1.0
C      1  0.5652510000000  0.5828400000000  0.4980000000000 1.0
C      1  0.5073040000000  0.5080700000000  0.5106610000000 1.0
C      1  0.4896070000000  0.5497140000000  0.4519830000000 1.0
C      1  0.5302610000000  0.5314940000000  0.5751460000000 1.0
C      1  0.4475810000000  0.5655450000000  0.5322490000000 1.0
C      1  0.4189000000000  0.4659140000000  0.5214570000000 1.0
C      1  0.5530990000000  0.4628490000000  0.5670700000000 1.0
C      1  0.4816150000000  0.4401560000000  0.4308400000000 1.0
C      1  0.6018940000000  0.4972860000000  0.4844120000000 1.0
C      1  0.4607810000000  0.5728820000000  0.4833510000000 1.0
C      1  0.5019280000000  0.5759920000000  0.4488810000000 1.0
C      1  0.5372350000000  0.5033140000000  0.5077260000000 1.0
C      1  0.4407210000000  0.5167130000000  0.5639350000000 1.0
C      1  0.4705980000000  0.4685390000000  0.5293040000000 1.0
C      1  0.5189650000000  0.4800130000000  0.5971290000000 1.0
C      1  0.4600660000000  0.4381810000000  0.4503830000000 1.0
C      1  0.4976500000000  0.5307680000000  0.4082650000000 1.0
C      1  0.4568060000000  0.5243900000000  0.4883870000000 1.0
C      1  0.4168930000000  0.5181970000000  0.4598700000000 1.0
C      1  0.5364310000000  0.4984980000000  0.4792540000000 1.0
C      1  0.5439870000000  0.4313440000000  0.5044770000000 1.0
C      1  0.5869690000000  0.5085370000000  0.5274230000000 1.0
C      1  0.4502980000000  0.4951700000000  0.5813650000000 1.0
C      1  0.5830180000000  0.4610240000000  0.5018730000000 1.0
C      1  0.5589040000000  0.4477440000000  0.4585980000000 1.0
C      1  0.5921000000000  0.4831490000000  0.4620490000000 1.0
C      1  0.5706520000000  0.5547180000000  0.4517650000000 1.0
C      1  0.4653210000000  0.4847890000000  0.5067200000000 1.0
C      1  0.5592220000000  0.4902440000000  0.4270010000000 1.0
C      1  0.4678370000000  0.4278720000000  0.5589390000000 1.0
C      1  0.4786510000000  0.4654570000000  0.4175640000000 1.0
C      1  0.5941130000000  0.5238890000000  0.4820460000000 1.0
C      1  0.5611630000000  0.4515220000000  0.5186670000000 1.0
C      1  0.5515730000000  0.5508260000000  0.5336060000000 1.0
C      1  0.5823560000000  0.5292470000000  0.5078660000000 1.0
C      1  0.4763960000000  0.5453210000000  0.4817470000000 1.0
C      1  0.4338890000000  0.5602950000000  0.4738630000000 1.0
C      1  0.5046670000000  0.4756730000000  0.4118580000000 1.0
C      1  0.4447100000000  0.4269990000000  0.5203440000000 1.0
C      1  0.4624340000000  0.5615050000000  0.5570070000000 1.0
C      1  0.5514080000000  0.5587710000000  0.4314280000000 1.0
C      1  0.4453330000000  0.5062090000000  0.4689000000000 1.0
C      1  0.4298510000000  0.4451250000000  0.5375880000000 1.0
C      1  0.5428360000000  0.4768700000000  0.5250880000000 1.0
C      1  0.4702540000000  0.4190540000000  0.5311280000000 1.0
C      1  0.5147020000000  0.4268680000000  0.4655170000000 1.0
C      1  0.5548530000000  0.5350190000000  0.5573860000000 1.0
C      1  0.5618820000000  0.4426530000000  0.5485470000000 1.0
C      1  0.5198200000000  0.4754780000000  0.4717540000000 1.0
C      1  0.4567270000000  0.5388110000000  0.5722640000000 1.0
C      1  0.4052700000000  0.4787940000000  0.4792240000000 1.0
C      1  0.4609880000000  0.5812980000000  0.5123180000000 1.0
END
