TITL C-2681982-5927-2 19.4100549904554 125000 -811.905861308741 0 0 115 (C1) n - 1
REM
REM in /nfs/bkarasulu/CARBON/AIRSS/Generating-Clusters/GAP-ML-2020/Only-C1/SD-CG/HFTN-CG
REM
REM
REM
REM
REM
REM ./C.cell (11c1c37f851c82e70ff6c80c92926a4b)
REM
REM compiler GCC version 9.2.1 20190827 (Red Hat 9.2.1-1)
REM options -cpp -mtune=generic -march=x86-64 -g -O0 -fpre-include=/usr/include/finclude/math-vector-fortran.h
REM seed -109901849 -462032285 612079557 1891410195 42384124 -1980796815 500176770 -655688988 300584718 -1679592865 -290038964 -935377646 -986856525 -220317895 -690526069 -2116313108 471529735 -1554524314 2047240007 1388418985 -44669358 -1395039467 16743815 792588211 564766561 -1866000119 -609375560 936210716 -1593595553 241500058 -1148422366 1258312117 -1212781888
REM
CELL 1.54180   50.00000   50.00000   50.00000   90.00000   90.00000   90.00000
LATT -1
SFAC C  
C      1  0.5237160000000  0.4141420000000  0.5068420000000 1.0
C      1  0.5671130000000  0.5105460000000  0.5538000000000 1.0
C      1  0.5632720000000  0.4815900000000  0.5451720000000 1.0
C      1  0.5116400000000  0.4248810000000  0.4814380000000 1.0
C      1  0.5466950000000  0.5470850000000  0.4817870000000 1.0
C      1  0.4825900000000  0.4178000000000  0.4741480000000 1.0
C      1  0.4916950000000  0.4902400000000  0.6052770000000 1.0
C      1  0.5328130000000  0.5440000000000  0.4289330000000 1.0
C      1  0.5485760000000  0.4848220000000  0.5176430000000 1.0
C      1  0.4260590000000  0.5271230000000  0.5307440000000 1.0
C      1  0.5441560000000  0.5276060000000  0.5582290000000 1.0
C      1  0.4942650000000  0.5904810000000  0.5249120000000 1.0
C      1  0.4815120000000  0.5477570000000  0.4410920000000 1.0
C      1  0.4995120000000  0.5248290000000  0.4793230000000 1.0
C      1  0.5416450000000  0.4685620000000  0.4360390000000 1.0
C      1  0.5297950000000  0.5153660000000  0.4237110000000 1.0
C      1  0.5584130000000  0.5797850000000  0.4563870000000 1.0
C      1  0.4724700000000  0.5225330000000  0.5550000000000 1.0
C      1  0.5550730000000  0.5763460000000  0.4830140000000 1.0
C      1  0.5052520000000  0.5757370000000  0.4834890000000 1.0
C      1  0.5478300000000  0.4453750000000  0.4523500000000 1.0
C      1  0.4223250000000  0.4452500000000  0.4572710000000 1.0
C      1  0.4637040000000  0.4758310000000  0.5688790000000 1.0
C      1  0.4209740000000  0.4417210000000  0.4838380000000 1.0
C      1  0.5171850000000  0.5017580000000  0.4853620000000 1.0
C      1  0.5081420000000  0.5435080000000  0.5280710000000 1.0
C      1  0.4507160000000  0.5706310000000  0.5489250000000 1.0
C      1  0.4183230000000  0.4575470000000  0.5277220000000 1.0
C      1  0.4592240000000  0.5121390000000  0.4103050000000 1.0
C      1  0.4697420000000  0.5844040000000  0.5093200000000 1.0
C      1  0.4610540000000  0.4300120000000  0.5426740000000 1.0
C      1  0.5042830000000  0.4552100000000  0.4228610000000 1.0
C      1  0.4736680000000  0.5703290000000  0.5626830000000 1.0
C      1  0.5234050000000  0.5211940000000  0.5774660000000 1.0
C      1  0.4687260000000  0.4758300000000  0.4993510000000 1.0
C      1  0.5094950000000  0.4945360000000  0.5798330000000 1.0
C      1  0.5295620000000  0.5261940000000  0.5261780000000 1.0
C      1  0.5046930000000  0.4125910000000  0.5283460000000 1.0
C      1  0.4769940000000  0.5773700000000  0.4821590000000 1.0
C      1  0.4390160000000  0.5494380000000  0.4601610000000 1.0
C      1  0.5025350000000  0.5031770000000  0.4297160000000 1.0
C      1  0.4730390000000  0.4477760000000  0.5619410000000 1.0
C      1  0.5249890000000  0.4279760000000  0.4550880000000 1.0
C      1  0.5034410000000  0.4774030000000  0.4708510000000 1.0
C      1  0.4590540000000  0.5023480000000  0.5011820000000 1.0
C      1  0.4307690000000  0.5482500000000  0.5115080000000 1.0
C      1  0.4862490000000  0.4952280000000  0.5588810000000 1.0
C      1  0.5973930000000  0.5031760000000  0.5192350000000 1.0
C      1  0.5135390000000  0.4766290000000  0.4406800000000 1.0
C      1  0.5626040000000  0.5058320000000  0.5007740000000 1.0
C      1  0.4438030000000  0.5177090000000  0.5522120000000 1.0
C      1  0.5105270000000  0.5542160000000  0.4425720000000 1.0
C      1  0.4746370000000  0.4783690000000  0.4713260000000 1.0
C      1  0.4467500000000  0.5711040000000  0.5220290000000 1.0
C      1  0.5880550000000  0.5166810000000  0.4666670000000 1.0
C      1  0.4770890000000  0.4145070000000  0.5238100000000 1.0
C      1  0.5528260000000  0.5330420000000  0.5073820000000 1.0
C      1  0.5461230000000  0.4955440000000  0.4781090000000 1.0
C      1  0.5437180000000  0.4674060000000  0.4916940000000 1.0
C      1  0.5915600000000  0.5083370000000  0.4925690000000 1.0
C      1  0.4392790000000  0.4905770000000  0.5584060000000 1.0
C      1  0.5416400000000  0.4362240000000  0.5444580000000 1.0
C      1  0.4242940000000  0.4827810000000  0.4265940000000 1.0
C      1  0.4320660000000  0.5080910000000  0.4225250000000 1.0
C      1  0.4648630000000  0.5632330000000  0.4605970000000 1.0
C      1  0.4782470000000  0.4641060000000  0.4155460000000 1.0
C      1  0.5081790000000  0.5452820000000  0.5785760000000 1.0
C      1  0.5460160000000  0.4612140000000  0.5582780000000 1.0
C      1  0.4611990000000  0.5387350000000  0.4207550000000 1.0
C      1  0.5663200000000  0.5353490000000  0.4607980000000 1.0
C      1  0.4781470000000  0.4266820000000  0.4463590000000 1.0
C      1  0.5861290000000  0.5231810000000  0.5371590000000 1.0
C      1  0.4808450000000  0.5449400000000  0.5732980000000 1.0
C      1  0.5739700000000  0.5459030000000  0.5235460000000 1.0
C      1  0.4690840000000  0.4796980000000  0.5995530000000 1.0
C      1  0.5894690000000  0.4754910000000  0.5292500000000 1.0
C      1  0.4651860000000  0.4144190000000  0.4968800000000 1.0
C      1  0.4386280000000  0.4256100000000  0.5012210000000 1.0
C      1  0.4922610000000  0.4661620000000  0.5127930000000 1.0
C      1  0.4339960000000  0.4575960000000  0.4358040000000 1.0
C      1  0.4851930000000  0.5188690000000  0.4533520000000 1.0
C      1  0.5218600000000  0.4990210000000  0.5178770000000 1.0
C      1  0.4794760000000  0.4931910000000  0.4125090000000 1.0
C      1  0.4298080000000  0.5381400000000  0.4847030000000 1.0
C      1  0.5194950000000  0.5681060000000  0.5649440000000 1.0
C      1  0.4364840000000  0.4350540000000  0.5282270000000 1.0
C      1  0.5168280000000  0.5871600000000  0.5073420000000 1.0
C      1  0.5001740000000  0.4851570000000  0.5317540000000 1.0
C      1  0.5153270000000  0.4268460000000  0.5504870000000 1.0
C      1  0.5161820000000  0.5509880000000  0.4723160000000 1.0
C      1  0.5129620000000  0.4578420000000  0.4907640000000 1.0
C      1  0.5888870000000  0.4524790000000  0.5158210000000 1.0
C      1  0.5448260000000  0.5598520000000  0.5554220000000 1.0
C      1  0.5700640000000  0.4367190000000  0.5021540000000 1.0
C      1  0.4126820000000  0.4928270000000  0.4966010000000 1.0
C      1  0.5210110000000  0.4673400000000  0.5716910000000 1.0
C      1  0.4114070000000  0.4637050000000  0.5005850000000 1.0
C      1  0.4118900000000  0.5035540000000  0.5232400000000 1.0
C      1  0.5045190000000  0.4305240000000  0.4360670000000 1.0
C      1  0.4363970000000  0.5356360000000  0.4349810000000 1.0
C      1  0.5576010000000  0.5554550000000  0.4411960000000 1.0
C      1  0.5635740000000  0.5044260000000  0.4551400000000 1.0
C      1  0.5014480000000  0.4462730000000  0.5657210000000 1.0
C      1  0.5508510000000  0.4953140000000  0.4309770000000 1.0
C      1  0.5586210000000  0.5685280000000  0.5321310000000 1.0
C      1  0.5476260000000  0.4261250000000  0.5180560000000 1.0
C      1  0.4609510000000  0.4461820000000  0.4302560000000 1.0
C      1  0.5451040000000  0.5832630000000  0.5098180000000 1.0
C      1  0.5601240000000  0.4477150000000  0.4779390000000 1.0
C      1  0.4358220000000  0.5084520000000  0.4823350000000 1.0
C      1  0.4969400000000  0.5834100000000  0.5528980000000 1.0
C      1  0.4183510000000  0.4822200000000  0.5418440000000 1.0
C      1  0.4834090000000  0.5334660000000  0.5270960000000 1.0
C      1  0.4789440000000  0.5227170000000  0.5020380000000 1.0
C      1  0.4613200000000  0.5013620000000  0.4603600000000 1.0
END
