TITL C-2681590-4462-22 -22.7454641284042 125000 -243.119264389969 0 0 37 (C1) n - 1
REM
REM in /nfs/bkarasulu/CARBON/AIRSS/Generating-Clusters/GAP-ML-2020/Only-C1/SD-CG/HFTN-CG
REM
REM
REM
REM
REM
REM ./C.cell (11c1c37f851c82e70ff6c80c92926a4b)
REM
REM compiler GCC version 9.2.1 20190827 (Red Hat 9.2.1-1)
REM options -cpp -mtune=generic -march=x86-64 -g -O0 -fpre-include=/usr/include/finclude/math-vector-fortran.h
REM seed -2061042528 1936011062 -2066479012 1887512459 -1719366792 811239140 873363386 -1314249793 -1241795170 302527183 1405761447 1141183129 360504221 -1640280938 977364475 1472493877 -1522881113 -1559251773 1101141164 -43138237 -1122153199 163810502 -803819608 604356034 1124718374 -516809933 -310348878 2040487156 -868132784 66212441 132799106 -2006444427 1388612283
REM
CELL 1.54180   50.00000   50.00000   50.00000   90.00000   90.00000   90.00000
LATT -1
SFAC C  
C      1  0.4901330000000  0.5522600000000  0.5367210000000 1.0
C      1  0.5402710000000  0.4994370000000  0.4525090000000 1.0
C      1  0.5222910000000  0.4629040000000  0.5289820000000 1.0
C      1  0.4422520000000  0.5126530000000  0.5020740000000 1.0
C      1  0.5249680000000  0.5411330000000  0.4685470000000 1.0
C      1  0.5466130000000  0.5222090000000  0.4688000000000 1.0
C      1  0.4843420000000  0.4956780000000  0.4999900000000 1.0
C      1  0.4967410000000  0.5394580000000  0.4640030000000 1.0
C      1  0.5577390000000  0.5116850000000  0.4934830000000 1.0
C      1  0.4778570000000  0.4923300000000  0.5285450000000 1.0
C      1  0.4660530000000  0.4813860000000  0.4814000000000 1.0
C      1  0.4487190000000  0.4572920000000  0.5212550000000 1.0
C      1  0.5156400000000  0.4627400000000  0.4680050000000 1.0
C      1  0.5230450000000  0.4859530000000  0.5490940000000 1.0
C      1  0.5082450000000  0.5471290000000  0.5148180000000 1.0
C      1  0.5021410000000  0.5050270000000  0.5420500000000 1.0
C      1  0.4753600000000  0.4938300000000  0.4578590000000 1.0
C      1  0.5488790000000  0.4946120000000  0.5373730000000 1.0
C      1  0.5178080000000  0.5196700000000  0.5174320000000 1.0
C      1  0.5040060000000  0.4499040000000  0.4884600000000 1.0
C      1  0.4996120000000  0.4823480000000  0.4507200000000 1.0
C      1  0.5074110000000  0.5525820000000  0.4871260000000 1.0
C      1  0.4911110000000  0.5291710000000  0.5551140000000 1.0
C      1  0.4738530000000  0.4622750000000  0.5288580000000 1.0
C      1  0.5106380000000  0.5021080000000  0.4945330000000 1.0
C      1  0.4278090000000  0.4630790000000  0.5058390000000 1.0
C      1  0.5171520000000  0.4989230000000  0.4382610000000 1.0
C      1  0.5421160000000  0.4749420000000  0.4679350000000 1.0
C      1  0.5547550000000  0.4826090000000  0.4923210000000 1.0
C      1  0.4523390000000  0.5255740000000  0.4801350000000 1.0
C      1  0.4561880000000  0.5130600000000  0.5280680000000 1.0
C      1  0.4400640000000  0.4849700000000  0.4938810000000 1.0
C      1  0.4671540000000  0.5356410000000  0.5408540000000 1.0
C      1  0.5468420000000  0.4729020000000  0.5176740000000 1.0
C      1  0.4723580000000  0.5232300000000  0.4611810000000 1.0
C      1  0.5479400000000  0.5174960000000  0.5202220000000 1.0
C      1  0.4995560000000  0.4518000000000  0.5158790000000 1.0
END
