TITL C-260511-6678-3 -21.1377862703518 125000 -119.529121886139 0 0 19 (C1) n - 1
REM
REM in /rds/project/t2_vol4/rds-t2-cs072/BORA/CARBON/from-Arr/AIRSS/Generating-Clusters/GAP-ML-2020/Only-C1/SD-CG/HFTN-CG
REM
REM
REM
REM
REM
REM ./C.cell (11c1c37f851c82e70ff6c80c92926a4b)
REM AIRSS Version 0.9.1 bugfix July 2018 build 013d7b7c2542+ Fri, 06 Jul 2018 19:26:36 +0100
REM compiler GCC version 9.3.0
REM options -cpp -mtune=generic -march=x86-64 -g -O0
REM seed 1305249067 1820762498 1951825184 2128309572 -1365461746 -1219582253 -1998484040 1543616650 1251630678 830780624 432105179 -736870335 -1698151690 -1390050898 -347423230 869104383 325782524 -1651464384 -456495914 -178751320 1447695407 1314869143 60132708 1153515986 -140754270 -1248964634 1683081760 471743765 -334966407 -1499746816 -911561772 492168235 2106879650
REM
CELL 1.54180   50.00000   50.00000   50.00000   90.00000   90.00000   90.00000
LATT -1
SFAC C  
C      1  0.4527290000000  0.5202170000000  0.5225730000000 1.0
C      1  0.5343100000000  0.4804030000000  0.4906000000000 1.0
C      1  0.4977030000000  0.5053040000000  0.4228120000000 1.0
C      1  0.4921290000000  0.5371390000000  0.4885230000000 1.0
C      1  0.5292540000000  0.5074800000000  0.4876630000000 1.0
C      1  0.5076080000000  0.4941770000000  0.5402910000000 1.0
C      1  0.5081450000000  0.5192250000000  0.4716130000000 1.0
C      1  0.4602630000000  0.4963510000000  0.5287670000000 1.0
C      1  0.5363620000000  0.5220110000000  0.5109690000000 1.0
C      1  0.4857010000000  0.4618170000000  0.4819240000000 1.0
C      1  0.5154520000000  0.5194340000000  0.5291420000000 1.0
C      1  0.4937870000000  0.4631130000000  0.5088300000000 1.0
C      1  0.4966990000000  0.5007490000000  0.4498280000000 1.0
C      1  0.4831710000000  0.4814010000000  0.5294460000000 1.0
C      1  0.5261760000000  0.4736120000000  0.5382200000000 1.0
C      1  0.4985540000000  0.5371950000000  0.5158420000000 1.0
C      1  0.5227310000000  0.4667180000000  0.5117000000000 1.0
C      1  0.4873360000000  0.4757480000000  0.4611770000000 1.0
C      1  0.4718880000000  0.5379050000000  0.5100800000000 1.0
END
