TITL C-2681598-4990-4 -0.0837709179867491 125000 -934.714926764302 0 0 135 (C1) n - 1
REM
REM in /nfs/bkarasulu/CARBON/AIRSS/Generating-Clusters/GAP-ML-2020/Only-C1/SD-CG/HFTN-CG
REM
REM
REM
REM
REM
REM ./C.cell (11c1c37f851c82e70ff6c80c92926a4b)
REM
REM compiler GCC version 9.2.1 20190827 (Red Hat 9.2.1-1)
REM options -cpp -mtune=generic -march=x86-64 -g -O0 -fpre-include=/usr/include/finclude/math-vector-fortran.h
REM seed 736792646 162600571 -1080607061 -415739754 1888844637 -1546204713 1130608560 -652242379 2025886761 -1635776011 1302121789 1316227054 -108835932 349741543 351357826 -69170724 -1512380370 1694914211 903365049 -1925718355 -184068988 1451471868 616816935 -509514202 -1134789078 1646394594 1874698257 1319595788 1746704981 1851483343 -2091422884 -1130005832 -1229060729
REM
CELL 1.54180   50.00000   50.00000   50.00000   90.00000   90.00000   90.00000
LATT -1
SFAC C  
C      1  0.4346310000000  0.4583730000000  0.5513510000000 1.0
C      1  0.4751000000000  0.5432450000000  0.4170540000000 1.0
C      1  0.5091720000000  0.4452130000000  0.5115200000000 1.0
C      1  0.5387490000000  0.4748720000000  0.4883090000000 1.0
C      1  0.5063140000000  0.5082350000000  0.5624450000000 1.0
C      1  0.5485480000000  0.4698430000000  0.4097520000000 1.0
C      1  0.4581890000000  0.5137030000000  0.5151940000000 1.0
C      1  0.4699150000000  0.4860110000000  0.4131520000000 1.0
C      1  0.4335870000000  0.4832230000000  0.5667980000000 1.0
C      1  0.4472570000000  0.5691380000000  0.5196570000000 1.0
C      1  0.5091750000000  0.4210900000000  0.4503490000000 1.0
C      1  0.5236160000000  0.4717290000000  0.5131470000000 1.0
C      1  0.4991630000000  0.5543400000000  0.5020890000000 1.0
C      1  0.4141410000000  0.4622570000000  0.4790060000000 1.0
C      1  0.5617110000000  0.5515940000000  0.5500340000000 1.0
C      1  0.4109580000000  0.5037200000000  0.5308430000000 1.0
C      1  0.4916380000000  0.5833260000000  0.4894930000000 1.0
C      1  0.4289470000000  0.5474990000000  0.5280910000000 1.0
C      1  0.5307540000000  0.5216880000000  0.5236190000000 1.0
C      1  0.4255670000000  0.5360250000000  0.5556450000000 1.0
C      1  0.4915870000000  0.4971980000000  0.4280570000000 1.0
C      1  0.4242770000000  0.4624100000000  0.4527990000000 1.0
C      1  0.4851890000000  0.4440620000000  0.4920750000000 1.0
C      1  0.4675900000000  0.5563460000000  0.5808860000000 1.0
C      1  0.5208940000000  0.5743550000000  0.5473700000000 1.0
C      1  0.5720780000000  0.4544080000000  0.4471010000000 1.0
C      1  0.4630440000000  0.4776810000000  0.4623550000000 1.0
C      1  0.4033110000000  0.4846590000000  0.4913440000000 1.0
C      1  0.4931810000000  0.5297190000000  0.5428270000000 1.0
C      1  0.5741420000000  0.4834630000000  0.4460360000000 1.0
C      1  0.5575330000000  0.4462970000000  0.4229090000000 1.0
C      1  0.4660710000000  0.5188050000000  0.5444190000000 1.0
C      1  0.4194570000000  0.5063660000000  0.5565990000000 1.0
C      1  0.5336230000000  0.5086840000000  0.5496620000000 1.0
C      1  0.5173020000000  0.5921500000000  0.4775890000000 1.0
C      1  0.4482200000000  0.5004240000000  0.4230410000000 1.0
C      1  0.5194850000000  0.4622800000000  0.5808520000000 1.0
C      1  0.4811520000000  0.5758360000000  0.5665910000000 1.0
C      1  0.4989050000000  0.5389840000000  0.4580610000000 1.0
C      1  0.5721510000000  0.4721130000000  0.5756550000000 1.0
C      1  0.4794380000000  0.4738560000000  0.5359620000000 1.0
C      1  0.4679530000000  0.4203010000000  0.5043240000000 1.0
C      1  0.5358650000000  0.4347120000000  0.5570020000000 1.0
C      1  0.4369500000000  0.4888800000000  0.4478140000000 1.0
C      1  0.5129040000000  0.3996000000000  0.4948630000000 1.0
C      1  0.4878630000000  0.3977540000000  0.5089660000000 1.0
C      1  0.5602230000000  0.4919200000000  0.4223390000000 1.0
C      1  0.4756800000000  0.5259830000000  0.4686760000000 1.0
C      1  0.5418550000000  0.5725370000000  0.4850050000000 1.0
C      1  0.4921160000000  0.5979420000000  0.5162880000000 1.0
C      1  0.4972070000000  0.4516100000000  0.5371340000000 1.0
C      1  0.4754350000000  0.4671700000000  0.5927320000000 1.0
C      1  0.5784420000000  0.5324060000000  0.4615660000000 1.0
C      1  0.5591320000000  0.4977810000000  0.4925860000000 1.0
C      1  0.4629110000000  0.4186830000000  0.5363340000000 1.0
C      1  0.4798870000000  0.5692110000000  0.4298930000000 1.0
C      1  0.5454290000000  0.4628430000000  0.5651110000000 1.0
C      1  0.5179950000000  0.4292870000000  0.4241190000000 1.0
C      1  0.5457130000000  0.4247130000000  0.5332000000000 1.0
C      1  0.5437820000000  0.4235470000000  0.4163120000000 1.0
C      1  0.5429780000000  0.5138450000000  0.4177780000000 1.0
C      1  0.4618920000000  0.4656760000000  0.4909220000000 1.0
C      1  0.5130860000000  0.4008590000000  0.4676970000000 1.0
C      1  0.5254070000000  0.5863560000000  0.4493680000000 1.0
C      1  0.5913520000000  0.4568270000000  0.4887360000000 1.0
C      1  0.5830490000000  0.4602710000000  0.5146100000000 1.0
C      1  0.5299900000000  0.4219070000000  0.5065210000000 1.0
C      1  0.4493920000000  0.5352350000000  0.5701730000000 1.0
C      1  0.5100020000000  0.5723610000000  0.5729090000000 1.0
C      1  0.5749720000000  0.5031100000000  0.4671390000000 1.0
C      1  0.5443490000000  0.5370590000000  0.5678170000000 1.0
C      1  0.4424180000000  0.5623170000000  0.4641520000000 1.0
C      1  0.4704780000000  0.4528330000000  0.4460720000000 1.0
C      1  0.5293120000000  0.5439500000000  0.4884690000000 1.0
C      1  0.5230980000000  0.5492750000000  0.5836890000000 1.0
C      1  0.5067120000000  0.5314460000000  0.5992680000000 1.0
C      1  0.5200620000000  0.4699160000000  0.4665330000000 1.0
C      1  0.4358740000000  0.4177080000000  0.4638410000000 1.0
C      1  0.5779550000000  0.5374920000000  0.5083860000000 1.0
C      1  0.5064370000000  0.4426200000000  0.5637230000000 1.0
C      1  0.5471130000000  0.5734160000000  0.5374910000000 1.0
C      1  0.4577500000000  0.4890430000000  0.5831100000000 1.0
C      1  0.5587810000000  0.4269500000000  0.4929960000000 1.0
C      1  0.4669520000000  0.5891060000000  0.4765680000000 1.0
C      1  0.4266390000000  0.5211300000000  0.5120320000000 1.0
C      1  0.5203840000000  0.5248650000000  0.4679630000000 1.0
C      1  0.5206430000000  0.5525790000000  0.4155350000000 1.0
C      1  0.5028200000000  0.4780110000000  0.5971510000000 1.0
C      1  0.4837480000000  0.4984510000000  0.4583780000000 1.0
C      1  0.5152210000000  0.5043560000000  0.4118050000000 1.0
C      1  0.5009460000000  0.5323280000000  0.4086550000000 1.0
C      1  0.4753910000000  0.5790500000000  0.5353660000000 1.0
C      1  0.5508290000000  0.5740140000000  0.4567300000000 1.0
C      1  0.4578550000000  0.5167440000000  0.5926410000000 1.0
C      1  0.4783870000000  0.5365750000000  0.5996350000000 1.0
C      1  0.5046490000000  0.4527320000000  0.4117370000000 1.0
C      1  0.5195970000000  0.6029170000000  0.5063590000000 1.0
C      1  0.4425070000000  0.4401220000000  0.4489930000000 1.0
C      1  0.4461910000000  0.5748940000000  0.4912040000000 1.0
C      1  0.5097990000000  0.5047230000000  0.5921630000000 1.0
C      1  0.4761150000000  0.4447270000000  0.5760950000000 1.0
C      1  0.5903430000000  0.5401210000000  0.4849430000000 1.0
C      1  0.5085060000000  0.4953950000000  0.4737010000000 1.0
C      1  0.4798960000000  0.5308990000000  0.4984930000000 1.0
C      1  0.5029160000000  0.5169540000000  0.5169430000000 1.0
C      1  0.4984610000000  0.5596830000000  0.5317540000000 1.0
C      1  0.5429580000000  0.4814110000000  0.5378540000000 1.0
C      1  0.4704910000000  0.4851120000000  0.5110430000000 1.0
C      1  0.4045020000000  0.4795620000000  0.5194690000000 1.0
C      1  0.5688750000000  0.4347820000000  0.5184440000000 1.0
C      1  0.4211690000000  0.4580990000000  0.5258020000000 1.0
C      1  0.4965150000000  0.4456150000000  0.4635440000000 1.0
C      1  0.5701090000000  0.4865150000000  0.5215400000000 1.0
C      1  0.4624660000000  0.5780330000000  0.4501650000000 1.0
C      1  0.4412050000000  0.4219340000000  0.4904110000000 1.0
C      1  0.4271340000000  0.5126170000000  0.4619890000000 1.0
C      1  0.4755620000000  0.3934930000000  0.5333270000000 1.0
C      1  0.5463040000000  0.5414130000000  0.4226690000000 1.0
C      1  0.4525690000000  0.5284660000000  0.4266180000000 1.0
C      1  0.5493830000000  0.5258650000000  0.5024450000000 1.0
C      1  0.4553840000000  0.4380130000000  0.5569450000000 1.0
C      1  0.4787200000000  0.4601270000000  0.4191460000000 1.0
C      1  0.5756540000000  0.4405500000000  0.4722580000000 1.0
C      1  0.5086710000000  0.5744360000000  0.4292890000000 1.0
C      1  0.5214570000000  0.4747030000000  0.4039980000000 1.0
C      1  0.5808150000000  0.5338000000000  0.5362880000000 1.0
C      1  0.5628850000000  0.5509950000000  0.4443840000000 1.0
C      1  0.4328800000000  0.4499890000000  0.4988720000000 1.0
C      1  0.4139380000000  0.5102170000000  0.4862360000000 1.0
C      1  0.5836030000000  0.5057270000000  0.5413960000000 1.0
C      1  0.4783120000000  0.4935000000000  0.5566930000000 1.0
C      1  0.5854470000000  0.4912390000000  0.5653320000000 1.0
C      1  0.4458990000000  0.5340780000000  0.4559420000000 1.0
C      1  0.5428010000000  0.5862520000000  0.5118940000000 1.0
C      1  0.4999250000000  0.4905110000000  0.5057560000000 1.0
END
