TITL C-2681603-2985-10 -24.886908221539 125000 -397.747174840301 0 0 59 (C1) n - 1
REM
REM in /nfs/bkarasulu/CARBON/AIRSS/Generating-Clusters/GAP-ML-2020/Only-C1/SD-CG/HFTN-CG
REM
REM
REM
REM
REM
REM ./C.cell (11c1c37f851c82e70ff6c80c92926a4b)
REM
REM compiler GCC version 9.2.1 20190827 (Red Hat 9.2.1-1)
REM options -cpp -mtune=generic -march=x86-64 -g -O0 -fpre-include=/usr/include/finclude/math-vector-fortran.h
REM seed 942981330 543685171 -469002970 -395352842 998708974 261638809 1371209682 1787441994 102368073 777292279 -1974305514 -1466712372 1865127636 -821783621 -511301222 48857863 1542259854 2112242269 -364911262 -490809127 -1458764430 -844043598 -1997800725 -1996511088 -1453573463 69425852 -420266809 1765425622 -1590986840 1107373909 1255793720 -358089004 816684388
REM
CELL 1.54180   50.00000   50.00000   50.00000   90.00000   90.00000   90.00000
LATT -1
SFAC C  
C      1  0.4558800000000  0.5464060000000  0.5406080000000 1.0
C      1  0.5494830000000  0.5453810000000  0.5329860000000 1.0
C      1  0.5263300000000  0.4853880000000  0.5696450000000 1.0
C      1  0.5225250000000  0.5074720000000  0.5239510000000 1.0
C      1  0.5047970000000  0.5521460000000  0.5451900000000 1.0
C      1  0.4963100000000  0.5509200000000  0.4608640000000 1.0
C      1  0.5198810000000  0.4327720000000  0.4945200000000 1.0
C      1  0.4226230000000  0.5087250000000  0.4882050000000 1.0
C      1  0.5418100000000  0.4387820000000  0.4788040000000 1.0
C      1  0.5228040000000  0.5092170000000  0.4751640000000 1.0
C      1  0.5306860000000  0.5144090000000  0.5694370000000 1.0
C      1  0.4495130000000  0.4502650000000  0.4788960000000 1.0
C      1  0.4692220000000  0.4319880000000  0.4892850000000 1.0
C      1  0.4740550000000  0.4890990000000  0.4980870000000 1.0
C      1  0.4471370000000  0.4940080000000  0.4510670000000 1.0
C      1  0.4880470000000  0.4389990000000  0.5313400000000 1.0
C      1  0.4291810000000  0.4885570000000  0.5073860000000 1.0
C      1  0.4911530000000  0.4911290000000  0.4362330000000 1.0
C      1  0.4246570000000  0.5050540000000  0.4609300000000 1.0
C      1  0.5397500000000  0.4627560000000  0.4638720000000 1.0
C      1  0.5422450000000  0.4897920000000  0.5091210000000 1.0
C      1  0.4803330000000  0.5514720000000  0.5307900000000 1.0
C      1  0.5372850000000  0.4720520000000  0.4385330000000 1.0
C      1  0.4408500000000  0.5277600000000  0.5282350000000 1.0
C      1  0.5135220000000  0.5239600000000  0.5013230000000 1.0
C      1  0.4725910000000  0.4895630000000  0.5288650000000 1.0
C      1  0.5207710000000  0.5434500000000  0.4483450000000 1.0
C      1  0.5258330000000  0.5614730000000  0.5289220000000 1.0
C      1  0.5193670000000  0.4923750000000  0.4306620000000 1.0
C      1  0.4693990000000  0.4250530000000  0.5163880000000 1.0
C      1  0.4390820000000  0.5296410000000  0.4986750000000 1.0
C      1  0.5067280000000  0.5276810000000  0.5607700000000 1.0
C      1  0.5249200000000  0.4812430000000  0.4837840000000 1.0
C      1  0.5420560000000  0.5207750000000  0.5451800000000 1.0
C      1  0.4433350000000  0.4997730000000  0.5300440000000 1.0
C      1  0.5469100000000  0.5591140000000  0.4881950000000 1.0
C      1  0.5004130000000  0.4804500000000  0.5596640000000 1.0
C      1  0.4562920000000  0.4672750000000  0.4573680000000 1.0
C      1  0.5513510000000  0.5191690000000  0.4726250000000 1.0
C      1  0.5450270000000  0.5459930000000  0.4637020000000 1.0
C      1  0.4872220000000  0.5400950000000  0.5035400000000 1.0
C      1  0.5169860000000  0.4338170000000  0.5229260000000 1.0
C      1  0.5376700000000  0.4473110000000  0.5362250000000 1.0
C      1  0.4748700000000  0.5311080000000  0.4610510000000 1.0
C      1  0.5608780000000  0.5131470000000  0.4983180000000 1.0
C      1  0.5436890000000  0.4677220000000  0.5555750000000 1.0
C      1  0.4957060000000  0.4719240000000  0.4827170000000 1.0
C      1  0.4491620000000  0.4715710000000  0.4964860000000 1.0
C      1  0.5600430000000  0.5398810000000  0.5073280000000 1.0
C      1  0.5199370000000  0.5149860000000  0.4455330000000 1.0
C      1  0.4670910000000  0.5233480000000  0.4891070000000 1.0
C      1  0.4842880000000  0.4706510000000  0.4548150000000 1.0
C      1  0.4967150000000  0.5041900000000  0.5431450000000 1.0
C      1  0.4987170000000  0.5619740000000  0.4869190000000 1.0
C      1  0.4829630000000  0.4647810000000  0.5437540000000 1.0
C      1  0.5232870000000  0.5696370000000  0.5006240000000 1.0
C      1  0.5516610000000  0.4697020000000  0.5286660000000 1.0
C      1  0.4704120000000  0.5101440000000  0.4423980000000 1.0
C      1  0.4945520000000  0.4424740000000  0.4832130000000 1.0
END
