TITL C-2699-3823-3 47.0973311114234 125000 -261.324566619532 0 0 40 (C1) n - 1
REM
REM in /rds/project/t2_vol4/rds-t2-cs072/BORA/CARBON/from-Arr/AIRSS/Generating-Clusters/GAP-ML-2020/Only-C1/SD-CG/HFTN-CG
REM
REM
REM
REM
REM
REM ./C.cell (11c1c37f851c82e70ff6c80c92926a4b)
REM AIRSS Version 0.9.1 bugfix July 2018 build 013d7b7c2542+ Fri, 06 Jul 2018 19:26:36 +0100
REM compiler GCC version 9.3.0
REM options -cpp -mtune=generic -march=x86-64 -g -O0
REM seed 1124184414 1509451824 -1162662891 690214455 -1453210891 -156846783 -684367144 1304858860 -1292142118 772932115 -1782329134 1128592772 909808525 670586457 -1603275672 1905771580 -1107577216 -1314185594 -851283103 1429256569 -1209502832 725613194 -1908540396 -1411517504 -545494029 409134449 866272344 1171226814 655807257 -1586153857 -1623229982 1944623701 -1124729752
REM
CELL 1.54180   50.00000   50.00000   50.00000   90.00000   90.00000   90.00000
LATT -1
SFAC C  
C      1  0.5190500000000  0.4527430000000  0.4708630000000 1.0
C      1  0.5406130000000  0.5284310000000  0.5224450000000 1.0
C      1  0.4642790000000  0.4855830000000  0.5442870000000 1.0
C      1  0.4869990000000  0.5453670000000  0.4756020000000 1.0
C      1  0.4927840000000  0.5231420000000  0.4592330000000 1.0
C      1  0.5083610000000  0.4834870000000  0.5177310000000 1.0
C      1  0.5060180000000  0.5631150000000  0.5138500000000 1.0
C      1  0.5426820000000  0.4912010000000  0.5532720000000 1.0
C      1  0.4888150000000  0.4529610000000  0.4732140000000 1.0
C      1  0.5038960000000  0.5228550000000  0.5538550000000 1.0
C      1  0.4858790000000  0.4718230000000  0.5338970000000 1.0
C      1  0.4416720000000  0.4742220000000  0.4625240000000 1.0
C      1  0.4522800000000  0.5163210000000  0.5051600000000 1.0
C      1  0.5571300000000  0.4796580000000  0.4654500000000 1.0
C      1  0.4702100000000  0.4715410000000  0.4623630000000 1.0
C      1  0.5089500000000  0.4338640000000  0.5118800000000 1.0
C      1  0.4802540000000  0.5288570000000  0.5412660000000 1.0
C      1  0.4727580000000  0.5026190000000  0.4630860000000 1.0
C      1  0.5330920000000  0.5547290000000  0.5147070000000 1.0
C      1  0.4754270000000  0.5031520000000  0.4937700000000 1.0
C      1  0.5568640000000  0.4868920000000  0.4930270000000 1.0
C      1  0.5295110000000  0.5159350000000  0.5468240000000 1.0
C      1  0.5146930000000  0.5157060000000  0.4762510000000 1.0
C      1  0.5026920000000  0.5063840000000  0.5022990000000 1.0
C      1  0.5394450000000  0.4645740000000  0.4541540000000 1.0
C      1  0.5474450000000  0.4650950000000  0.5096770000000 1.0
C      1  0.5297240000000  0.4460530000000  0.4974870000000 1.0
C      1  0.4828690000000  0.5482560000000  0.5206700000000 1.0
C      1  0.4315880000000  0.5065990000000  0.4860000000000 1.0
C      1  0.4218600000000  0.4801360000000  0.4820020000000 1.0
C      1  0.5348370000000  0.5572300000000  0.4843050000000 1.0
C      1  0.5509660000000  0.5138540000000  0.4995240000000 1.0
C      1  0.4881850000000  0.4444570000000  0.5264110000000 1.0
C      1  0.4589290000000  0.5102160000000  0.5339380000000 1.0
C      1  0.4851540000000  0.4368640000000  0.4976300000000 1.0
C      1  0.4440520000000  0.5054400000000  0.4594570000000 1.0
C      1  0.5392220000000  0.5303120000000  0.4777380000000 1.0
C      1  0.5064930000000  0.5642780000000  0.4838510000000 1.0
C      1  0.4694160000000  0.5397800000000  0.4978040000000 1.0
C      1  0.5349050000000  0.4762670000000  0.5324950000000 1.0
END
