TITL C-2681601-4444-6 0.175354772696536 125000 -1010.93111644081 0 0 142 (C1) n - 1
REM
REM in /nfs/bkarasulu/CARBON/AIRSS/Generating-Clusters/GAP-ML-2020/Only-C1/SD-CG/HFTN-CG
REM
REM
REM
REM
REM
REM ./C.cell (11c1c37f851c82e70ff6c80c92926a4b)
REM
REM compiler GCC version 9.2.1 20190827 (Red Hat 9.2.1-1)
REM options -cpp -mtune=generic -march=x86-64 -g -O0 -fpre-include=/usr/include/finclude/math-vector-fortran.h
REM seed -1413172593 -944973850 -502238099 1722062344 1362891214 679341506 1327332977 959268074 -1400392339 1556681799 -1126055651 1406932892 715291218 -1792766478 -221852545 67176464 -1328253573 -766017245 -186748934 2070978629 -1690691620 -1372064817 307960225 42849297 764089015 -2056620189 926693881 -222150293 -519750788 -1550308274 -1849513537 1552730293 -26439615
REM
CELL 1.54180   50.00000   50.00000   50.00000   90.00000   90.00000   90.00000
LATT -1
SFAC C  
C      1  0.4902610000000  0.5385790000000  0.4785280000000 1.0
C      1  0.5804710000000  0.4451180000000  0.4760600000000 1.0
C      1  0.5835730000000  0.5453070000000  0.4713540000000 1.0
C      1  0.5546520000000  0.4955800000000  0.5802000000000 1.0
C      1  0.3938470000000  0.5098070000000  0.4667930000000 1.0
C      1  0.4527060000000  0.4221730000000  0.5291760000000 1.0
C      1  0.4586540000000  0.5770530000000  0.5016930000000 1.0
C      1  0.4745760000000  0.4381260000000  0.5438710000000 1.0
C      1  0.4636480000000  0.4338130000000  0.4437570000000 1.0
C      1  0.4423280000000  0.4425480000000  0.4601540000000 1.0
C      1  0.5951390000000  0.5380360000000  0.5226580000000 1.0
C      1  0.4566670000000  0.4169130000000  0.5011260000000 1.0
C      1  0.4910480000000  0.4931690000000  0.4848000000000 1.0
C      1  0.5060450000000  0.5247030000000  0.5901360000000 1.0
C      1  0.4247890000000  0.5492570000000  0.5552980000000 1.0
C      1  0.4167930000000  0.4457200000000  0.5070500000000 1.0
C      1  0.4526570000000  0.5139500000000  0.5098000000000 1.0
C      1  0.5188160000000  0.5882690000000  0.5328820000000 1.0
C      1  0.5542590000000  0.5212900000000  0.4392120000000 1.0
C      1  0.5041000000000  0.4877670000000  0.5400390000000 1.0
C      1  0.5334480000000  0.5974510000000  0.5121390000000 1.0
C      1  0.4719980000000  0.4565680000000  0.4256260000000 1.0
C      1  0.5133110000000  0.5446280000000  0.4959530000000 1.0
C      1  0.5304350000000  0.4222580000000  0.5587230000000 1.0
C      1  0.4644400000000  0.5529690000000  0.5787710000000 1.0
C      1  0.5078200000000  0.4161380000000  0.4460150000000 1.0
C      1  0.4474990000000  0.4740500000000  0.4248230000000 1.0
C      1  0.5183470000000  0.4627040000000  0.5339540000000 1.0
C      1  0.5258690000000  0.5156380000000  0.4586930000000 1.0
C      1  0.4022810000000  0.4712690000000  0.5039030000000 1.0
C      1  0.4314720000000  0.4591660000000  0.5526150000000 1.0
C      1  0.5734010000000  0.5655210000000  0.4903580000000 1.0
C      1  0.4842460000000  0.5906950000000  0.4971600000000 1.0
C      1  0.4117300000000  0.4816040000000  0.5515990000000 1.0
C      1  0.4658960000000  0.5603560000000  0.4173790000000 1.0
C      1  0.4489470000000  0.5650000000000  0.5567320000000 1.0
C      1  0.5432610000000  0.4215570000000  0.4749860000000 1.0
C      1  0.4040670000000  0.4873580000000  0.4782690000000 1.0
C      1  0.5456540000000  0.5293600000000  0.4120710000000 1.0
C      1  0.4912440000000  0.5875070000000  0.5247940000000 1.0
C      1  0.5247960000000  0.5690910000000  0.4341990000000 1.0
C      1  0.5087890000000  0.4639070000000  0.4567500000000 1.0
C      1  0.5285770000000  0.4385870000000  0.4940870000000 1.0
C      1  0.5016190000000  0.5826510000000  0.4478050000000 1.0
C      1  0.5480450000000  0.4485080000000  0.4353430000000 1.0
C      1  0.5828830000000  0.4430370000000  0.5058620000000 1.0
C      1  0.5247390000000  0.5490520000000  0.4124570000000 1.0
C      1  0.5217660000000  0.4048680000000  0.4677210000000 1.0
C      1  0.5201950000000  0.5586640000000  0.5709140000000 1.0
C      1  0.6003100000000  0.4921960000000  0.5198740000000 1.0
C      1  0.5041780000000  0.5925570000000  0.4751890000000 1.0
C      1  0.4814520000000  0.5183990000000  0.4987890000000 1.0
C      1  0.5668350000000  0.5461530000000  0.4488480000000 1.0
C      1  0.5205160000000  0.4880790000000  0.4710140000000 1.0
C      1  0.5915770000000  0.4978530000000  0.5467940000000 1.0
C      1  0.4174860000000  0.5001030000000  0.5730470000000 1.0
C      1  0.4760260000000  0.5404540000000  0.4012560000000 1.0
C      1  0.4795590000000  0.4853450000000  0.5992010000000 1.0
C      1  0.4842560000000  0.4385580000000  0.5731710000000 1.0
C      1  0.4964850000000  0.5047270000000  0.3979820000000 1.0
C      1  0.5562650000000  0.4744380000000  0.4254950000000 1.0
C      1  0.5976910000000  0.4687070000000  0.5049190000000 1.0
C      1  0.4397440000000  0.4381040000000  0.4889490000000 1.0
C      1  0.5461000000000  0.5103560000000  0.5023850000000 1.0
C      1  0.4467520000000  0.5020090000000  0.4177120000000 1.0
C      1  0.4505950000000  0.5708860000000  0.4539150000000 1.0
C      1  0.4970670000000  0.5241470000000  0.4546520000000 1.0
C      1  0.4413310000000  0.5673550000000  0.4805020000000 1.0
C      1  0.5377670000000  0.4519880000000  0.5572390000000 1.0
C      1  0.4590760000000  0.4645910000000  0.5065090000000 1.0
C      1  0.6014630000000  0.5170130000000  0.5046040000000 1.0
C      1  0.5000150000000  0.4563500000000  0.4134960000000 1.0
C      1  0.4333120000000  0.4881660000000  0.4706010000000 1.0
C      1  0.4498270000000  0.5301290000000  0.5898880000000 1.0
C      1  0.5040200000000  0.5338160000000  0.3992070000000 1.0
C      1  0.4251750000000  0.5317460000000  0.5068330000000 1.0
C      1  0.5736160000000  0.4812860000000  0.5619590000000 1.0
C      1  0.5605720000000  0.5609850000000  0.5439160000000 1.0
C      1  0.5310830000000  0.5372520000000  0.5860500000000 1.0
C      1  0.4846030000000  0.4745740000000  0.4455250000000 1.0
C      1  0.5054680000000  0.4975560000000  0.5974430000000 1.0
C      1  0.4425220000000  0.4611680000000  0.5811140000000 1.0
C      1  0.4921510000000  0.5458080000000  0.5706200000000 1.0
C      1  0.4110090000000  0.5306460000000  0.4589980000000 1.0
C      1  0.4780250000000  0.4066580000000  0.4845070000000 1.0
C      1  0.4668620000000  0.5690310000000  0.5312700000000 1.0
C      1  0.5175050000000  0.5114360000000  0.5340570000000 1.0
C      1  0.5180940000000  0.4429020000000  0.4339450000000 1.0
C      1  0.4784040000000  0.5002970000000  0.4571540000000 1.0
C      1  0.5770080000000  0.5599650000000  0.5186740000000 1.0
C      1  0.4980300000000  0.4420860000000  0.5257260000000 1.0
C      1  0.4344850000000  0.5250690000000  0.4375820000000 1.0
C      1  0.4348070000000  0.4865350000000  0.5905440000000 1.0
C      1  0.4873630000000  0.4645220000000  0.4986570000000 1.0
C      1  0.4228670000000  0.5454740000000  0.4813100000000 1.0
C      1  0.5949390000000  0.5195500000000  0.4770810000000 1.0
C      1  0.4682780000000  0.5123170000000  0.4025450000000 1.0
C      1  0.5678320000000  0.4355700000000  0.5292070000000 1.0
C      1  0.5344250000000  0.5295160000000  0.4846770000000 1.0
C      1  0.5168090000000  0.4193560000000  0.5138720000000 1.0
C      1  0.5494890000000  0.5689490000000  0.4494580000000 1.0
C      1  0.5309270000000  0.5952220000000  0.4855180000000 1.0
C      1  0.4453460000000  0.4879140000000  0.4983300000000 1.0
C      1  0.5392120000000  0.4847000000000  0.4924380000000 1.0
C      1  0.5361910000000  0.4630700000000  0.5094200000000 1.0
C      1  0.4702890000000  0.4587730000000  0.5882190000000 1.0
C      1  0.4600770000000  0.4654440000000  0.5377810000000 1.0
C      1  0.5907880000000  0.5260840000000  0.5481120000000 1.0
C      1  0.4020220000000  0.5171730000000  0.5215600000000 1.0
C      1  0.5403260000000  0.4170620000000  0.5330230000000 1.0
C      1  0.5550320000000  0.5243330000000  0.5797210000000 1.0
C      1  0.5009390000000  0.5305200000000  0.5198030000000 1.0
C      1  0.5279950000000  0.4562070000000  0.5846700000000 1.0
C      1  0.4430710000000  0.5523300000000  0.4329820000000 1.0
C      1  0.4005580000000  0.4890430000000  0.5264790000000 1.0
C      1  0.5119580000000  0.4321060000000  0.5791760000000 1.0
C      1  0.4634620000000  0.5145160000000  0.5378740000000 1.0
C      1  0.5395960000000  0.4850200000000  0.4042550000000 1.0
C      1  0.4353460000000  0.4674130000000  0.4499990000000 1.0
C      1  0.4817900000000  0.5405650000000  0.5400640000000 1.0
C      1  0.5439630000000  0.5127820000000  0.5293020000000 1.0
C      1  0.5890070000000  0.4952820000000  0.4617500000000 1.0
C      1  0.5111750000000  0.4800470000000  0.4022790000000 1.0
C      1  0.4252000000000  0.5280900000000  0.5754710000000 1.0
C      1  0.5536580000000  0.5811430000000  0.4748790000000 1.0
C      1  0.5701530000000  0.4958430000000  0.4400450000000 1.0
C      1  0.4564350000000  0.5028430000000  0.5992450000000 1.0
C      1  0.4493850000000  0.5093160000000  0.4577160000000 1.0
C      1  0.5302690000000  0.4832920000000  0.5915930000000 1.0
C      1  0.5344970000000  0.5719970000000  0.5507190000000 1.0
C      1  0.5657270000000  0.4553580000000  0.5513690000000 1.0
C      1  0.5054000000000  0.4017160000000  0.4918540000000 1.0
C      1  0.5480310000000  0.5093720000000  0.3937040000000 1.0
C      1  0.5604990000000  0.4359040000000  0.4578000000000 1.0
C      1  0.4760890000000  0.4899640000000  0.5432390000000 1.0
C      1  0.4116040000000  0.5400160000000  0.5325780000000 1.0
C      1  0.5033530000000  0.4492340000000  0.4806160000000 1.0
C      1  0.5942950000000  0.4708580000000  0.4760430000000 1.0
C      1  0.4750970000000  0.5777550000000  0.4390000000000 1.0
C      1  0.5705460000000  0.5399650000000  0.5614370000000 1.0
C      1  0.4803670000000  0.4149320000000  0.4550230000000 1.0
C      1  0.4273960000000  0.4367260000000  0.5326630000000 1.0
END
