TITL C-2699-3823-6 21.2976044798322 125000 -167.278371752835 0 0 26 (C1) n - 1
REM
REM in /rds/project/t2_vol4/rds-t2-cs072/BORA/CARBON/from-Arr/AIRSS/Generating-Clusters/GAP-ML-2020/Only-C1/SD-CG/HFTN-CG
REM
REM
REM
REM
REM
REM ./C.cell (11c1c37f851c82e70ff6c80c92926a4b)
REM AIRSS Version 0.9.1 bugfix July 2018 build 013d7b7c2542+ Fri, 06 Jul 2018 19:26:36 +0100
REM compiler GCC version 9.3.0
REM options -cpp -mtune=generic -march=x86-64 -g -O0
REM seed 399476688 -1011163058 1886717533 -163184250 -1614836433 543604065 -1850918533 722834510 -267270894 740792083 577430849 626338885 1994187232 -540162415 -929708254 362663401 -735600091 1231647523 1515493771 1303388522 -1327250933 -519890064 -525969857 1469926802 -1751116268 314572644 -1712778775 708435540 961632633 -1542016797 -1367113609 888090676 -29111858
REM
CELL 1.54180   50.00000   50.00000   50.00000   90.00000   90.00000   90.00000
LATT -1
SFAC C  
C      1  0.4948130000000  0.5160430000000  0.4465450000000 1.0
C      1  0.4528060000000  0.5154650000000  0.5096810000000 1.0
C      1  0.4748040000000  0.5108730000000  0.5254650000000 1.0
C      1  0.4679480000000  0.5305840000000  0.4909950000000 1.0
C      1  0.5179100000000  0.4548050000000  0.4812400000000 1.0
C      1  0.5138520000000  0.5016900000000  0.4364110000000 1.0
C      1  0.4774750000000  0.5537330000000  0.5029770000000 1.0
C      1  0.5450240000000  0.4839970000000  0.4934340000000 1.0
C      1  0.5363840000000  0.4724710000000  0.4661730000000 1.0
C      1  0.5276940000000  0.4651710000000  0.5067240000000 1.0
C      1  0.5439210000000  0.5324160000000  0.5065670000000 1.0
C      1  0.4560520000000  0.4723970000000  0.5128390000000 1.0
C      1  0.4895010000000  0.4904810000000  0.4845290000000 1.0
C      1  0.4951060000000  0.4965950000000  0.5110550000000 1.0
C      1  0.4385410000000  0.4909590000000  0.5096280000000 1.0
C      1  0.4815000000000  0.5137100000000  0.4703020000000 1.0
C      1  0.5044920000000  0.4721220000000  0.5245390000000 1.0
C      1  0.5054960000000  0.5083460000000  0.5553520000000 1.0
C      1  0.4905760000000  0.4617210000000  0.4830110000000 1.0
C      1  0.5083510000000  0.4829710000000  0.5518230000000 1.0
C      1  0.5325900000000  0.4841200000000  0.4421000000000 1.0
C      1  0.4979510000000  0.5462690000000  0.5213440000000 1.0
C      1  0.5535450000000  0.5089140000000  0.5002330000000 1.0
C      1  0.4794680000000  0.4586880000000  0.5113230000000 1.0
C      1  0.4899580000000  0.5281220000000  0.5424350000000 1.0
C      1  0.5242430000000  0.5473350000000  0.5132780000000 1.0
END
