TITL C-2681970-3643-10 -0.0432088336966699 125000 -491.015682069321 0 0 72 (C1) n - 1
REM
REM in /nfs/bkarasulu/CARBON/AIRSS/Generating-Clusters/GAP-ML-2020/Only-C1/SD-CG/HFTN-CG
REM
REM
REM
REM
REM
REM ./C.cell (11c1c37f851c82e70ff6c80c92926a4b)
REM
REM compiler GCC version 9.2.1 20190827 (Red Hat 9.2.1-1)
REM options -cpp -mtune=generic -march=x86-64 -g -O0 -fpre-include=/usr/include/finclude/math-vector-fortran.h
REM seed -1366195928 1394579314 -1467374223 -393717305 -1471193614 -1973855508 -1068435201 1718788128 1947831877 1679646688 950400336 152919735 1208713044 929636370 -1493286094 1164905529 -1219540665 -341025858 285812058 293246768 367007111 1596819769 1170696065 1696147155 1051408378 2121899637 -296329823 -1891730446 -919668531 334057412 -466402102 1888703066 -1056392568
REM
CELL 1.54180   50.00000   50.00000   50.00000   90.00000   90.00000   90.00000
LATT -1
SFAC C  
C      1  0.5378780000000  0.5624750000000  0.5393020000000 1.0
C      1  0.4906850000000  0.4830400000000  0.4967820000000 1.0
C      1  0.5009780000000  0.4604580000000  0.4417470000000 1.0
C      1  0.4428760000000  0.5002070000000  0.4494220000000 1.0
C      1  0.4355930000000  0.5330650000000  0.5312330000000 1.0
C      1  0.4291750000000  0.4928980000000  0.4978390000000 1.0
C      1  0.4725880000000  0.5248080000000  0.5105930000000 1.0
C      1  0.5387520000000  0.4962600000000  0.5104550000000 1.0
C      1  0.5667580000000  0.5405630000000  0.5025950000000 1.0
C      1  0.5739820000000  0.4704090000000  0.5180130000000 1.0
C      1  0.4497800000000  0.4553850000000  0.5286360000000 1.0
C      1  0.4248430000000  0.5556270000000  0.5223840000000 1.0
C      1  0.5008440000000  0.5408860000000  0.5671370000000 1.0
C      1  0.5403570000000  0.4823050000000  0.4818820000000 1.0
C      1  0.4793440000000  0.5613390000000  0.4704880000000 1.0
C      1  0.4321840000000  0.5615350000000  0.4928040000000 1.0
C      1  0.4292000000000  0.4864970000000  0.4701780000000 1.0
C      1  0.4741080000000  0.5421620000000  0.4496580000000 1.0
C      1  0.5812190000000  0.4977520000000  0.4779520000000 1.0
C      1  0.4952570000000  0.4372200000000  0.5263050000000 1.0
C      1  0.5277940000000  0.5060580000000  0.4213570000000 1.0
C      1  0.5467840000000  0.5298750000000  0.4584750000000 1.0
C      1  0.5582970000000  0.5186890000000  0.5437360000000 1.0
C      1  0.5811090000000  0.4698200000000  0.4903800000000 1.0
C      1  0.4832740000000  0.4416310000000  0.4541120000000 1.0
C      1  0.4530380000000  0.5255670000000  0.5545050000000 1.0
C      1  0.5476920000000  0.5449650000000  0.4822690000000 1.0
C      1  0.4739640000000  0.5447400000000  0.5583220000000 1.0
C      1  0.4846830000000  0.5641870000000  0.5384980000000 1.0
C      1  0.4676850000000  0.4333510000000  0.5201810000000 1.0
C      1  0.4982930000000  0.5049170000000  0.4209630000000 1.0
C      1  0.4593110000000  0.4791560000000  0.4383650000000 1.0
C      1  0.5192130000000  0.4789560000000  0.4598370000000 1.0
C      1  0.5577850000000  0.4571340000000  0.4816450000000 1.0
C      1  0.5332700000000  0.4564020000000  0.5426950000000 1.0
C      1  0.5124380000000  0.5607280000000  0.5479730000000 1.0
C      1  0.4902910000000  0.4956950000000  0.5688330000000 1.0
C      1  0.4882960000000  0.4663210000000  0.5581410000000 1.0
C      1  0.4420020000000  0.5182210000000  0.5049120000000 1.0
C      1  0.5068800000000  0.4452190000000  0.5500020000000 1.0
C      1  0.4935890000000  0.5055190000000  0.5147860000000 1.0
C      1  0.5193600000000  0.5185530000000  0.5089990000000 1.0
C      1  0.5364140000000  0.5069260000000  0.5569420000000 1.0
C      1  0.5150890000000  0.4354180000000  0.4928880000000 1.0
C      1  0.4700150000000  0.4252290000000  0.4941730000000 1.0
C      1  0.5000690000000  0.5592050000000  0.4900730000000 1.0
C      1  0.5122640000000  0.5154620000000  0.5704000000000 1.0
C      1  0.5809660000000  0.5155410000000  0.5004430000000 1.0
C      1  0.4377890000000  0.5361660000000  0.4815520000000 1.0
C      1  0.5680320000000  0.4997390000000  0.5218450000000 1.0
C      1  0.4572040000000  0.4548650000000  0.4540090000000 1.0
C      1  0.5288420000000  0.4845430000000  0.5388010000000 1.0
C      1  0.5570330000000  0.5441810000000  0.5306440000000 1.0
C      1  0.5003220000000  0.4906570000000  0.5413300000000 1.0
C      1  0.4787260000000  0.5557450000000  0.5118480000000 1.0
C      1  0.4949530000000  0.4903810000000  0.4712310000000 1.0
C      1  0.5522900000000  0.4492710000000  0.5230890000000 1.0
C      1  0.4917600000000  0.4267650000000  0.4773300000000 1.0
C      1  0.5029140000000  0.4578870000000  0.5053820000000 1.0
C      1  0.4386780000000  0.4590950000000  0.4761720000000 1.0
C      1  0.5434960000000  0.4381110000000  0.4979110000000 1.0
C      1  0.4855150000000  0.4802960000000  0.4264500000000 1.0
C      1  0.4496150000000  0.5276030000000  0.4563420000000 1.0
C      1  0.4592280000000  0.5652370000000  0.4910410000000 1.0
C      1  0.4600240000000  0.4711250000000  0.5508180000000 1.0
C      1  0.5567160000000  0.5020300000000  0.4616250000000 1.0
C      1  0.4360410000000  0.4654580000000  0.5054410000000 1.0
C      1  0.5214190000000  0.5423080000000  0.4926300000000 1.0
C      1  0.5394900000000  0.4894830000000  0.4398140000000 1.0
C      1  0.4611820000000  0.4992440000000  0.5621560000000 1.0
C      1  0.5260410000000  0.5310700000000  0.4379390000000 1.0
C      1  0.4964250000000  0.5303650000000  0.4352940000000 1.0
END
