TITL C-260503-6811-10 196.642400779963 125000 -1018.32922800857 0 0 145 (C1) n - 1
REM
REM in /rds/project/t2_vol4/rds-t2-cs072/BORA/CARBON/from-Arr/AIRSS/Generating-Clusters/GAP-ML-2020/Only-C1/SD-CG/HFTN-CG
REM
REM
REM
REM
REM
REM ./C.cell (11c1c37f851c82e70ff6c80c92926a4b)
REM AIRSS Version 0.9.1 bugfix July 2018 build 013d7b7c2542+ Fri, 06 Jul 2018 19:26:36 +0100
REM compiler GCC version 9.3.0
REM options -cpp -mtune=generic -march=x86-64 -g -O0
REM seed -998147633 2069301485 1874653804 2041031603 -2008093888 -135864073 -858113461 -1555692520 -1424782689 2123269915 1184700631 6142407 -1429223460 -144045412 -300262349 -584178697 885306643 524405440 -871389107 1759118463 1379967378 1122835494 -10490901 -1063121991 -1147574599 -1001452625 -1136363010 325450245 372874526 -1638036491 274296015 1346692208 -476256502
REM
CELL 1.54180   50.00000   50.00000   50.00000   90.00000   90.00000   90.00000
LATT -1
SFAC C  
C      1  0.5525870000000  0.5983450000000  0.5012080000000 1.0
C      1  0.4660950000000  0.5247840000000  0.4890300000000 1.0
C      1  0.4420160000000  0.4958960000000  0.4731860000000 1.0
C      1  0.4747350000000  0.4371030000000  0.4218040000000 1.0
C      1  0.4208390000000  0.5452470000000  0.4939510000000 1.0
C      1  0.4549080000000  0.5668310000000  0.4357650000000 1.0
C      1  0.4488820000000  0.4190720000000  0.5390530000000 1.0
C      1  0.4392790000000  0.4213690000000  0.5126830000000 1.0
C      1  0.5011650000000  0.5245120000000  0.5783340000000 1.0
C      1  0.5850430000000  0.4370020000000  0.4774590000000 1.0
C      1  0.5944550000000  0.4823180000000  0.5349880000000 1.0
C      1  0.4875420000000  0.4512080000000  0.5828890000000 1.0
C      1  0.5091750000000  0.4802810000000  0.5559180000000 1.0
C      1  0.5367370000000  0.5927240000000  0.5570290000000 1.0
C      1  0.5284980000000  0.6084040000000  0.5099330000000 1.0
C      1  0.5094110000000  0.5876760000000  0.4711640000000 1.0
C      1  0.5634500000000  0.4985780000000  0.5514030000000 1.0
C      1  0.4912530000000  0.4668260000000  0.5035230000000 1.0
C      1  0.5857190000000  0.5387330000000  0.4878300000000 1.0
C      1  0.5286090000000  0.5364020000000  0.5874180000000 1.0
C      1  0.4203100000000  0.4479230000000  0.4740600000000 1.0
C      1  0.4166930000000  0.5396970000000  0.5217100000000 1.0
C      1  0.5210800000000  0.4175450000000  0.4330330000000 1.0
C      1  0.5122560000000  0.4984580000000  0.4027250000000 1.0
C      1  0.4736940000000  0.5560650000000  0.4178240000000 1.0
C      1  0.4683010000000  0.4320290000000  0.5810970000000 1.0
C      1  0.5436990000000  0.4087500000000  0.4799710000000 1.0
C      1  0.5455290000000  0.5099410000000  0.4344030000000 1.0
C      1  0.5833590000000  0.5118180000000  0.5306370000000 1.0
C      1  0.4816540000000  0.3989250000000  0.4941230000000 1.0
C      1  0.5193780000000  0.5474570000000  0.4169820000000 1.0
C      1  0.5027620000000  0.4382380000000  0.4718790000000 1.0
C      1  0.5490170000000  0.5084330000000  0.4936470000000 1.0
C      1  0.4463690000000  0.5424540000000  0.5634650000000 1.0
C      1  0.5333810000000  0.4954000000000  0.5390970000000 1.0
C      1  0.4591810000000  0.4885940000000  0.5680360000000 1.0
C      1  0.5792180000000  0.4743590000000  0.5575030000000 1.0
C      1  0.5286020000000  0.5256910000000  0.5394940000000 1.0
C      1  0.4740970000000  0.5281660000000  0.4139550000000 1.0
C      1  0.4988850000000  0.5282170000000  0.5464360000000 1.0
C      1  0.4734920000000  0.4304370000000  0.5294320000000 1.0
C      1  0.4796550000000  0.4821310000000  0.5453230000000 1.0
C      1  0.4073440000000  0.4681780000000  0.5150900000000 1.0
C      1  0.5152660000000  0.4520510000000  0.5677120000000 1.0
C      1  0.5856430000000  0.4849100000000  0.4617800000000 1.0
C      1  0.4718270000000  0.4351180000000  0.4728820000000 1.0
C      1  0.4293450000000  0.4670870000000  0.4385030000000 1.0
C      1  0.5380220000000  0.4901300000000  0.4127940000000 1.0
C      1  0.5455020000000  0.5402020000000  0.4265940000000 1.0
C      1  0.5250420000000  0.5859820000000  0.5819900000000 1.0
C      1  0.4661310000000  0.4836380000000  0.4592200000000 1.0
C      1  0.5687390000000  0.5818020000000  0.5157030000000 1.0
C      1  0.5655090000000  0.4275110000000  0.5212660000000 1.0
C      1  0.4853330000000  0.5065620000000  0.5292190000000 1.0
C      1  0.5948770000000  0.4688440000000  0.5098000000000 1.0
C      1  0.5823720000000  0.4573520000000  0.4567570000000 1.0
C      1  0.4125320000000  0.5365120000000  0.4479630000000 1.0
C      1  0.4921780000000  0.4114060000000  0.5174020000000 1.0
C      1  0.5557110000000  0.4455760000000  0.4484240000000 1.0
C      1  0.5707880000000  0.5079610000000  0.4511740000000 1.0
C      1  0.4827870000000  0.6042940000000  0.5108430000000 1.0
C      1  0.4930070000000  0.5552520000000  0.5358450000000 1.0
C      1  0.4320700000000  0.4402860000000  0.4487800000000 1.0
C      1  0.4753810000000  0.4637650000000  0.4132900000000 1.0
C      1  0.4967400000000  0.5860470000000  0.4453450000000 1.0
C      1  0.5126430000000  0.4464310000000  0.4997080000000 1.0
C      1  0.5073070000000  0.5590980000000  0.5122640000000 1.0
C      1  0.4686320000000  0.4624670000000  0.4823440000000 1.0
C      1  0.4609040000000  0.5140260000000  0.5142660000000 1.0
C      1  0.4014680000000  0.5365740000000  0.4747460000000 1.0
C      1  0.5108930000000  0.5335690000000  0.4724810000000 1.0
C      1  0.4572710000000  0.4127750000000  0.4916860000000 1.0
C      1  0.4518180000000  0.5750240000000  0.5302370000000 1.0
C      1  0.4661090000000  0.5715830000000  0.4814580000000 1.0
C      1  0.5548510000000  0.4351160000000  0.5475530000000 1.0
C      1  0.4292810000000  0.4924060000000  0.5581840000000 1.0
C      1  0.5003120000000  0.5675600000000  0.4235110000000 1.0
C      1  0.4928630000000  0.5120270000000  0.4822800000000 1.0
C      1  0.5442950000000  0.4135350000000  0.5082100000000 1.0
C      1  0.4594480000000  0.4275780000000  0.4462870000000 1.0
C      1  0.4786150000000  0.4787060000000  0.5880590000000 1.0
C      1  0.5788410000000  0.5120180000000  0.5007110000000 1.0
C      1  0.4262090000000  0.4468190000000  0.5040670000000 1.0
C      1  0.4911240000000  0.6010240000000  0.5370920000000 1.0
C      1  0.4109720000000  0.4888710000000  0.5365820000000 1.0
C      1  0.4023280000000  0.5143090000000  0.5243780000000 1.0
C      1  0.5303380000000  0.4874090000000  0.5949950000000 1.0
C      1  0.5013490000000  0.4717940000000  0.4041310000000 1.0
C      1  0.5383150000000  0.4660740000000  0.4662940000000 1.0
C      1  0.5342880000000  0.5313180000000  0.4892140000000 1.0
C      1  0.4934630000000  0.3950220000000  0.4676920000000 1.0
C      1  0.4751620000000  0.5762330000000  0.5481910000000 1.0
C      1  0.4725360000000  0.4604940000000  0.5257720000000 1.0
C      1  0.3985650000000  0.4816970000000  0.4918250000000 1.0
C      1  0.5184220000000  0.4228390000000  0.5211510000000 1.0
C      1  0.5385430000000  0.4389420000000  0.4250040000000 1.0
C      1  0.5655110000000  0.5521920000000  0.4413770000000 1.0
C      1  0.4498740000000  0.4664170000000  0.5066040000000 1.0
C      1  0.5471120000000  0.5376920000000  0.5629030000000 1.0
C      1  0.4304280000000  0.5226070000000  0.4332500000000 1.0
C      1  0.5865480000000  0.4413220000000  0.5053150000000 1.0
C      1  0.4692030000000  0.5831410000000  0.4537470000000 1.0
C      1  0.3777930000000  0.5261970000000  0.4829910000000 1.0
C      1  0.4521810000000  0.5103090000000  0.4213900000000 1.0
C      1  0.5144190000000  0.5627340000000  0.5924250000000 1.0
C      1  0.5451100000000  0.5117700000000  0.5963730000000 1.0
C      1  0.5034090000000  0.4943450000000  0.5836210000000 1.0
C      1  0.5635710000000  0.4219390000000  0.4661580000000 1.0
C      1  0.5623280000000  0.4544670000000  0.5679810000000 1.0
C      1  0.4379590000000  0.5491660000000  0.4502300000000 1.0
C      1  0.5135020000000  0.5145770000000  0.4459450000000 1.0
C      1  0.4444500000000  0.4947600000000  0.5019440000000 1.0
C      1  0.5287320000000  0.4621480000000  0.4114210000000 1.0
C      1  0.5622400000000  0.5149110000000  0.5743900000000 1.0
C      1  0.5018610000000  0.4950110000000  0.5064420000000 1.0
C      1  0.5852330000000  0.5414740000000  0.5344620000000 1.0
C      1  0.4989870000000  0.5617050000000  0.4836670000000 1.0
C      1  0.4884070000000  0.5498590000000  0.5887570000000 1.0
C      1  0.4430960000000  0.5137500000000  0.5682420000000 1.0
C      1  0.4182570000000  0.4769250000000  0.4666260000000 1.0
C      1  0.5055690000000  0.6063490000000  0.4927210000000 1.0
C      1  0.5291330000000  0.5419550000000  0.5143090000000 1.0
C      1  0.5786450000000  0.5356030000000  0.4596650000000 1.0
C      1  0.4513520000000  0.4195840000000  0.5657310000000 1.0
C      1  0.4474560000000  0.5477100000000  0.4794500000000 1.0
C      1  0.5608220000000  0.5801890000000  0.5443030000000 1.0
C      1  0.4938570000000  0.4158020000000  0.4251500000000 1.0
C      1  0.4777580000000  0.4024120000000  0.4452290000000 1.0
C      1  0.4346430000000  0.5536010000000  0.5390320000000 1.0
C      1  0.5026590000000  0.5219160000000  0.4164120000000 1.0
C      1  0.5110020000000  0.4656810000000  0.4590960000000 1.0
C      1  0.4606560000000  0.5871360000000  0.5054510000000 1.0
C      1  0.5194920000000  0.6053800000000  0.5374820000000 1.0
C      1  0.5387460000000  0.4624010000000  0.5830720000000 1.0
C      1  0.5843080000000  0.5567730000000  0.5097050000000 1.0
C      1  0.5269410000000  0.4323240000000  0.5479750000000 1.0
C      1  0.5922350000000  0.4885200000000  0.4891680000000 1.0
C      1  0.4671230000000  0.5599450000000  0.5729840000000 1.0
C      1  0.3887430000000  0.5073130000000  0.4993890000000 1.0
C      1  0.5328480000000  0.4894380000000  0.5090930000000 1.0
C      1  0.5364670000000  0.4644240000000  0.4947100000000 1.0
C      1  0.5190830000000  0.4099040000000  0.4633080000000 1.0
C      1  0.4958570000000  0.4923350000000  0.4592950000000 1.0
C      1  0.5688790000000  0.5548940000000  0.5537580000000 1.0
C      1  0.4551970000000  0.4811480000000  0.4291050000000 1.0
END
