TITL C-260515-6798-3 0.0498277782684761 125000 -244.947554549355 0 0 37 (C1) n - 1
REM
REM in /rds/project/t2_vol4/rds-t2-cs072/BORA/CARBON/from-Arr/AIRSS/Generating-Clusters/GAP-ML-2020/Only-C1/SD-CG/HFTN-CG
REM
REM
REM
REM
REM
REM ./C.cell (11c1c37f851c82e70ff6c80c92926a4b)
REM AIRSS Version 0.9.1 bugfix July 2018 build 013d7b7c2542+ Fri, 06 Jul 2018 19:26:36 +0100
REM compiler GCC version 9.3.0
REM options -cpp -mtune=generic -march=x86-64 -g -O0
REM seed 1081012935 1763911824 1770355277 252815793 658496943 -1499975917 -1400228900 -1747309922 685920705 816015055 -1502858874 -429350060 -286203917 649214447 -531946012 -1298627907 -11036761 1728553202 -9295617 1596158889 -953646164 314928886 -1554720210 -714920593 -1429809686 271153232 -721104807 319896267 65115340 573039193 -280923978 329743541 162800723
REM
CELL 1.54180   50.00000   50.00000   50.00000   90.00000   90.00000   90.00000
LATT -1
SFAC C  
C      1  0.5148950000000  0.5083190000000  0.4638760000000 1.0
C      1  0.4617280000000  0.4801930000000  0.5346120000000 1.0
C      1  0.5005140000000  0.4527680000000  0.5410470000000 1.0
C      1  0.5488140000000  0.5005550000000  0.4962100000000 1.0
C      1  0.5063230000000  0.4787190000000  0.5510430000000 1.0
C      1  0.5382600000000  0.4901150000000  0.4702340000000 1.0
C      1  0.4805560000000  0.5269960000000  0.4984840000000 1.0
C      1  0.5223740000000  0.4405830000000  0.5313030000000 1.0
C      1  0.5439630000000  0.4469100000000  0.4877770000000 1.0
C      1  0.4768750000000  0.4809930000000  0.4479780000000 1.0
C      1  0.5034310000000  0.5100060000000  0.4938160000000 1.0
C      1  0.4873080000000  0.5059440000000  0.4516750000000 1.0
C      1  0.5278690000000  0.5326550000000  0.4546690000000 1.0
C      1  0.4781930000000  0.5392000000000  0.5253490000000 1.0
C      1  0.4710530000000  0.5283550000000  0.4599360000000 1.0
C      1  0.4355170000000  0.5080210000000  0.4982360000000 1.0
C      1  0.4808950000000  0.5693720000000  0.4948250000000 1.0
C      1  0.5393440000000  0.4547770000000  0.5145180000000 1.0
C      1  0.4994070000000  0.4837160000000  0.5025350000000 1.0
C      1  0.5430780000000  0.4629060000000  0.4679040000000 1.0
C      1  0.5448250000000  0.4834730000000  0.5196730000000 1.0
C      1  0.4889160000000  0.5496210000000  0.4760540000000 1.0
C      1  0.4688880000000  0.4429620000000  0.4792850000000 1.0
C      1  0.4910840000000  0.5219250000000  0.5441060000000 1.0
C      1  0.4752610000000  0.5668290000000  0.5202760000000 1.0
C      1  0.5466910000000  0.5289530000000  0.4977320000000 1.0
C      1  0.4826130000000  0.4950060000000  0.5491900000000 1.0
C      1  0.5152190000000  0.5541110000000  0.4670110000000 1.0
C      1  0.5416480000000  0.5448130000000  0.4750520000000 1.0
C      1  0.4556500000000  0.5210380000000  0.4837900000000 1.0
C      1  0.5289280000000  0.4938780000000  0.5413990000000 1.0
C      1  0.4437950000000  0.4941490000000  0.5188340000000 1.0
C      1  0.4691750000000  0.4410290000000  0.5047540000000 1.0
C      1  0.4713330000000  0.4575490000000  0.4568620000000 1.0
C      1  0.5191720000000  0.5206090000000  0.5382010000000 1.0
C      1  0.5234210000000  0.5303110000000  0.5123470000000 1.0
C      1  0.4729830000000  0.4526410000000  0.5294070000000 1.0
END
