TITL C-2681602-3310-12 308.082554817051 125000 -700.841044483267 0 0 98 (C1) n - 1
REM
REM in /nfs/bkarasulu/CARBON/AIRSS/Generating-Clusters/GAP-ML-2020/Only-C1/SD-CG/HFTN-CG
REM
REM
REM
REM
REM
REM ./C.cell (11c1c37f851c82e70ff6c80c92926a4b)
REM
REM compiler GCC version 9.2.1 20190827 (Red Hat 9.2.1-1)
REM options -cpp -mtune=generic -march=x86-64 -g -O0 -fpre-include=/usr/include/finclude/math-vector-fortran.h
REM seed -1025054361 858873715 -1254451531 -854942133 -307429321 -386731628 -482685341 1451100712 1775767990 179041481 -1667042809 1668272052 -1208367297 520319406 -1696572556 -685241825 -460400347 -1582381051 1380143143 712657508 -1335455883 835715471 -906157694 821041489 -189571118 1967772644 1282633556 -329413909 2018011423 396858010 -785899011 -331057054 -236859272
REM
CELL 1.54180   50.00000   50.00000   50.00000   90.00000   90.00000   90.00000
LATT -1
SFAC C  
C      1  0.4976450000000  0.4569910000000  0.4310760000000 1.0
C      1  0.4840040000000  0.5875760000000  0.4960390000000 1.0
C      1  0.4731380000000  0.4573920000000  0.4898770000000 1.0
C      1  0.5331530000000  0.4172790000000  0.4875800000000 1.0
C      1  0.4482270000000  0.5345400000000  0.4443290000000 1.0
C      1  0.5343420000000  0.4969260000000  0.4927410000000 1.0
C      1  0.5595750000000  0.4481670000000  0.4598560000000 1.0
C      1  0.5087840000000  0.5246620000000  0.5221940000000 1.0
C      1  0.4382940000000  0.4894150000000  0.4344390000000 1.0
C      1  0.5012580000000  0.5298290000000  0.4926320000000 1.0
C      1  0.4778910000000  0.5691730000000  0.4525930000000 1.0
C      1  0.4322510000000  0.5068430000000  0.5514990000000 1.0
C      1  0.5484260000000  0.5089890000000  0.5634720000000 1.0
C      1  0.4615120000000  0.4861870000000  0.4183470000000 1.0
C      1  0.4833450000000  0.5077400000000  0.5289660000000 1.0
C      1  0.5355490000000  0.5000860000000  0.4285330000000 1.0
C      1  0.4607480000000  0.4725270000000  0.5724600000000 1.0
C      1  0.4280640000000  0.4765030000000  0.4853270000000 1.0
C      1  0.4499830000000  0.5276070000000  0.5629930000000 1.0
C      1  0.4139230000000  0.5208220000000  0.4989300000000 1.0
C      1  0.4945510000000  0.5834790000000  0.4702100000000 1.0
C      1  0.5218900000000  0.4692220000000  0.4969060000000 1.0
C      1  0.5105300000000  0.4181590000000  0.4693180000000 1.0
C      1  0.4633530000000  0.5704950000000  0.5330840000000 1.0
C      1  0.5618980000000  0.4434960000000  0.5300190000000 1.0
C      1  0.5043150000000  0.5847460000000  0.5156890000000 1.0
C      1  0.4997350000000  0.5330650000000  0.5750460000000 1.0
C      1  0.5246320000000  0.4160510000000  0.5152450000000 1.0
C      1  0.5214540000000  0.5126590000000  0.5748090000000 1.0
C      1  0.5510490000000  0.5636730000000  0.5111820000000 1.0
C      1  0.5527410000000  0.4805020000000  0.5613140000000 1.0
C      1  0.4873020000000  0.4141450000000  0.4862610000000 1.0
C      1  0.4411420000000  0.5651360000000  0.4864420000000 1.0
C      1  0.4189680000000  0.5027710000000  0.4777370000000 1.0
C      1  0.4932640000000  0.4359000000000  0.5576520000000 1.0
C      1  0.5134340000000  0.4358280000000  0.4442670000000 1.0
C      1  0.5597870000000  0.5469220000000  0.4642540000000 1.0
C      1  0.5290400000000  0.5794290000000  0.5014340000000 1.0
C      1  0.5096860000000  0.4873640000000  0.5795410000000 1.0
C      1  0.5712390000000  0.5207860000000  0.4570310000000 1.0
C      1  0.5283720000000  0.5037790000000  0.5199350000000 1.0
C      1  0.4995230000000  0.4916480000000  0.4629820000000 1.0
C      1  0.4473430000000  0.4646790000000  0.4472950000000 1.0
C      1  0.5671520000000  0.5509700000000  0.4920110000000 1.0
C      1  0.5836650000000  0.4850520000000  0.4874880000000 1.0
C      1  0.4910250000000  0.5737900000000  0.5397030000000 1.0
C      1  0.4888300000000  0.4803300000000  0.5305820000000 1.0
C      1  0.5704470000000  0.4745420000000  0.4621800000000 1.0
C      1  0.4394560000000  0.4791220000000  0.5530780000000 1.0
C      1  0.4624620000000  0.4288030000000  0.4841400000000 1.0
C      1  0.5809890000000  0.4870150000000  0.5194090000000 1.0
C      1  0.4695870000000  0.4598990000000  0.4285580000000 1.0
C      1  0.5032140000000  0.5571090000000  0.5600240000000 1.0
C      1  0.5602480000000  0.4967040000000  0.4450920000000 1.0
C      1  0.4819480000000  0.4314470000000  0.5315870000000 1.0
C      1  0.4914080000000  0.5514090000000  0.4346610000000 1.0
C      1  0.5306390000000  0.5262180000000  0.4234730000000 1.0
C      1  0.4741050000000  0.5198400000000  0.4893840000000 1.0
C      1  0.4830500000000  0.5038600000000  0.4208060000000 1.0
C      1  0.4718810000000  0.4992540000000  0.4695000000000 1.0
C      1  0.4997890000000  0.4671290000000  0.4806520000000 1.0
C      1  0.5217350000000  0.4411230000000  0.5586100000000 1.0
C      1  0.5705810000000  0.4389560000000  0.5048520000000 1.0
C      1  0.5369200000000  0.5615670000000  0.4546930000000 1.0
C      1  0.4960990000000  0.4152470000000  0.5136270000000 1.0
C      1  0.4457070000000  0.5516670000000  0.5463640000000 1.0
C      1  0.5488650000000  0.5500500000000  0.5364200000000 1.0
C      1  0.4705500000000  0.4581970000000  0.5210030000000 1.0
C      1  0.4741600000000  0.5194560000000  0.5781760000000 1.0
C      1  0.5864820000000  0.5121810000000  0.4797660000000 1.0
C      1  0.4274670000000  0.4555690000000  0.5056600000000 1.0
C      1  0.4224220000000  0.5491050000000  0.5007840000000 1.0
C      1  0.5154260000000  0.4767110000000  0.5236470000000 1.0
C      1  0.4549950000000  0.4744750000000  0.4742110000000 1.0
C      1  0.4803680000000  0.4917310000000  0.5823070000000 1.0
C      1  0.4739780000000  0.5296260000000  0.4299810000000 1.0
C      1  0.5630670000000  0.5266060000000  0.5452330000000 1.0
C      1  0.4421690000000  0.4624210000000  0.5298180000000 1.0
C      1  0.4171310000000  0.5185500000000  0.5290880000000 1.0
C      1  0.5204240000000  0.5490350000000  0.4339840000000 1.0
C      1  0.5288640000000  0.4668780000000  0.5707710000000 1.0
C      1  0.5375060000000  0.4299400000000  0.5370990000000 1.0
C      1  0.5071140000000  0.4871160000000  0.4328830000000 1.0
C      1  0.4517510000000  0.5589880000000  0.4596110000000 1.0
C      1  0.4592170000000  0.5779580000000  0.5050950000000 1.0
C      1  0.4238440000000  0.5465250000000  0.5293760000000 1.0
C      1  0.5689730000000  0.4698580000000  0.5394330000000 1.0
C      1  0.5171920000000  0.5122810000000  0.4763250000000 1.0
C      1  0.4626220000000  0.5155600000000  0.5133860000000 1.0
C      1  0.5577990000000  0.4305480000000  0.4827010000000 1.0
C      1  0.4746700000000  0.4495120000000  0.5711140000000 1.0
C      1  0.4309060000000  0.5114500000000  0.4506140000000 1.0
C      1  0.4381420000000  0.4312130000000  0.4951330000000 1.0
C      1  0.5391580000000  0.4437210000000  0.4427630000000 1.0
C      1  0.5230230000000  0.5785060000000  0.4730190000000 1.0
C      1  0.5214230000000  0.5470320000000  0.5416780000000 1.0
C      1  0.5804650000000  0.5152590000000  0.5256280000000 1.0
C      1  0.5835240000000  0.5297020000000  0.5012790000000 1.0
END
