TITL C-26372-8616-3 -0.126176009295161 125000 -871.104461627975 0 0 125 (C1) n - 1
REM
REM in /rds/project/t2_vol4/rds-t2-cs072/BORA/CARBON/from-Arr/AIRSS/Generating-Clusters/GAP-ML-2020/Only-C1/SD-CG/HFTN-CG
REM
REM
REM
REM
REM
REM ./C.cell (11c1c37f851c82e70ff6c80c92926a4b)
REM AIRSS Version 0.9.1 bugfix July 2018 build 013d7b7c2542+ Fri, 06 Jul 2018 19:26:36 +0100
REM compiler GCC version 9.3.0
REM options -cpp -mtune=generic -march=x86-64 -g -O0
REM seed 848181319 359007619 -1262309932 2140877271 1201457777 -236286707 1225409899 -164797758 -1111048779 -1265734883 -255428686 1399539323 209382222 -2048865503 502010602 709597265 1692056794 -1997078495 -1194139129 -1287059539 -1936884731 668704291 2068942717 -2140084942 -1716095930 -1864999894 1731945687 1021060709 140961849 -888270079 1957312370 1395693753 1455113272
REM
CELL 1.54180   50.00000   50.00000   50.00000   90.00000   90.00000   90.00000
LATT -1
SFAC C  
C      1  0.5731190000000  0.5500480000000  0.4713620000000 1.0
C      1  0.5312530000000  0.4384730000000  0.5660910000000 1.0
C      1  0.5325750000000  0.5269510000000  0.5464210000000 1.0
C      1  0.4421270000000  0.4877540000000  0.4117630000000 1.0
C      1  0.5533360000000  0.5584070000000  0.5713330000000 1.0
C      1  0.4464790000000  0.4297490000000  0.5077830000000 1.0
C      1  0.5528110000000  0.5604490000000  0.4548760000000 1.0
C      1  0.4571910000000  0.4592590000000  0.4476740000000 1.0
C      1  0.4772480000000  0.4810240000000  0.4464670000000 1.0
C      1  0.5379470000000  0.5774910000000  0.4964980000000 1.0
C      1  0.5022470000000  0.5662500000000  0.5527120000000 1.0
C      1  0.4828450000000  0.4793970000000  0.4952280000000 1.0
C      1  0.4660120000000  0.5291030000000  0.5212000000000 1.0
C      1  0.4061160000000  0.5129740000000  0.4976040000000 1.0
C      1  0.4833160000000  0.4629710000000  0.5211730000000 1.0
C      1  0.4096480000000  0.5336890000000  0.5162140000000 1.0
C      1  0.5849440000000  0.5183010000000  0.5382730000000 1.0
C      1  0.5067340000000  0.5393440000000  0.5431540000000 1.0
C      1  0.4450440000000  0.5056270000000  0.5726410000000 1.0
C      1  0.4241120000000  0.5560400000000  0.5042330000000 1.0
C      1  0.4156050000000  0.4650490000000  0.4809380000000 1.0
C      1  0.4245420000000  0.4790230000000  0.5477030000000 1.0
C      1  0.4747560000000  0.5716220000000  0.5515490000000 1.0
C      1  0.5220290000000  0.4143410000000  0.4883170000000 1.0
C      1  0.5072910000000  0.4241190000000  0.5547520000000 1.0
C      1  0.5442580000000  0.4959490000000  0.4224880000000 1.0
C      1  0.5425570000000  0.4842430000000  0.5862250000000 1.0
C      1  0.4330450000000  0.5494840000000  0.4781200000000 1.0
C      1  0.5062760000000  0.4627430000000  0.4163660000000 1.0
C      1  0.5321210000000  0.5484280000000  0.4368190000000 1.0
C      1  0.4687210000000  0.4352360000000  0.5287720000000 1.0
C      1  0.4438050000000  0.5006890000000  0.4703980000000 1.0
C      1  0.4661560000000  0.4137110000000  0.4928530000000 1.0
C      1  0.4892180000000  0.5934160000000  0.4761560000000 1.0
C      1  0.4965180000000  0.4383280000000  0.4288870000000 1.0
C      1  0.4775840000000  0.4154750000000  0.4657840000000 1.0
C      1  0.5065720000000  0.5643030000000  0.4427240000000 1.0
C      1  0.4800380000000  0.5274100000000  0.4449700000000 1.0
C      1  0.5225070000000  0.5839950000000  0.5422050000000 1.0
C      1  0.5050460000000  0.5016680000000  0.5059330000000 1.0
C      1  0.5061400000000  0.4116470000000  0.4650810000000 1.0
C      1  0.4884460000000  0.5173130000000  0.5804100000000 1.0
C      1  0.5955070000000  0.5094560000000  0.4930440000000 1.0
C      1  0.5380360000000  0.5180180000000  0.4827550000000 1.0
C      1  0.5512030000000  0.4526390000000  0.4985680000000 1.0
C      1  0.4573980000000  0.5612110000000  0.4691710000000 1.0
C      1  0.5127060000000  0.5870380000000  0.4601180000000 1.0
C      1  0.5239280000000  0.4443510000000  0.4953980000000 1.0
C      1  0.4668820000000  0.5795250000000  0.5250540000000 1.0
C      1  0.4958950000000  0.4947940000000  0.5602520000000 1.0
C      1  0.5255050000000  0.4841720000000  0.5223360000000 1.0
C      1  0.4656010000000  0.4973510000000  0.4031480000000 1.0
C      1  0.4784420000000  0.5231210000000  0.4021040000000 1.0
C      1  0.3977340000000  0.5014860000000  0.4286340000000 1.0
C      1  0.4896390000000  0.4861360000000  0.4197310000000 1.0
C      1  0.4709810000000  0.5438290000000  0.4195600000000 1.0
C      1  0.5728730000000  0.5127440000000  0.5634690000000 1.0
C      1  0.4995140000000  0.4788940000000  0.4694230000000 1.0
C      1  0.5670310000000  0.4860690000000  0.5713680000000 1.0
C      1  0.4638790000000  0.5058150000000  0.4516110000000 1.0
C      1  0.5746340000000  0.5384820000000  0.5206900000000 1.0
C      1  0.5537330000000  0.4790770000000  0.5102830000000 1.0
C      1  0.5563080000000  0.4036040000000  0.5177900000000 1.0
C      1  0.4724710000000  0.4567070000000  0.5730820000000 1.0
C      1  0.4654300000000  0.5876600000000  0.4606450000000 1.0
C      1  0.4209320000000  0.5215100000000  0.4718690000000 1.0
C      1  0.5386990000000  0.5825320000000  0.4692510000000 1.0
C      1  0.5202640000000  0.4586390000000  0.4704500000000 1.0
C      1  0.4215630000000  0.4853790000000  0.4298290000000 1.0
C      1  0.4254720000000  0.4482560000000  0.5031460000000 1.0
C      1  0.5470200000000  0.5452460000000  0.5262960000000 1.0
C      1  0.4573260000000  0.5040460000000  0.5204390000000 1.0
C      1  0.5850430000000  0.5377640000000  0.4926540000000 1.0
C      1  0.4155740000000  0.4684950000000  0.5229520000000 1.0
C      1  0.4055840000000  0.4848550000000  0.5007590000000 1.0
C      1  0.4619820000000  0.5279590000000  0.5770000000000 1.0
C      1  0.5672270000000  0.4487390000000  0.4573650000000 1.0
C      1  0.4828680000000  0.5694740000000  0.4236950000000 1.0
C      1  0.5240140000000  0.4617710000000  0.5811080000000 1.0
C      1  0.5726070000000  0.4656990000000  0.5529550000000 1.0
C      1  0.5232390000000  0.4989010000000  0.5466820000000 1.0
C      1  0.4732790000000  0.4851380000000  0.5406180000000 1.0
C      1  0.5581400000000  0.4981890000000  0.4888900000000 1.0
C      1  0.5073960000000  0.4071760000000  0.5310380000000 1.0
C      1  0.5580340000000  0.4406900000000  0.5531540000000 1.0
C      1  0.4559480000000  0.5539170000000  0.5648140000000 1.0
C      1  0.4331540000000  0.5547450000000  0.5485430000000 1.0
C      1  0.5321720000000  0.5466890000000  0.4988270000000 1.0
C      1  0.5385240000000  0.4496200000000  0.4473310000000 1.0
C      1  0.4043300000000  0.5160620000000  0.4484430000000 1.0
C      1  0.4318070000000  0.4726640000000  0.4569890000000 1.0
C      1  0.5745520000000  0.4209190000000  0.5042060000000 1.0
C      1  0.4800070000000  0.4345200000000  0.5575450000000 1.0
C      1  0.5468770000000  0.5707340000000  0.5480950000000 1.0
C      1  0.5801790000000  0.4749600000000  0.4518770000000 1.0
C      1  0.5347720000000  0.5113760000000  0.5915790000000 1.0
C      1  0.5689590000000  0.4884960000000  0.4307790000000 1.0
C      1  0.5829770000000  0.4929300000000  0.4741790000000 1.0
C      1  0.5506910000000  0.5296370000000  0.5721870000000 1.0
C      1  0.4585090000000  0.4937100000000  0.4942530000000 1.0
C      1  0.4213310000000  0.5068310000000  0.5565380000000 1.0
C      1  0.4679610000000  0.5899890000000  0.4332870000000 1.0
C      1  0.5117930000000  0.4583210000000  0.5193760000000 1.0
C      1  0.5789350000000  0.4771760000000  0.5272590000000 1.0
C      1  0.4526120000000  0.4777570000000  0.5614880000000 1.0
C      1  0.4862140000000  0.5473160000000  0.4656960000000 1.0
C      1  0.4711430000000  0.4345880000000  0.4446850000000 1.0
C      1  0.5176540000000  0.5890420000000  0.5149550000000 1.0
C      1  0.5008530000000  0.5488890000000  0.4943470000000 1.0
C      1  0.4828240000000  0.4118940000000  0.5174270000000 1.0
C      1  0.4936490000000  0.5302540000000  0.5163310000000 1.0
C      1  0.5173320000000  0.4275820000000  0.4434280000000 1.0
C      1  0.5289360000000  0.5221330000000  0.4237410000000 1.0
C      1  0.5327280000000  0.4687660000000  0.4248170000000 1.0
C      1  0.5706840000000  0.4386180000000  0.4833750000000 1.0
C      1  0.5288710000000  0.4009720000000  0.5127320000000 1.0
C      1  0.4157060000000  0.5322520000000  0.5442420000000 1.0
C      1  0.4394480000000  0.5696990000000  0.5241370000000 1.0
C      1  0.5008790000000  0.5143090000000  0.4222100000000 1.0
C      1  0.5687070000000  0.4220650000000  0.5340640000000 1.0
C      1  0.5958810000000  0.4990590000000  0.5210720000000 1.0
C      1  0.5142920000000  0.5040750000000  0.4782200000000 1.0
C      1  0.5103410000000  0.5208870000000  0.5966060000000 1.0
C      1  0.4907340000000  0.5818580000000  0.5039140000000 1.0
C      1  0.4971060000000  0.4705630000000  0.5778710000000 1.0
END
