TITL C-2681977-3223-4 -1287.80017575016 125000 -291.268092017391 0 0 44 (C1) n - 1
REM
REM in /nfs/bkarasulu/CARBON/AIRSS/Generating-Clusters/GAP-ML-2020/Only-C1/SD-CG/HFTN-CG
REM
REM
REM
REM
REM
REM ./C.cell (11c1c37f851c82e70ff6c80c92926a4b)
REM
REM compiler GCC version 9.2.1 20190827 (Red Hat 9.2.1-1)
REM options -cpp -mtune=generic -march=x86-64 -g -O0 -fpre-include=/usr/include/finclude/math-vector-fortran.h
REM seed 990204685 623566008 -281019400 -1458463741 -648242745 -539098881 -1597529259 1692106608 227917323 430842567 -553350392 -2074616974 -1726647757 1601723648 1684350630 309045902 1344532404 753154643 694807136 -1777034338 1496052355 -372189209 1777083857 -2088054079 1523289932 -790653336 -765430520 718665605 -1715809616 1409101450 749644065 -1903945092 -1191326442
REM
CELL 1.54180   50.00000   50.00000   50.00000   90.00000   90.00000   90.00000
LATT -1
SFAC C  
C      1  0.4797870000000  0.5390040000000  0.5211780000000 1.0
C      1  0.5272270000000  0.5410150000000  0.5432710000000 1.0
C      1  0.4727100000000  0.4945820000000  0.4825550000000 1.0
C      1  0.5103680000000  0.4495540000000  0.5180360000000 1.0
C      1  0.5128960000000  0.4674780000000  0.4548600000000 1.0
C      1  0.4866190000000  0.4662770000000  0.5175390000000 1.0
C      1  0.5267360000000  0.5598660000000  0.4624240000000 1.0
C      1  0.5351370000000  0.4631250000000  0.4756820000000 1.0
C      1  0.5260160000000  0.5126020000000  0.4507940000000 1.0
C      1  0.5164970000000  0.5395140000000  0.4442110000000 1.0
C      1  0.5299960000000  0.4565570000000  0.5378950000000 1.0
C      1  0.5523640000000  0.5509560000000  0.4716680000000 1.0
C      1  0.4953360000000  0.4527910000000  0.4719510000000 1.0
C      1  0.5379850000000  0.5360360000000  0.4904460000000 1.0
C      1  0.5584330000000  0.4885440000000  0.5135770000000 1.0
C      1  0.4299780000000  0.4600350000000  0.5086030000000 1.0
C      1  0.4692700000000  0.4933950000000  0.5534910000000 1.0
C      1  0.5082300000000  0.4820510000000  0.5628810000000 1.0
C      1  0.4962230000000  0.4939930000000  0.5179180000000 1.0
C      1  0.4976480000000  0.5090150000000  0.4925540000000 1.0
C      1  0.5146090000000  0.5544640000000  0.4878460000000 1.0
C      1  0.5438550000000  0.4874300000000  0.4885380000000 1.0
C      1  0.4557300000000  0.5233350000000  0.5193790000000 1.0
C      1  0.4739580000000  0.4657550000000  0.4883250000000 1.0
C      1  0.5522620000000  0.5312590000000  0.5420000000000 1.0
C      1  0.4666730000000  0.4675870000000  0.5402640000000 1.0
C      1  0.5535600000000  0.4646170000000  0.5272930000000 1.0
C      1  0.5649780000000  0.5124280000000  0.5290520000000 1.0
C      1  0.4723850000000  0.5424450000000  0.4684800000000 1.0
C      1  0.5090980000000  0.4911320000000  0.4414850000000 1.0
C      1  0.4842550000000  0.5059600000000  0.4393030000000 1.0
C      1  0.5179610000000  0.4450530000000  0.4902940000000 1.0
C      1  0.5270330000000  0.5095170000000  0.4808320000000 1.0
C      1  0.4408600000000  0.4753790000000  0.5289570000000 1.0
C      1  0.4960840000000  0.5030150000000  0.5474630000000 1.0
C      1  0.4891660000000  0.5341380000000  0.4455850000000 1.0
C      1  0.5212580000000  0.4608560000000  0.5657600000000 1.0
C      1  0.4503100000000  0.5244830000000  0.4682510000000 1.0
C      1  0.5012950000000  0.5325780000000  0.5412840000000 1.0
C      1  0.4471290000000  0.5026170000000  0.5376200000000 1.0
C      1  0.4904810000000  0.5404740000000  0.4932140000000 1.0
C      1  0.4625840000000  0.5007570000000  0.4551190000000 1.0
C      1  0.4497410000000  0.5123930000000  0.4939130000000 1.0
C      1  0.4452790000000  0.4559390000000  0.4882090000000 1.0
END
