TITL C-2681594-4449-10 -72.5168037932031 125000 -326.812564117055 0 0 48 (C1) n - 1
REM
REM in /nfs/bkarasulu/CARBON/AIRSS/Generating-Clusters/GAP-ML-2020/Only-C1/SD-CG/HFTN-CG
REM
REM
REM
REM
REM
REM ./C.cell (11c1c37f851c82e70ff6c80c92926a4b)
REM
REM compiler GCC version 9.2.1 20190827 (Red Hat 9.2.1-1)
REM options -cpp -mtune=generic -march=x86-64 -g -O0 -fpre-include=/usr/include/finclude/math-vector-fortran.h
REM seed 765153339 997298952 -774661226 -1290091661 1959044525 668311563 190922876 -323637467 -357197613 1133607680 -22450272 -1907047708 421223416 835656356 -90078495 1798952929 1306966031 1102656932 415211451 -758996624 -200174198 266290161 1064612108 -1045511314 -870825685 -1901320810 -125076875 -636672286 -1859737431 -1931754279 850887578 -1598734886 -18485131
REM
CELL 1.54180   50.00000   50.00000   50.00000   90.00000   90.00000   90.00000
LATT -1
SFAC C  
C      1  0.5137760000000  0.5549030000000  0.4737810000000 1.0
C      1  0.4841610000000  0.4397280000000  0.5031070000000 1.0
C      1  0.5368340000000  0.5126710000000  0.4758920000000 1.0
C      1  0.5328620000000  0.4817470000000  0.5471580000000 1.0
C      1  0.4679320000000  0.5427600000000  0.4738230000000 1.0
C      1  0.5596440000000  0.4827370000000  0.5065310000000 1.0
C      1  0.4473690000000  0.5316670000000  0.4555650000000 1.0
C      1  0.4896010000000  0.5509390000000  0.5162400000000 1.0
C      1  0.5093920000000  0.5132040000000  0.4924380000000 1.0
C      1  0.4401800000000  0.4624930000000  0.5289930000000 1.0
C      1  0.5049640000000  0.4889680000000  0.5075680000000 1.0
C      1  0.4910990000000  0.5009690000000  0.5537860000000 1.0
C      1  0.4949600000000  0.4819380000000  0.4453340000000 1.0
C      1  0.4431280000000  0.5366910000000  0.5180910000000 1.0
C      1  0.4757530000000  0.4855380000000  0.5117920000000 1.0
C      1  0.4864070000000  0.5093680000000  0.4450230000000 1.0
C      1  0.4836950000000  0.5144360000000  0.4771060000000 1.0
C      1  0.4695860000000  0.5024940000000  0.5353090000000 1.0
C      1  0.4636880000000  0.5488460000000  0.5043880000000 1.0
C      1  0.4322190000000  0.4868390000000  0.5319730000000 1.0
C      1  0.5105950000000  0.5429650000000  0.4992910000000 1.0
C      1  0.5355390000000  0.5101130000000  0.5465250000000 1.0
C      1  0.5098300000000  0.5218870000000  0.5513090000000 1.0
C      1  0.4903480000000  0.5548260000000  0.4590390000000 1.0
C      1  0.5036720000000  0.5329020000000  0.4428170000000 1.0
C      1  0.5416810000000  0.4862900000000  0.4631500000000 1.0
C      1  0.4521100000000  0.4845690000000  0.4622190000000 1.0
C      1  0.4425050000000  0.5134600000000  0.5329480000000 1.0
C      1  0.5525770000000  0.5244250000000  0.5271850000000 1.0
C      1  0.5299400000000  0.5615330000000  0.5410180000000 1.0
C      1  0.4550070000000  0.5086200000000  0.4448270000000 1.0
C      1  0.5054800000000  0.4758680000000  0.5530990000000 1.0
C      1  0.5199890000000  0.4714500000000  0.4513780000000 1.0
C      1  0.4747030000000  0.4673150000000  0.4605190000000 1.0
C      1  0.5325620000000  0.4452880000000  0.5145150000000 1.0
C      1  0.4929100000000  0.4542440000000  0.5416450000000 1.0
C      1  0.5373820000000  0.4465880000000  0.4866050000000 1.0
C      1  0.4650540000000  0.4940910000000  0.4858740000000 1.0
C      1  0.4886060000000  0.4466720000000  0.4763760000000 1.0
C      1  0.5552280000000  0.5104540000000  0.5024930000000 1.0
C      1  0.4686710000000  0.4583450000000  0.5220640000000 1.0
C      1  0.5044590000000  0.5485190000000  0.5402460000000 1.0
C      1  0.5527260000000  0.5524280000000  0.5334860000000 1.0
C      1  0.5541610000000  0.4691320000000  0.4818560000000 1.0
C      1  0.5467000000000  0.4673210000000  0.5274330000000 1.0
C      1  0.5160150000000  0.4478760000000  0.4679370000000 1.0
C      1  0.5065050000000  0.4390910000000  0.5217090000000 1.0
C      1  0.5277960000000  0.5347960000000  0.4585380000000 1.0
END
