TITL C-260526-2507-1 -73.1294754201284 125000 -505.940940716806 0 0 75 (C1) n - 1
REM
REM in /rds/project/t2_vol4/rds-t2-cs072/BORA/CARBON/from-Arr/AIRSS/Generating-Clusters/GAP-ML-2020/Only-C1/SD-CG/HFTN-CG
REM
REM
REM
REM
REM
REM ./C.cell (11c1c37f851c82e70ff6c80c92926a4b)
REM AIRSS Version 0.9.1 bugfix July 2018 build 013d7b7c2542+ Fri, 06 Jul 2018 19:26:36 +0100
REM compiler GCC version 9.3.0
REM options -cpp -mtune=generic -march=x86-64 -g -O0
REM seed 482510095 -313034850 -2110480101 1356851987 559255267 -1711716245 -105784382 -806939263 1360023090 2094707937 2056770693 206071903 -924106113 -962710397 -595494461 2125540151 -48468661 -1879842034 -595425670 -1403728423 -1504054208 1113833430 -1241599075 410543141 -505269056 -48607036 1489593033 20195708 177863768 -1993178507 2121920067 -1982467237 2022405781
REM
CELL 1.54180   50.00000   50.00000   50.00000   90.00000   90.00000   90.00000
LATT -1
SFAC C  
C      1  0.5170050000000  0.5128420000000  0.4776240000000 1.0
C      1  0.4804970000000  0.4211770000000  0.5003970000000 1.0
C      1  0.4331920000000  0.5249350000000  0.4670290000000 1.0
C      1  0.4645280000000  0.5667670000000  0.4943220000000 1.0
C      1  0.5049780000000  0.5389980000000  0.4857640000000 1.0
C      1  0.5247220000000  0.5630600000000  0.4859700000000 1.0
C      1  0.4741660000000  0.4426210000000  0.4326390000000 1.0
C      1  0.5439260000000  0.4734350000000  0.5446490000000 1.0
C      1  0.5576260000000  0.4580410000000  0.4699510000000 1.0
C      1  0.5653780000000  0.4810750000000  0.5230380000000 1.0
C      1  0.5100270000000  0.4145100000000  0.5462570000000 1.0
C      1  0.4831600000000  0.5849600000000  0.5056610000000 1.0
C      1  0.5094840000000  0.4395780000000  0.4712420000000 1.0
C      1  0.5220180000000  0.5428100000000  0.5594000000000 1.0
C      1  0.5402450000000  0.5208980000000  0.5540110000000 1.0
C      1  0.4748210000000  0.5578080000000  0.5466730000000 1.0
C      1  0.4669550000000  0.5620300000000  0.4657460000000 1.0
C      1  0.4576720000000  0.4872320000000  0.4515820000000 1.0
C      1  0.5338450000000  0.5594330000000  0.5390540000000 1.0
C      1  0.4382400000000  0.5084730000000  0.5091420000000 1.0
C      1  0.5511670000000  0.5370280000000  0.5309370000000 1.0
C      1  0.4531180000000  0.5405160000000  0.4537790000000 1.0
C      1  0.5461320000000  0.4940700000000  0.4488750000000 1.0
C      1  0.5614300000000  0.5003060000000  0.4999000000000 1.0
C      1  0.4351660000000  0.4947620000000  0.4660700000000 1.0
C      1  0.4352010000000  0.4834490000000  0.4931730000000 1.0
C      1  0.5083700000000  0.4243080000000  0.4976940000000 1.0
C      1  0.4511020000000  0.4585360000000  0.5007900000000 1.0
C      1  0.5018870000000  0.4847240000000  0.4382220000000 1.0
C      1  0.5310750000000  0.4996590000000  0.4991250000000 1.0
C      1  0.5503660000000  0.5477020000000  0.4839290000000 1.0
C      1  0.4421890000000  0.5547510000000  0.5088320000000 1.0
C      1  0.5333950000000  0.4503750000000  0.4561320000000 1.0
C      1  0.5009430000000  0.4668200000000  0.4871140000000 1.0
C      1  0.5664800000000  0.4532770000000  0.5177550000000 1.0
C      1  0.4832780000000  0.5395180000000  0.5033700000000 1.0
C      1  0.5510070000000  0.4519490000000  0.4955730000000 1.0
C      1  0.5115980000000  0.5016900000000  0.5219550000000 1.0
C      1  0.4938970000000  0.5420200000000  0.5620810000000 1.0
C      1  0.5596110000000  0.5299480000000  0.5042210000000 1.0
C      1  0.4755400000000  0.4698160000000  0.4368190000000 1.0
C      1  0.5286490000000  0.4727450000000  0.4399290000000 1.0
C      1  0.4876140000000  0.5156280000000  0.5657480000000 1.0
C      1  0.5249410000000  0.4241530000000  0.5252540000000 1.0
C      1  0.5306360000000  0.5185440000000  0.4494110000000 1.0
C      1  0.4876340000000  0.5790200000000  0.5336230000000 1.0
C      1  0.5165280000000  0.5790340000000  0.5295400000000 1.0
C      1  0.4988080000000  0.4907730000000  0.4693340000000 1.0
C      1  0.4819810000000  0.5276890000000  0.4462810000000 1.0
C      1  0.4886770000000  0.4310080000000  0.5441730000000 1.0
C      1  0.5193280000000  0.4717250000000  0.5299650000000 1.0
C      1  0.5257820000000  0.4698020000000  0.5012000000000 1.0
C      1  0.4511650000000  0.5454160000000  0.5347790000000 1.0
C      1  0.4658810000000  0.4362940000000  0.4818730000000 1.0
C      1  0.5124630000000  0.5838690000000  0.5013130000000 1.0
C      1  0.5329820000000  0.4939220000000  0.5626790000000 1.0
C      1  0.4828260000000  0.4368730000000  0.4583590000000 1.0
C      1  0.4803800000000  0.4687430000000  0.5096160000000 1.0
C      1  0.4464920000000  0.5169450000000  0.5369060000000 1.0
C      1  0.5458560000000  0.4438280000000  0.5360300000000 1.0
C      1  0.4701120000000  0.5023040000000  0.5455880000000 1.0
C      1  0.4677130000000  0.4235460000000  0.5260780000000 1.0
C      1  0.5208900000000  0.5628290000000  0.4561850000000 1.0
C      1  0.5421480000000  0.5440150000000  0.4551330000000 1.0
C      1  0.5046470000000  0.4934850000000  0.5704710000000 1.0
C      1  0.4938010000000  0.5520790000000  0.4585640000000 1.0
C      1  0.4927480000000  0.4603280000000  0.5374460000000 1.0
C      1  0.5043020000000  0.5136830000000  0.4332670000000 1.0
C      1  0.4744980000000  0.5059260000000  0.4674840000000 1.0
C      1  0.4689290000000  0.5152110000000  0.4963160000000 1.0
C      1  0.4832170000000  0.4979800000000  0.5157010000000 1.0
C      1  0.4459300000000  0.4399850000000  0.5222240000000 1.0
C      1  0.4309250000000  0.5320210000000  0.4944910000000 1.0
C      1  0.4835480000000  0.4783010000000  0.5580140000000 1.0
C      1  0.5625330000000  0.4863920000000  0.4705270000000 1.0
END
