TITL C-260545-2423-6 -0.149827398709371 125000 -624.779681507167 0 0 89 (C1) n - 1
REM
REM in /rds/project/t2_vol4/rds-t2-cs072/BORA/CARBON/from-Arr/AIRSS/Generating-Clusters/GAP-ML-2020/Only-C1/SD-CG/HFTN-CG
REM
REM
REM
REM
REM
REM ./C.cell (11c1c37f851c82e70ff6c80c92926a4b)
REM AIRSS Version 0.9.1 bugfix July 2018 build 013d7b7c2542+ Fri, 06 Jul 2018 19:26:36 +0100
REM compiler GCC version 9.3.0
REM options -cpp -mtune=generic -march=x86-64 -g -O0
REM seed 586046781 1777606547 820995808 -1411478637 -469740225 90837092 -261371212 516741704 611805172 -1795001956 -1843735669 -1989732374 1185468889 734492164 -198712103 232809138 -1216712589 1571855732 1995447237 -1388897750 525589377 -1665275967 1491893372 -725198758 2109531583 944429432 729473447 -233443278 -1068184008 1365673621 855211470 126939686 -535752505
REM
CELL 1.54180   50.00000   50.00000   50.00000   90.00000   90.00000   90.00000
LATT -1
SFAC C  
C      1  0.5218830000000  0.5528200000000  0.4479050000000 1.0
C      1  0.4460310000000  0.5573270000000  0.4888690000000 1.0
C      1  0.4947720000000  0.5197000000000  0.4197810000000 1.0
C      1  0.4889970000000  0.5804960000000  0.4756660000000 1.0
C      1  0.4633690000000  0.4432020000000  0.4546560000000 1.0
C      1  0.4283210000000  0.5386400000000  0.4783910000000 1.0
C      1  0.5202810000000  0.4684870000000  0.4873320000000 1.0
C      1  0.5638210000000  0.4914690000000  0.5493430000000 1.0
C      1  0.4664880000000  0.4818140000000  0.4210660000000 1.0
C      1  0.4490140000000  0.5226210000000  0.5280740000000 1.0
C      1  0.4924560000000  0.5024060000000  0.4687250000000 1.0
C      1  0.5621960000000  0.5368130000000  0.4788680000000 1.0
C      1  0.5014030000000  0.5350720000000  0.4921800000000 1.0
C      1  0.5267930000000  0.5658650000000  0.5671160000000 1.0
C      1  0.4935400000000  0.4762460000000  0.4765730000000 1.0
C      1  0.5110710000000  0.4958950000000  0.4173430000000 1.0
C      1  0.5517850000000  0.5058730000000  0.4441210000000 1.0
C      1  0.4867760000000  0.4252550000000  0.4919070000000 1.0
C      1  0.5048270000000  0.4513300000000  0.4296510000000 1.0
C      1  0.5192910000000  0.5016070000000  0.5199440000000 1.0
C      1  0.4804910000000  0.4519720000000  0.5596090000000 1.0
C      1  0.5077950000000  0.4771600000000  0.5307840000000 1.0
C      1  0.5299200000000  0.4595110000000  0.4403390000000 1.0
C      1  0.5303100000000  0.4583490000000  0.5735730000000 1.0
C      1  0.5292950000000  0.4962830000000  0.4941550000000 1.0
C      1  0.5380670000000  0.4253400000000  0.5463450000000 1.0
C      1  0.4978570000000  0.5448060000000  0.4340540000000 1.0
C      1  0.5250760000000  0.5788760000000  0.4939620000000 1.0
C      1  0.4615340000000  0.4421230000000  0.4850980000000 1.0
C      1  0.4229640000000  0.5009550000000  0.4623900000000 1.0
C      1  0.4732840000000  0.4693080000000  0.4943040000000 1.0
C      1  0.4899000000000  0.4352570000000  0.4479530000000 1.0
C      1  0.5203660000000  0.4290170000000  0.5247460000000 1.0
C      1  0.4709560000000  0.5523080000000  0.4435220000000 1.0
C      1  0.4509300000000  0.4646640000000  0.4396440000000 1.0
C      1  0.4934210000000  0.4224930000000  0.5196180000000 1.0
C      1  0.5590670000000  0.5478850000000  0.5056460000000 1.0
C      1  0.4985640000000  0.5879110000000  0.5018120000000 1.0
C      1  0.4571520000000  0.5191410000000  0.5575510000000 1.0
C      1  0.5804010000000  0.5077110000000  0.5097670000000 1.0
C      1  0.4285350000000  0.5031010000000  0.5148780000000 1.0
C      1  0.5581590000000  0.4581200000000  0.5141170000000 1.0
C      1  0.4576440000000  0.4683380000000  0.5635860000000 1.0
C      1  0.5349260000000  0.4872010000000  0.4307860000000 1.0
C      1  0.5051220000000  0.4700940000000  0.5628350000000 1.0
C      1  0.4655050000000  0.4948690000000  0.5693390000000 1.0
C      1  0.5159700000000  0.5726830000000  0.4669550000000 1.0
C      1  0.5301520000000  0.4298880000000  0.5729020000000 1.0
C      1  0.5717900000000  0.4945900000000  0.4615210000000 1.0
C      1  0.5323950000000  0.4480380000000  0.4684940000000 1.0
C      1  0.4307950000000  0.5275980000000  0.4519520000000 1.0
C      1  0.5303030000000  0.5360630000000  0.5600050000000 1.0
C      1  0.5191850000000  0.5169030000000  0.4760420000000 1.0
C      1  0.5689820000000  0.5292410000000  0.5252090000000 1.0
C      1  0.4776380000000  0.5623620000000  0.5586810000000 1.0
C      1  0.5408090000000  0.5311060000000  0.4578480000000 1.0
C      1  0.5026400000000  0.5262470000000  0.5201870000000 1.0
C      1  0.5185470000000  0.5487360000000  0.5336340000000 1.0
C      1  0.4787090000000  0.5362420000000  0.5655700000000 1.0
C      1  0.5036140000000  0.5223270000000  0.5705130000000 1.0
C      1  0.5555410000000  0.4661770000000  0.5599720000000 1.0
C      1  0.4930770000000  0.4734580000000  0.4167320000000 1.0
C      1  0.5058710000000  0.4290820000000  0.4705010000000 1.0
C      1  0.4208980000000  0.5128820000000  0.4897620000000 1.0
C      1  0.4499320000000  0.5523560000000  0.5173830000000 1.0
C      1  0.4526420000000  0.5318900000000  0.4349310000000 1.0
C      1  0.4890120000000  0.5863650000000  0.5273260000000 1.0
C      1  0.5597340000000  0.4510770000000  0.4836710000000 1.0
C      1  0.4375260000000  0.4617750000000  0.5444640000000 1.0
C      1  0.4939510000000  0.4955410000000  0.5741220000000 1.0
C      1  0.4657460000000  0.5670440000000  0.4678950000000 1.0
C      1  0.5782020000000  0.5140110000000  0.4818830000000 1.0
C      1  0.4478690000000  0.4377250000000  0.5308990000000 1.0
C      1  0.4395770000000  0.4470010000000  0.5055540000000 1.0
C      1  0.5044020000000  0.5720300000000  0.5501050000000 1.0
C      1  0.5731000000000  0.4839330000000  0.5229700000000 1.0
C      1  0.5256290000000  0.4566810000000  0.5151460000000 1.0
C      1  0.4743540000000  0.4323980000000  0.5391100000000 1.0
C      1  0.5595520000000  0.4451050000000  0.5406770000000 1.0
C      1  0.4673460000000  0.5111520000000  0.4210090000000 1.0
C      1  0.5740920000000  0.4685920000000  0.4689930000000 1.0
C      1  0.5369010000000  0.5623590000000  0.5130420000000 1.0
C      1  0.4297000000000  0.4744850000000  0.5200640000000 1.0
C      1  0.4797940000000  0.4815240000000  0.5191650000000 1.0
C      1  0.4768530000000  0.5187840000000  0.4859740000000 1.0
C      1  0.4306190000000  0.4778160000000  0.4519080000000 1.0
C      1  0.4750410000000  0.5110890000000  0.5155230000000 1.0
C      1  0.5560390000000  0.5203190000000  0.5499570000000 1.0
C      1  0.4651160000000  0.5695990000000  0.5338250000000 1.0
END
