TITL C-260500-6829-6 3.98018399448655 125000 -212.051353598216 0 0 32 (C1) n - 1
REM
REM in /rds/project/t2_vol4/rds-t2-cs072/BORA/CARBON/from-Arr/AIRSS/Generating-Clusters/GAP-ML-2020/Only-C1/SD-CG/HFTN-CG
REM
REM
REM
REM
REM
REM ./C.cell (11c1c37f851c82e70ff6c80c92926a4b)
REM AIRSS Version 0.9.1 bugfix July 2018 build 013d7b7c2542+ Fri, 06 Jul 2018 19:26:36 +0100
REM compiler GCC version 9.3.0
REM options -cpp -mtune=generic -march=x86-64 -g -O0
REM seed 979024753 -463864531 1190957378 1501996337 1199487518 628833683 355151053 -1619377107 -2042274018 662924272 996599099 -1254837723 -1623004168 -1175454589 -1663883440 1036710371 -806422752 -693255999 1132972143 -1371944082 -294917374 -1084773379 -1371029450 -1732362520 2104636128 1149470632 -300520824 -1221762316 -527072303 -203003067 1066572600 -19591488 -752780237
REM
CELL 1.54180   50.00000   50.00000   50.00000   90.00000   90.00000   90.00000
LATT -1
SFAC C  
C      1  0.4683630000000  0.4897920000000  0.4633140000000 1.0
C      1  0.4525100000000  0.5283910000000  0.4882890000000 1.0
C      1  0.4867470000000  0.4750490000000  0.4491790000000 1.0
C      1  0.5352550000000  0.4847700000000  0.4845660000000 1.0
C      1  0.5187660000000  0.4421480000000  0.4996320000000 1.0
C      1  0.5512170000000  0.5174040000000  0.5426290000000 1.0
C      1  0.5080810000000  0.4462870000000  0.5217680000000 1.0
C      1  0.5301860000000  0.4676500000000  0.4312160000000 1.0
C      1  0.5111970000000  0.4888670000000  0.5432270000000 1.0
C      1  0.4707770000000  0.5138980000000  0.5536840000000 1.0
C      1  0.4531220000000  0.4851000000000  0.5104010000000 1.0
C      1  0.5363190000000  0.5362760000000  0.5292120000000 1.0
C      1  0.4624490000000  0.5384550000000  0.5137910000000 1.0
C      1  0.4876860000000  0.5043290000000  0.4495640000000 1.0
C      1  0.4939660000000  0.5401690000000  0.4801020000000 1.0
C      1  0.5239830000000  0.4596380000000  0.4781310000000 1.0
C      1  0.4948430000000  0.4663960000000  0.5358080000000 1.0
C      1  0.4534640000000  0.5261540000000  0.5371490000000 1.0
C      1  0.5075390000000  0.5213590000000  0.4630900000000 1.0
C      1  0.4527330000000  0.4960980000000  0.5387460000000 1.0
C      1  0.5346970000000  0.4915550000000  0.4401230000000 1.0
C      1  0.5114560000000  0.4612290000000  0.4518390000000 1.0
C      1  0.4669190000000  0.5440340000000  0.4704280000000 1.0
C      1  0.5317720000000  0.5064610000000  0.4635550000000 1.0
C      1  0.4904130000000  0.5429240000000  0.5096640000000 1.0
C      1  0.5082390000000  0.5360620000000  0.5307970000000 1.0
C      1  0.4525490000000  0.4990810000000  0.4858080000000 1.0
C      1  0.5382770000000  0.4903230000000  0.5361520000000 1.0
C      1  0.5552820000000  0.5214670000000  0.5129750000000 1.0
C      1  0.4983570000000  0.5139330000000  0.5469890000000 1.0
C      1  0.5457430000000  0.4923930000000  0.5087000000000 1.0
C      1  0.4670920000000  0.4723060000000  0.5294730000000 1.0
END
