TITL C-260544-2395-8 -0.0385200386651912 125000 -411.556358526106 0 0 61 (C1) n - 1
REM
REM in /rds/project/t2_vol4/rds-t2-cs072/BORA/CARBON/from-Arr/AIRSS/Generating-Clusters/GAP-ML-2020/Only-C1/SD-CG/HFTN-CG
REM
REM
REM
REM
REM
REM ./C.cell (11c1c37f851c82e70ff6c80c92926a4b)
REM AIRSS Version 0.9.1 bugfix July 2018 build 013d7b7c2542+ Fri, 06 Jul 2018 19:26:36 +0100
REM compiler GCC version 9.3.0
REM options -cpp -mtune=generic -march=x86-64 -g -O0
REM seed -925494587 -1089701677 -883630999 1059011076 -1113621699 -404421586 -1527558682 2121615726 -1953641741 -2090607081 2075634738 -173313658 123921945 -384568623 97850667 -910617505 1304003642 826507086 1372353623 1029234511 792526216 -2074662010 1203238862 158539339 -2134459354 -1324433776 1122669676 -908762785 714591321 1854567211 -1957346497 -211055858 -374878699
REM
CELL 1.54180   50.00000   50.00000   50.00000   90.00000   90.00000   90.00000
LATT -1
SFAC C  
C      1  0.5287550000000  0.5324580000000  0.5480660000000 1.0
C      1  0.5464960000000  0.4477550000000  0.5199480000000 1.0
C      1  0.5130130000000  0.5090850000000  0.5568350000000 1.0
C      1  0.4952660000000  0.5438140000000  0.4560200000000 1.0
C      1  0.5317170000000  0.5137280000000  0.4455910000000 1.0
C      1  0.5347290000000  0.4876040000000  0.4329400000000 1.0
C      1  0.5355700000000  0.4421020000000  0.5440310000000 1.0
C      1  0.4659460000000  0.4788510000000  0.4576550000000 1.0
C      1  0.4928230000000  0.4579820000000  0.5166420000000 1.0
C      1  0.5509340000000  0.5330800000000  0.5077290000000 1.0
C      1  0.4921170000000  0.4581450000000  0.5463460000000 1.0
C      1  0.5720380000000  0.4788500000000  0.4958330000000 1.0
C      1  0.4581670000000  0.5329960000000  0.4802960000000 1.0
C      1  0.4667770000000  0.4687740000000  0.5550350000000 1.0
C      1  0.4841940000000  0.4887290000000  0.4813650000000 1.0
C      1  0.4784930000000  0.5053980000000  0.5186050000000 1.0
C      1  0.4949750000000  0.5081710000000  0.4224230000000 1.0
C      1  0.4346980000000  0.5050700000000  0.5126170000000 1.0
C      1  0.4817520000000  0.5169190000000  0.4915820000000 1.0
C      1  0.4333920000000  0.5198780000000  0.4877490000000 1.0
C      1  0.4636990000000  0.4974150000000  0.5565170000000 1.0
C      1  0.5194260000000  0.4597930000000  0.5564590000000 1.0
C      1  0.4329810000000  0.4555880000000  0.5212800000000 1.0
C      1  0.4395850000000  0.4819270000000  0.4716590000000 1.0
C      1  0.4967600000000  0.4422920000000  0.4710240000000 1.0
C      1  0.5149360000000  0.4894630000000  0.4139180000000 1.0
C      1  0.4669290000000  0.5586040000000  0.4907960000000 1.0
C      1  0.5248600000000  0.4577860000000  0.4720700000000 1.0
C      1  0.4908440000000  0.5657670000000  0.4754170000000 1.0
C      1  0.4420140000000  0.4769580000000  0.5028640000000 1.0
C      1  0.4719380000000  0.4774240000000  0.5060120000000 1.0
C      1  0.5028770000000  0.4365940000000  0.4987580000000 1.0
C      1  0.4610940000000  0.5426890000000  0.5402000000000 1.0
C      1  0.4716400000000  0.5596410000000  0.5192760000000 1.0
C      1  0.5081460000000  0.5304960000000  0.4836760000000 1.0
C      1  0.5260650000000  0.5490040000000  0.5031350000000 1.0
C      1  0.5530760000000  0.4929430000000  0.5401370000000 1.0
C      1  0.4770590000000  0.5398640000000  0.5626140000000 1.0
C      1  0.4242840000000  0.5036970000000  0.4666160000000 1.0
C      1  0.5106110000000  0.5732120000000  0.4951620000000 1.0
C      1  0.4444350000000  0.4552300000000  0.5442820000000 1.0
C      1  0.5177270000000  0.5525390000000  0.5318530000000 1.0
C      1  0.5287090000000  0.5103040000000  0.4743450000000 1.0
C      1  0.5052580000000  0.5023780000000  0.5272940000000 1.0
C      1  0.5153890000000  0.4804800000000  0.5124960000000 1.0
C      1  0.5759210000000  0.5001870000000  0.4773900000000 1.0
C      1  0.4697420000000  0.5292100000000  0.4531630000000 1.0
C      1  0.4721470000000  0.5042900000000  0.4393500000000 1.0
C      1  0.5139470000000  0.4840290000000  0.4833340000000 1.0
C      1  0.5552930000000  0.5176390000000  0.4850820000000 1.0
C      1  0.5312350000000  0.4410050000000  0.4964110000000 1.0
C      1  0.4980190000000  0.5708970000000  0.5226650000000 1.0
C      1  0.4526750000000  0.5138300000000  0.5340480000000 1.0
C      1  0.5625870000000  0.4728360000000  0.5208980000000 1.0
C      1  0.5670470000000  0.4752750000000  0.4674020000000 1.0
C      1  0.4855180000000  0.5140790000000  0.5671060000000 1.0
C      1  0.5508670000000  0.5209910000000  0.5339040000000 1.0
C      1  0.5110120000000  0.5305330000000  0.4357480000000 1.0
C      1  0.4750320000000  0.4504530000000  0.4576400000000 1.0
C      1  0.5449320000000  0.4670010000000  0.4520580000000 1.0
C      1  0.5318350000000  0.4862660000000  0.5586250000000 1.0
END
