TITL C-2681594-4449-13 -0.0881656679035383 125000 -406.070389590886 0 0 58 (C1) n - 1
REM
REM in /nfs/bkarasulu/CARBON/AIRSS/Generating-Clusters/GAP-ML-2020/Only-C1/SD-CG/HFTN-CG
REM
REM
REM
REM
REM
REM ./C.cell (11c1c37f851c82e70ff6c80c92926a4b)
REM
REM compiler GCC version 9.2.1 20190827 (Red Hat 9.2.1-1)
REM options -cpp -mtune=generic -march=x86-64 -g -O0 -fpre-include=/usr/include/finclude/math-vector-fortran.h
REM seed 1054953346 -1528717112 2074676342 1978451735 1419797759 697399978 7484828 1332308595 493929234 1690882007 -1396576692 -1670493473 1965469374 1320191486 -634906573 1159652733 443185771 -198373127 -214008271 -1627111374 -1214575500 -720297544 -1979437125 1875691745 -1578221857 406350267 2064162835 1233774101 1682957889 673489616 2085759683 -1242288472 1530567006
REM
CELL 1.54180   50.00000   50.00000   50.00000   90.00000   90.00000   90.00000
LATT -1
SFAC C  
C      1  0.5546460000000  0.5163340000000  0.5405770000000 1.0
C      1  0.4543960000000  0.5458960000000  0.5116130000000 1.0
C      1  0.5190450000000  0.4341700000000  0.5034630000000 1.0
C      1  0.4915590000000  0.5091330000000  0.4911890000000 1.0
C      1  0.4936460000000  0.4813950000000  0.4944910000000 1.0
C      1  0.4790100000000  0.5400630000000  0.5501050000000 1.0
C      1  0.5224430000000  0.4574200000000  0.4581040000000 1.0
C      1  0.5460140000000  0.4735540000000  0.4656590000000 1.0
C      1  0.5016500000000  0.4279110000000  0.5504800000000 1.0
C      1  0.5208420000000  0.5263930000000  0.4366000000000 1.0
C      1  0.4582810000000  0.4853700000000  0.5499440000000 1.0
C      1  0.4573540000000  0.5300700000000  0.4641600000000 1.0
C      1  0.5399390000000  0.5271780000000  0.4593590000000 1.0
C      1  0.4551910000000  0.5319780000000  0.5362670000000 1.0
C      1  0.5006430000000  0.5599000000000  0.4447570000000 1.0
C      1  0.4597930000000  0.4314270000000  0.4564840000000 1.0
C      1  0.4896550000000  0.5213350000000  0.5681030000000 1.0
C      1  0.4858600000000  0.4848860000000  0.4348250000000 1.0
C      1  0.4404280000000  0.5021360000000  0.5038070000000 1.0
C      1  0.5066020000000  0.4987610000000  0.5098410000000 1.0
C      1  0.4570880000000  0.4861410000000  0.4373090000000 1.0
C      1  0.4421600000000  0.4837780000000  0.4604820000000 1.0
C      1  0.5668660000000  0.5056910000000  0.4942140000000 1.0
C      1  0.5128510000000  0.5665340000000  0.4705770000000 1.0
C      1  0.5698030000000  0.4801710000000  0.5054100000000 1.0
C      1  0.5489690000000  0.4885770000000  0.5487080000000 1.0
C      1  0.4856510000000  0.5199760000000  0.4664070000000 1.0
C      1  0.4699790000000  0.4614030000000  0.4930210000000 1.0
C      1  0.4464820000000  0.5048230000000  0.5322380000000 1.0
C      1  0.5254780000000  0.4902930000000  0.5672230000000 1.0
C      1  0.5001940000000  0.4756280000000  0.5706930000000 1.0
C      1  0.5345510000000  0.5339450000000  0.5512010000000 1.0
C      1  0.5181150000000  0.5186070000000  0.5684200000000 1.0
C      1  0.4446650000000  0.5097700000000  0.4470770000000 1.0
C      1  0.4969620000000  0.4627130000000  0.4465020000000 1.0
C      1  0.5243860000000  0.5514600000000  0.5307100000000 1.0
C      1  0.4784320000000  0.4948630000000  0.5683540000000 1.0
C      1  0.4782710000000  0.5621250000000  0.5093850000000 1.0
C      1  0.4736220000000  0.5561020000000  0.4590100000000 1.0
C      1  0.5416460000000  0.5464320000000  0.5067760000000 1.0
C      1  0.4661930000000  0.4582590000000  0.5434080000000 1.0
C      1  0.4447190000000  0.5285470000000  0.4915990000000 1.0
C      1  0.4812740000000  0.4452410000000  0.4679180000000 1.0
C      1  0.4898430000000  0.4508980000000  0.5602840000000 1.0
C      1  0.5579660000000  0.4605840000000  0.4878870000000 1.0
C      1  0.5439950000000  0.4478110000000  0.5099390000000 1.0
C      1  0.4955740000000  0.5562030000000  0.5322230000000 1.0
C      1  0.4863900000000  0.5670490000000  0.4833680000000 1.0
C      1  0.4455880000000  0.4784620000000  0.4876420000000 1.0
C      1  0.5601370000000  0.5256220000000  0.5136680000000 1.0
C      1  0.5347550000000  0.5492530000000  0.4785630000000 1.0
C      1  0.5526540000000  0.5031380000000  0.4688960000000 1.0
C      1  0.4973460000000  0.4308780000000  0.5225390000000 1.0
C      1  0.5561920000000  0.4692000000000  0.5283940000000 1.0
C      1  0.5110700000000  0.4387090000000  0.4769720000000 1.0
C      1  0.5136040000000  0.5504780000000  0.4235590000000 1.0
C      1  0.4716860000000  0.4452860000000  0.5180360000000 1.0
C      1  0.4978460000000  0.5100420000000  0.4415640000000 1.0
END
