TITL C-2681979-4830-16 -2.54959681537318 125000 -393.150894510201 0 0 59 (C1) n - 1
REM
REM in /nfs/bkarasulu/CARBON/AIRSS/Generating-Clusters/GAP-ML-2020/Only-C1/SD-CG/HFTN-CG
REM
REM
REM
REM
REM
REM ./C.cell (11c1c37f851c82e70ff6c80c92926a4b)
REM
REM compiler GCC version 9.2.1 20190827 (Red Hat 9.2.1-1)
REM options -cpp -mtune=generic -march=x86-64 -g -O0 -fpre-include=/usr/include/finclude/math-vector-fortran.h
REM seed -2018529605 179538135 -1035702076 -1397396181 -1713519844 684280952 366364805 -288377467 -1890084006 1788908596 -261205168 -1213630774 505506593 2051705297 -2079819225 -305774820 -443105279 -59468512 -747245460 -987400383 -653009289 2046694223 -1742699131 230969550 1579011509 -707142295 -1240705131 1592622852 1330455474 -299887886 377158847 1314474282 1749530175
REM
CELL 1.54180   50.00000   50.00000   50.00000   90.00000   90.00000   90.00000
LATT -1
SFAC C  
C      1  0.5539030000000  0.5133390000000  0.5047400000000 1.0
C      1  0.4748440000000  0.5447860000000  0.5489060000000 1.0
C      1  0.5266080000000  0.4379530000000  0.5067600000000 1.0
C      1  0.5195430000000  0.5384010000000  0.5661520000000 1.0
C      1  0.4936660000000  0.4788220000000  0.4520000000000 1.0
C      1  0.4342860000000  0.4630840000000  0.5294940000000 1.0
C      1  0.4918410000000  0.5016160000000  0.5472760000000 1.0
C      1  0.5799010000000  0.5054680000000  0.4901620000000 1.0
C      1  0.5030170000000  0.5684310000000  0.4908160000000 1.0
C      1  0.5368510000000  0.5351590000000  0.5458490000000 1.0
C      1  0.4508940000000  0.4984150000000  0.4602600000000 1.0
C      1  0.5024490000000  0.5292080000000  0.4603280000000 1.0
C      1  0.5850320000000  0.4769370000000  0.4901320000000 1.0
C      1  0.4612410000000  0.5609490000000  0.5086980000000 1.0
C      1  0.5132930000000  0.4880980000000  0.4988130000000 1.0
C      1  0.4868300000000  0.4500000000000  0.4888810000000 1.0
C      1  0.5225110000000  0.4766450000000  0.4434080000000 1.0
C      1  0.4355740000000  0.5199260000000  0.4928360000000 1.0
C      1  0.5610420000000  0.4646680000000  0.4866110000000 1.0
C      1  0.4750520000000  0.4182480000000  0.5041310000000 1.0
C      1  0.4852700000000  0.5109290000000  0.4254470000000 1.0
C      1  0.5330280000000  0.5537860000000  0.5242490000000 1.0
C      1  0.5330780000000  0.5027340000000  0.4374860000000 1.0
C      1  0.5450340000000  0.4782150000000  0.5285890000000 1.0
C      1  0.4438020000000  0.5383930000000  0.5130860000000 1.0
C      1  0.4812220000000  0.5653400000000  0.5305080000000 1.0
C      1  0.5255450000000  0.4517510000000  0.4587890000000 1.0
C      1  0.5168720000000  0.5442340000000  0.4829840000000 1.0
C      1  0.5098720000000  0.5215910000000  0.4332950000000 1.0
C      1  0.4666960000000  0.4654800000000  0.5689320000000 1.0
C      1  0.4402220000000  0.4618880000000  0.5024530000000 1.0
C      1  0.4680260000000  0.4917790000000  0.5076720000000 1.0
C      1  0.5282040000000  0.4556790000000  0.5308860000000 1.0
C      1  0.5000180000000  0.5282140000000  0.5079210000000 1.0
C      1  0.5427300000000  0.4847100000000  0.4982280000000 1.0
C      1  0.5117510000000  0.5066060000000  0.5230900000000 1.0
C      1  0.4463090000000  0.5258230000000  0.4666350000000 1.0
C      1  0.4803560000000  0.5149440000000  0.4924630000000 1.0
C      1  0.4911620000000  0.4736800000000  0.5586390000000 1.0
C      1  0.4634070000000  0.5008870000000  0.5358730000000 1.0
C      1  0.4499320000000  0.4746870000000  0.5488650000000 1.0
C      1  0.4972370000000  0.4519660000000  0.4622270000000 1.0
C      1  0.4949940000000  0.5286360000000  0.5612810000000 1.0
C      1  0.5417440000000  0.5079540000000  0.5319120000000 1.0
C      1  0.4729400000000  0.5377520000000  0.4701550000000 1.0
C      1  0.5081310000000  0.5694530000000  0.5194310000000 1.0
C      1  0.4544050000000  0.5283750000000  0.5373650000000 1.0
C      1  0.5412750000000  0.4444590000000  0.4824790000000 1.0
C      1  0.4999320000000  0.5010150000000  0.4746210000000 1.0
C      1  0.5776820000000  0.5144710000000  0.4630780000000 1.0
C      1  0.4907300000000  0.4720720000000  0.5086840000000 1.0
C      1  0.5564340000000  0.5103640000000  0.4497140000000 1.0
C      1  0.4752360000000  0.5626120000000  0.4849260000000 1.0
C      1  0.4447840000000  0.4895060000000  0.4891310000000 1.0
C      1  0.4706940000000  0.4928520000000  0.4405470000000 1.0
C      1  0.5013870000000  0.4614510000000  0.5356740000000 1.0
C      1  0.5409140000000  0.5401180000000  0.4993020000000 1.0
C      1  0.4592390000000  0.4399200000000  0.4953420000000 1.0
C      1  0.5013270000000  0.4255230000000  0.5017900000000 1.0
END
