TITL C-2681980-5594-4 121.972863666966 125000 -726.579687637739 0 0 105 (C1) n - 1
REM
REM in /nfs/bkarasulu/CARBON/AIRSS/Generating-Clusters/GAP-ML-2020/Only-C1/SD-CG/HFTN-CG
REM
REM
REM
REM
REM
REM ./C.cell (11c1c37f851c82e70ff6c80c92926a4b)
REM
REM compiler GCC version 9.2.1 20190827 (Red Hat 9.2.1-1)
REM options -cpp -mtune=generic -march=x86-64 -g -O0 -fpre-include=/usr/include/finclude/math-vector-fortran.h
REM seed 1043795436 214563790 -1460221551 -662213562 -840395160 691816993 -562968959 -1886684080 -1642129057 1979168334 1724187356 -1673377557 -181205794 1636175922 -890291413 -1259252336 1464891156 1331799765 1675106805 -1086742946 -649159601 -616377322 -1386196343 779734084 -586589931 689929458 -485206483 -582432312 758877772 278889667 -973269947 -502241584 -1950187538
REM
CELL 1.54180   50.00000   50.00000   50.00000   90.00000   90.00000   90.00000
LATT -1
SFAC C  
C      1  0.4746900000000  0.5765930000000  0.5507700000000 1.0
C      1  0.5031500000000  0.4975910000000  0.4977110000000 1.0
C      1  0.5052250000000  0.4588480000000  0.4688610000000 1.0
C      1  0.5700810000000  0.4877200000000  0.4445250000000 1.0
C      1  0.5916990000000  0.4652410000000  0.4790080000000 1.0
C      1  0.5149010000000  0.4778130000000  0.5731770000000 1.0
C      1  0.5720640000000  0.5444110000000  0.5351930000000 1.0
C      1  0.4089000000000  0.5021720000000  0.4940670000000 1.0
C      1  0.5180150000000  0.5310460000000  0.5797190000000 1.0
C      1  0.4574280000000  0.5394560000000  0.5736030000000 1.0
C      1  0.5040890000000  0.5429200000000  0.4790580000000 1.0
C      1  0.4880610000000  0.4734650000000  0.5647750000000 1.0
C      1  0.4287620000000  0.5080180000000  0.5498000000000 1.0
C      1  0.5370480000000  0.5734510000000  0.5186680000000 1.0
C      1  0.5428180000000  0.4271440000000  0.5178630000000 1.0
C      1  0.5021350000000  0.5021000000000  0.5271540000000 1.0
C      1  0.4621340000000  0.5722570000000  0.4785470000000 1.0
C      1  0.4784840000000  0.4732520000000  0.4630160000000 1.0
C      1  0.5125480000000  0.5894140000000  0.5183360000000 1.0
C      1  0.4983790000000  0.5261640000000  0.4212260000000 1.0
C      1  0.5504310000000  0.4998150000000  0.4253260000000 1.0
C      1  0.4105230000000  0.4794570000000  0.5113960000000 1.0
C      1  0.5216470000000  0.4208770000000  0.4966350000000 1.0
C      1  0.5141150000000  0.5574560000000  0.4556270000000 1.0
C      1  0.4747440000000  0.5430510000000  0.5169570000000 1.0
C      1  0.4772020000000  0.5584450000000  0.5744730000000 1.0
C      1  0.5257030000000  0.4846750000000  0.4239650000000 1.0
C      1  0.4788840000000  0.5927420000000  0.4810780000000 1.0
C      1  0.4524690000000  0.5132030000000  0.5682980000000 1.0
C      1  0.5376210000000  0.4388410000000  0.4486040000000 1.0
C      1  0.5050440000000  0.5917110000000  0.4891510000000 1.0
C      1  0.4527510000000  0.4318490000000  0.4755550000000 1.0
C      1  0.5043520000000  0.5045950000000  0.5813700000000 1.0
C      1  0.5964630000000  0.4986920000000  0.5354980000000 1.0
C      1  0.5204410000000  0.5414460000000  0.4326270000000 1.0
C      1  0.5011250000000  0.5515740000000  0.5861960000000 1.0
C      1  0.4762310000000  0.4849570000000  0.4334830000000 1.0
C      1  0.5190030000000  0.4307510000000  0.4694080000000 1.0
C      1  0.5443120000000  0.5250810000000  0.4381390000000 1.0
C      1  0.5380840000000  0.5118840000000  0.4656010000000 1.0
C      1  0.5441230000000  0.4746740000000  0.4923450000000 1.0
C      1  0.4951910000000  0.4251070000000  0.5097500000000 1.0
C      1  0.5265270000000  0.4410130000000  0.5407810000000 1.0
C      1  0.5457930000000  0.4842210000000  0.4651060000000 1.0
C      1  0.4379290000000  0.4602090000000  0.5444380000000 1.0
C      1  0.5466030000000  0.5689780000000  0.4912530000000 1.0
C      1  0.4353160000000  0.5458810000000  0.4503030000000 1.0
C      1  0.5839410000000  0.5026510000000  0.5089000000000 1.0
C      1  0.5642840000000  0.5296490000000  0.4621560000000 1.0
C      1  0.4580050000000  0.5637090000000  0.5309770000000 1.0
C      1  0.4873130000000  0.4149510000000  0.5377320000000 1.0
C      1  0.5078450000000  0.4224210000000  0.5535270000000 1.0
C      1  0.5644930000000  0.4395510000000  0.4425020000000 1.0
C      1  0.5355140000000  0.4655080000000  0.5571840000000 1.0
C      1  0.4208490000000  0.4968380000000  0.4682320000000 1.0
C      1  0.4696340000000  0.5312080000000  0.4233490000000 1.0
C      1  0.4349300000000  0.5629020000000  0.4747170000000 1.0
C      1  0.5208150000000  0.5199760000000  0.4879400000000 1.0
C      1  0.5244520000000  0.5767570000000  0.4737330000000 1.0
C      1  0.4641170000000  0.4400820000000  0.4079650000000 1.0
C      1  0.4583750000000  0.5081370000000  0.4348250000000 1.0
C      1  0.4755540000000  0.4943780000000  0.4855510000000 1.0
C      1  0.4706220000000  0.4192330000000  0.4946700000000 1.0
C      1  0.4276360000000  0.4691910000000  0.4682130000000 1.0
C      1  0.4483320000000  0.4165710000000  0.5131670000000 1.0
C      1  0.4579030000000  0.4171490000000  0.5400110000000 1.0
C      1  0.5938170000000  0.4939130000000  0.4823130000000 1.0
C      1  0.4883420000000  0.4724750000000  0.5355930000000 1.0
C      1  0.4947540000000  0.5911400000000  0.5391900000000 1.0
C      1  0.4104370000000  0.5275520000000  0.5061360000000 1.0
C      1  0.4615970000000  0.4695710000000  0.5267830000000 1.0
C      1  0.4400890000000  0.5161340000000  0.4567460000000 1.0
C      1  0.5647070000000  0.5482190000000  0.4845910000000 1.0
C      1  0.4768100000000  0.4981030000000  0.5759760000000 1.0
C      1  0.5688920000000  0.5301270000000  0.5089060000000 1.0
C      1  0.5464050000000  0.5571520000000  0.5396600000000 1.0
C      1  0.4228250000000  0.5528050000000  0.4985030000000 1.0
C      1  0.5821560000000  0.4542040000000  0.5049580000000 1.0
C      1  0.4871590000000  0.5254060000000  0.5325580000000 1.0
C      1  0.5840210000000  0.5083170000000  0.4598290000000 1.0
C      1  0.5681550000000  0.5261780000000  0.5576500000000 1.0
C      1  0.4189880000000  0.4577040000000  0.4931150000000 1.0
C      1  0.4530070000000  0.4555150000000  0.4580210000000 1.0
C      1  0.5523500000000  0.4845210000000  0.5418350000000 1.0
C      1  0.4318430000000  0.5561230000000  0.5266380000000 1.0
C      1  0.4761500000000  0.5438460000000  0.4871540000000 1.0
C      1  0.4314370000000  0.4324010000000  0.4954530000000 1.0
C      1  0.4500870000000  0.5508630000000  0.4280330000000 1.0
C      1  0.4206620000000  0.5296760000000  0.5336310000000 1.0
C      1  0.5160170000000  0.4705240000000  0.4959490000000 1.0
C      1  0.5384180000000  0.5315590000000  0.5567760000000 1.0
C      1  0.4639320000000  0.5193020000000  0.4762420000000 1.0
C      1  0.4613130000000  0.4575880000000  0.4273820000000 1.0
C      1  0.5764380000000  0.4997260000000  0.5540950000000 1.0
C      1  0.5007690000000  0.4974800000000  0.4215050000000 1.0
C      1  0.4419990000000  0.4352600000000  0.5542630000000 1.0
C      1  0.5056620000000  0.4538300000000  0.5196050000000 1.0
C      1  0.4199270000000  0.4822230000000  0.5391880000000 1.0
C      1  0.5646750000000  0.4781370000000  0.5137000000000 1.0
C      1  0.4572990000000  0.4833620000000  0.5044850000000 1.0
C      1  0.5325800000000  0.5086460000000  0.5352410000000 1.0
C      1  0.5813140000000  0.4604380000000  0.4509240000000 1.0
C      1  0.5265440000000  0.4668630000000  0.4481840000000 1.0
C      1  0.5704430000000  0.4307400000000  0.5147820000000 1.0
C      1  0.5401210000000  0.5212570000000  0.5106130000000 1.0
END
