TITL C-2681595-4621-17 0.0100493145113356 125000 -124.170419938541 0 0 19 (C1) n - 1
REM
REM in /nfs/bkarasulu/CARBON/AIRSS/Generating-Clusters/GAP-ML-2020/Only-C1/SD-CG/HFTN-CG
REM
REM
REM
REM
REM
REM ./C.cell (11c1c37f851c82e70ff6c80c92926a4b)
REM
REM compiler GCC version 9.2.1 20190827 (Red Hat 9.2.1-1)
REM options -cpp -mtune=generic -march=x86-64 -g -O0 -fpre-include=/usr/include/finclude/math-vector-fortran.h
REM seed -1129468293 -1252241434 -1026846553 -883015555 1691948568 1847040211 763795616 -1105228306 801556432 1551775584 686537678 1773747378 -2062177980 -451821915 1666562241 -461434267 1115919495 1029664253 -1732505746 650065666 779498155 815214675 1902974933 947402970 -424392971 -962766117 1030147692 568556808 634255674 -1233866454 455765598 -1712145029 -2050654009
REM
CELL 1.54180   50.00000   50.00000   50.00000   90.00000   90.00000   90.00000
LATT -1
SFAC C  
C      1  0.4990670000000  0.5007940000000  0.5401910000000 1.0
C      1  0.4848170000000  0.4457740000000  0.4896740000000 1.0
C      1  0.4885570000000  0.5570470000000  0.4762210000000 1.0
C      1  0.4767790000000  0.5104730000000  0.5498110000000 1.0
C      1  0.5029520000000  0.5431280000000  0.4604050000000 1.0
C      1  0.5400050000000  0.4926930000000  0.5102400000000 1.0
C      1  0.4678520000000  0.5494060000000  0.5222560000000 1.0
C      1  0.4821980000000  0.4581840000000  0.5638970000000 1.0
C      1  0.5061360000000  0.4713260000000  0.4526920000000 1.0
C      1  0.4793920000000  0.4464260000000  0.5141330000000 1.0
C      1  0.4944120000000  0.4538380000000  0.4665410000000 1.0
C      1  0.5181850000000  0.4935370000000  0.4450400000000 1.0
C      1  0.5200830000000  0.4984350000000  0.5264890000000 1.0
C      1  0.5169120000000  0.5243870000000  0.4487150000000 1.0
C      1  0.5613050000000  0.5040780000000  0.5009960000000 1.0
C      1  0.4661100000000  0.5335490000000  0.5429610000000 1.0
C      1  0.4771180000000  0.4510730000000  0.5398470000000 1.0
C      1  0.5408810000000  0.5096220000000  0.4501560000000 1.0
C      1  0.4772380000000  0.5562320000000  0.4997360000000 1.0
END
