TITL C-2681970-3643-3 2.87409663077019 125000 -636.702058332252 0 0 91 (C1) n - 1
REM
REM in /nfs/bkarasulu/CARBON/AIRSS/Generating-Clusters/GAP-ML-2020/Only-C1/SD-CG/HFTN-CG
REM
REM
REM
REM
REM
REM ./C.cell (11c1c37f851c82e70ff6c80c92926a4b)
REM
REM compiler GCC version 9.2.1 20190827 (Red Hat 9.2.1-1)
REM options -cpp -mtune=generic -march=x86-64 -g -O0 -fpre-include=/usr/include/finclude/math-vector-fortran.h
REM seed -934463988 -263193161 -755738073 1434199416 972776095 2088705686 1238497045 -1569503966 -715062349 -664916447 -1739694407 -429413224 -1477059328 1205269803 -808516525 -2026436307 -67940238 1278366218 1364408446 472348962 400769796 -2116586821 -1793531151 1703800346 1218676314 236979281 -1952396680 96925535 1047279148 -1886286506 1948121886 676837127 1805029659
REM
CELL 1.54180   50.00000   50.00000   50.00000   90.00000   90.00000   90.00000
LATT -1
SFAC C  
C      1  0.5053310000000  0.5147220000000  0.4783860000000 1.0
C      1  0.4584850000000  0.5007520000000  0.4346110000000 1.0
C      1  0.4807490000000  0.5770710000000  0.5480280000000 1.0
C      1  0.4392170000000  0.5284930000000  0.5615840000000 1.0
C      1  0.5349350000000  0.4899150000000  0.5097590000000 1.0
C      1  0.4540860000000  0.5704460000000  0.5386770000000 1.0
C      1  0.5257840000000  0.5637830000000  0.5538970000000 1.0
C      1  0.5550880000000  0.5287000000000  0.4356030000000 1.0
C      1  0.4793510000000  0.5395850000000  0.5108660000000 1.0
C      1  0.5313980000000  0.4426700000000  0.5543410000000 1.0
C      1  0.5595820000000  0.4560600000000  0.4497890000000 1.0
C      1  0.4650540000000  0.4521670000000  0.4444870000000 1.0
C      1  0.5497630000000  0.4907340000000  0.5575390000000 1.0
C      1  0.4995410000000  0.5053000000000  0.4129150000000 1.0
C      1  0.5735920000000  0.5258100000000  0.4895400000000 1.0
C      1  0.5156840000000  0.4668520000000  0.4126310000000 1.0
C      1  0.5941300000000  0.4790210000000  0.4689910000000 1.0
C      1  0.4676130000000  0.4747500000000  0.4270780000000 1.0
C      1  0.4537140000000  0.4374510000000  0.4894450000000 1.0
C      1  0.5327230000000  0.4177920000000  0.5226920000000 1.0
C      1  0.5443080000000  0.5449590000000  0.5615840000000 1.0
C      1  0.4726450000000  0.4732650000000  0.5760310000000 1.0
C      1  0.5529050000000  0.4359190000000  0.5357520000000 1.0
C      1  0.4473360000000  0.4538950000000  0.4667800000000 1.0
C      1  0.4874730000000  0.4323530000000  0.5229500000000 1.0
C      1  0.4782420000000  0.5882020000000  0.5029070000000 1.0
C      1  0.4525710000000  0.5800500000000  0.5117600000000 1.0
C      1  0.5152180000000  0.4507090000000  0.4365710000000 1.0
C      1  0.4932940000000  0.4927950000000  0.5380880000000 1.0
C      1  0.4342100000000  0.4756620000000  0.5473200000000 1.0
C      1  0.4808760000000  0.5172960000000  0.4968830000000 1.0
C      1  0.5866700000000  0.4585130000000  0.4551780000000 1.0
C      1  0.4637360000000  0.5255770000000  0.5795250000000 1.0
C      1  0.4232210000000  0.4881440000000  0.4973360000000 1.0
C      1  0.5278570000000  0.5358650000000  0.5129150000000 1.0
C      1  0.4884750000000  0.5346200000000  0.5706980000000 1.0
C      1  0.4792180000000  0.4244730000000  0.4936620000000 1.0
C      1  0.4392390000000  0.5022590000000  0.4554780000000 1.0
C      1  0.4784850000000  0.4926180000000  0.5115100000000 1.0
C      1  0.5119580000000  0.5650030000000  0.4779830000000 1.0
C      1  0.5817270000000  0.5283850000000  0.5148400000000 1.0
C      1  0.5118470000000  0.5414940000000  0.4603670000000 1.0
C      1  0.4617320000000  0.4407230000000  0.5348430000000 1.0
C      1  0.4354670000000  0.4994710000000  0.5635230000000 1.0
C      1  0.5437020000000  0.5431420000000  0.4554790000000 1.0
C      1  0.5565550000000  0.4500380000000  0.5107900000000 1.0
C      1  0.4976040000000  0.4785150000000  0.5656480000000 1.0
C      1  0.5693730000000  0.4881210000000  0.5356030000000 1.0
C      1  0.5377000000000  0.4374260000000  0.4499250000000 1.0
C      1  0.5490480000000  0.5021400000000  0.4317020000000 1.0
C      1  0.5615760000000  0.4787480000000  0.5079070000000 1.0
C      1  0.4991140000000  0.5187660000000  0.5485170000000 1.0
C      1  0.4963890000000  0.5872730000000  0.5253020000000 1.0
C      1  0.4320280000000  0.5257480000000  0.4699960000000 1.0
C      1  0.4261350000000  0.5413860000000  0.5134690000000 1.0
C      1  0.5778580000000  0.5153270000000  0.5377780000000 1.0
C      1  0.5067230000000  0.4550690000000  0.5102060000000 1.0
C      1  0.5173000000000  0.4765140000000  0.5280270000000 1.0
C      1  0.5262560000000  0.4708940000000  0.5589430000000 1.0
C      1  0.4433570000000  0.5527930000000  0.4707560000000 1.0
C      1  0.5711100000000  0.4939450000000  0.4810180000000 1.0
C      1  0.4368230000000  0.5622300000000  0.4966780000000 1.0
C      1  0.5009520000000  0.4867470000000  0.4713670000000 1.0
C      1  0.5318180000000  0.4366150000000  0.4997360000000 1.0
C      1  0.4858970000000  0.5437150000000  0.4440340000000 1.0
C      1  0.4862560000000  0.5766990000000  0.4781830000000 1.0
C      1  0.5234150000000  0.5781950000000  0.5262440000000 1.0
C      1  0.4692210000000  0.5605180000000  0.4603810000000 1.0
C      1  0.4893660000000  0.4782390000000  0.4100040000000 1.0
C      1  0.4902770000000  0.4734630000000  0.4939320000000 1.0
C      1  0.4794180000000  0.5204080000000  0.4281610000000 1.0
C      1  0.5208310000000  0.4759400000000  0.4564000000000 1.0
C      1  0.4977410000000  0.5621830000000  0.5652350000000 1.0
C      1  0.5564440000000  0.5202940000000  0.5587670000000 1.0
C      1  0.4335600000000  0.4790400000000  0.4717690000000 1.0
C      1  0.4896360000000  0.4380280000000  0.4469960000000 1.0
C      1  0.5281280000000  0.5132980000000  0.4969240000000 1.0
C      1  0.5326970000000  0.5615500000000  0.4992950000000 1.0
C      1  0.4275580000000  0.4699830000000  0.5193460000000 1.0
C      1  0.4547190000000  0.4578790000000  0.5568120000000 1.0
C      1  0.4582940000000  0.4971930000000  0.5817730000000 1.0
C      1  0.5017710000000  0.5357960000000  0.5259920000000 1.0
C      1  0.4361520000000  0.5472530000000  0.5405630000000 1.0
C      1  0.5494690000000  0.4839910000000  0.4558810000000 1.0
C      1  0.5259530000000  0.4259010000000  0.4732750000000 1.0
C      1  0.4969560000000  0.4246030000000  0.4710890000000 1.0
C      1  0.5117110000000  0.4234840000000  0.5399760000000 1.0
C      1  0.4429940000000  0.4460190000000  0.5139660000000 1.0
C      1  0.5559610000000  0.5481450000000  0.4802240000000 1.0
C      1  0.4221770000000  0.5179220000000  0.4958950000000 1.0
C      1  0.5274470000000  0.4944970000000  0.4146970000000 1.0
END
