TITL C-26368-7880-5 65.1377302047665 125000 -1148.78971118487 0 0 163 (C1) n - 1
REM
REM in /rds/project/t2_vol4/rds-t2-cs072/BORA/CARBON/from-Arr/AIRSS/Generating-Clusters/GAP-ML-2020/Only-C1/SD-CG/HFTN-CG
REM
REM
REM
REM
REM
REM ./C.cell (11c1c37f851c82e70ff6c80c92926a4b)
REM AIRSS Version 0.9.1 bugfix July 2018 build 013d7b7c2542+ Fri, 06 Jul 2018 19:26:36 +0100
REM compiler GCC version 9.3.0
REM options -cpp -mtune=generic -march=x86-64 -g -O0
REM seed 899258626 1776003118 1333176619 -1678310075 2069888708 796013438 1889370113 2059404196 -1086576222 -848129749 6587487 860583289 -970909109 -1420605424 -1140334285 1334526554 -1789835369 1600091753 -555005555 1951566771 -616496034 1389909453 -940772315 1953173996 1127937710 575533578 1717684782 -510700587 465927792 1672726841 2106372513 392650883 933156847
REM
CELL 1.54180   50.00000   50.00000   50.00000   90.00000   90.00000   90.00000
LATT -1
SFAC C  
C      1  0.4048930000000  0.5245920000000  0.4519150000000 1.0
C      1  0.4845380000000  0.4556830000000  0.4921180000000 1.0
C      1  0.5335780000000  0.4260900000000  0.4321530000000 1.0
C      1  0.3934050000000  0.4713840000000  0.5065260000000 1.0
C      1  0.4166230000000  0.4234820000000  0.5083740000000 1.0
C      1  0.5259920000000  0.5021630000000  0.5569650000000 1.0
C      1  0.4486810000000  0.4799810000000  0.4846850000000 1.0
C      1  0.4958280000000  0.5970450000000  0.4528710000000 1.0
C      1  0.4606140000000  0.4155250000000  0.5280820000000 1.0
C      1  0.4744390000000  0.5588210000000  0.4485250000000 1.0
C      1  0.5038680000000  0.6007070000000  0.5254790000000 1.0
C      1  0.5247010000000  0.4780410000000  0.5069140000000 1.0
C      1  0.5805620000000  0.4576610000000  0.5533570000000 1.0
C      1  0.5751880000000  0.4837070000000  0.4327320000000 1.0
C      1  0.4235910000000  0.5764260000000  0.5022950000000 1.0
C      1  0.4039540000000  0.4592780000000  0.4673930000000 1.0
C      1  0.4880400000000  0.4120390000000  0.5243710000000 1.0
C      1  0.4474280000000  0.4433040000000  0.4442880000000 1.0
C      1  0.5546180000000  0.5825920000000  0.4631400000000 1.0
C      1  0.4802270000000  0.5065340000000  0.4211330000000 1.0
C      1  0.5216950000000  0.3968830000000  0.4805240000000 1.0
C      1  0.3940050000000  0.5111120000000  0.4750460000000 1.0
C      1  0.4314510000000  0.4857280000000  0.4320240000000 1.0
C      1  0.5520680000000  0.5166780000000  0.5186250000000 1.0
C      1  0.4592470000000  0.4065280000000  0.4822920000000 1.0
C      1  0.4573070000000  0.5853370000000  0.5390710000000 1.0
C      1  0.4923990000000  0.4539130000000  0.4618610000000 1.0
C      1  0.5552110000000  0.5467190000000  0.4300780000000 1.0
C      1  0.4768120000000  0.5528200000000  0.4818340000000 1.0
C      1  0.5620290000000  0.4909430000000  0.4795010000000 1.0
C      1  0.5777170000000  0.5678900000000  0.4664490000000 1.0
C      1  0.4608930000000  0.4210400000000  0.5567370000000 1.0
C      1  0.4682790000000  0.6044940000000  0.4959940000000 1.0
C      1  0.5957240000000  0.4975310000000  0.5219290000000 1.0
C      1  0.5645670000000  0.4068380000000  0.5016400000000 1.0
C      1  0.4935120000000  0.5710710000000  0.5679210000000 1.0
C      1  0.5800140000000  0.4384860000000  0.5327990000000 1.0
C      1  0.4989180000000  0.5571420000000  0.4969240000000 1.0
C      1  0.5182430000000  0.4609260000000  0.5305620000000 1.0
C      1  0.5283420000000  0.4204270000000  0.4617190000000 1.0
C      1  0.5138760000000  0.5779180000000  0.4378300000000 1.0
C      1  0.5966840000000  0.5415310000000  0.5020090000000 1.0
C      1  0.4037020000000  0.4457510000000  0.4942660000000 1.0
C      1  0.5101260000000  0.5175900000000  0.4640780000000 1.0
C      1  0.4597700000000  0.5336060000000  0.4924090000000 1.0
C      1  0.5397750000000  0.5728670000000  0.5544720000000 1.0
C      1  0.5317640000000  0.5138790000000  0.5887050000000 1.0
C      1  0.4653830000000  0.5701980000000  0.5622570000000 1.0
C      1  0.4499720000000  0.5220420000000  0.4687890000000 1.0
C      1  0.4631580000000  0.5199430000000  0.5182600000000 1.0
C      1  0.5164810000000  0.6030680000000  0.4992050000000 1.0
C      1  0.4916260000000  0.4090550000000  0.4840730000000 1.0
C      1  0.5361180000000  0.4707980000000  0.4786750000000 1.0
C      1  0.5794500000000  0.5445090000000  0.5465890000000 1.0
C      1  0.4906300000000  0.4240670000000  0.5645370000000 1.0
C      1  0.4770640000000  0.4604860000000  0.5953610000000 1.0
C      1  0.5837280000000  0.4508580000000  0.5050450000000 1.0
C      1  0.6081170000000  0.5238670000000  0.4837760000000 1.0
C      1  0.5113160000000  0.5781900000000  0.5444630000000 1.0
C      1  0.4938980000000  0.4514180000000  0.4137630000000 1.0
C      1  0.5743780000000  0.4798090000000  0.5062210000000 1.0
C      1  0.5555740000000  0.4623290000000  0.5702010000000 1.0
C      1  0.4956010000000  0.4974030000000  0.5540030000000 1.0
C      1  0.4750740000000  0.6014950000000  0.5232770000000 1.0
C      1  0.4500070000000  0.4625130000000  0.5894500000000 1.0
C      1  0.5793990000000  0.5459490000000  0.4478990000000 1.0
C      1  0.5243030000000  0.5576670000000  0.4856410000000 1.0
C      1  0.5817880000000  0.5010340000000  0.5710260000000 1.0
C      1  0.5376160000000  0.3959270000000  0.5024370000000 1.0
C      1  0.4727940000000  0.4579860000000  0.4359590000000 1.0
C      1  0.4062210000000  0.5551780000000  0.4896350000000 1.0
C      1  0.4604990000000  0.4684250000000  0.5398550000000 1.0
C      1  0.4294220000000  0.5656800000000  0.4500390000000 1.0
C      1  0.4976960000000  0.5538350000000  0.4299330000000 1.0
C      1  0.4401410000000  0.5246960000000  0.5794110000000 1.0
C      1  0.5748470000000  0.5291640000000  0.5697880000000 1.0
C      1  0.5027640000000  0.4983500000000  0.4036220000000 1.0
C      1  0.5306050000000  0.5237390000000  0.5371180000000 1.0
C      1  0.5400700000000  0.4409730000000  0.4828780000000 1.0
C      1  0.4437320000000  0.5511380000000  0.5680270000000 1.0
C      1  0.4238580000000  0.4372510000000  0.5321700000000 1.0
C      1  0.6155200000000  0.4992240000000  0.4980330000000 1.0
C      1  0.4487780000000  0.5446380000000  0.4439870000000 1.0
C      1  0.4909960000000  0.4681300000000  0.5488950000000 1.0
C      1  0.5247230000000  0.4367340000000  0.5116020000000 1.0
C      1  0.4675320000000  0.5276190000000  0.4052590000000 1.0
C      1  0.5064580000000  0.5283490000000  0.5911600000000 1.0
C      1  0.5115290000000  0.4716020000000  0.4041160000000 1.0
C      1  0.4423030000000  0.4067160000000  0.5056930000000 1.0
C      1  0.5635440000000  0.5763620000000  0.5105400000000 1.0
C      1  0.5629220000000  0.5678000000000  0.5384560000000 1.0
C      1  0.3960680000000  0.5289230000000  0.4982260000000 1.0
C      1  0.5418100000000  0.5723150000000  0.4389460000000 1.0
C      1  0.4493540000000  0.4297410000000  0.4690900000000 1.0
C      1  0.4425860000000  0.5307330000000  0.4195240000000 1.0
C      1  0.4887570000000  0.5075800000000  0.5249060000000 1.0
C      1  0.5282250000000  0.4610870000000  0.5854760000000 1.0
C      1  0.5390110000000  0.4765700000000  0.5474900000000 1.0
C      1  0.3962980000000  0.5170340000000  0.5246090000000 1.0
C      1  0.5061290000000  0.5302260000000  0.5261400000000 1.0
C      1  0.5066980000000  0.4103400000000  0.5453570000000 1.0
C      1  0.5633670000000  0.4154980000000  0.5296380000000 1.0
C      1  0.5078170000000  0.4272900000000  0.4177260000000 1.0
C      1  0.4623680000000  0.4863590000000  0.4354070000000 1.0
C      1  0.5685350000000  0.4324190000000  0.4858190000000 1.0
C      1  0.4516420000000  0.4959720000000  0.5269090000000 1.0
C      1  0.5500500000000  0.4870200000000  0.5218720000000 1.0
C      1  0.5397910000000  0.4699670000000  0.4097990000000 1.0
C      1  0.5926210000000  0.4844050000000  0.5499640000000 1.0
C      1  0.5443290000000  0.5231070000000  0.4138360000000 1.0
C      1  0.5329750000000  0.4114040000000  0.5288820000000 1.0
C      1  0.6049150000000  0.4546960000000  0.4815770000000 1.0
C      1  0.5806050000000  0.4978530000000  0.4560930000000 1.0
C      1  0.4948040000000  0.4965900000000  0.4744300000000 1.0
C      1  0.4361370000000  0.4636520000000  0.5632880000000 1.0
C      1  0.4139090000000  0.4847780000000  0.5559980000000 1.0
C      1  0.4856350000000  0.5136580000000  0.5788800000000 1.0
C      1  0.5512040000000  0.4466340000000  0.4243160000000 1.0
C      1  0.4976680000000  0.5255450000000  0.4409270000000 1.0
C      1  0.5306730000000  0.5315330000000  0.4771470000000 1.0
C      1  0.4214960000000  0.5123730000000  0.4299430000000 1.0
C      1  0.4509750000000  0.4462720000000  0.5211880000000 1.0
C      1  0.4946610000000  0.6057980000000  0.4804190000000 1.0
C      1  0.4080320000000  0.5522820000000  0.4609970000000 1.0
C      1  0.4645280000000  0.4963260000000  0.4654290000000 1.0
C      1  0.4076540000000  0.5307860000000  0.5467150000000 1.0
C      1  0.4966420000000  0.4857380000000  0.5025030000000 1.0
C      1  0.4178820000000  0.5118540000000  0.5655410000000 1.0
C      1  0.5517390000000  0.5354420000000  0.5847570000000 1.0
C      1  0.4422710000000  0.5939630000000  0.4868320000000 1.0
C      1  0.4938020000000  0.5425490000000  0.4026590000000 1.0
C      1  0.4972040000000  0.4303780000000  0.5036650000000 1.0
C      1  0.4695650000000  0.5875360000000  0.4475180000000 1.0
C      1  0.4556570000000  0.4528440000000  0.4921260000000 1.0
C      1  0.4608940000000  0.5099860000000  0.5916050000000 1.0
C      1  0.5845360000000  0.5263050000000  0.5238850000000 1.0
C      1  0.5126300000000  0.4754810000000  0.4613380000000 1.0
C      1  0.4622980000000  0.4837770000000  0.6025590000000 1.0
C      1  0.5385730000000  0.4866160000000  0.5981050000000 1.0
C      1  0.6215000000000  0.4758120000000  0.4845520000000 1.0
C      1  0.5839850000000  0.5652290000000  0.4942370000000 1.0
C      1  0.4984070000000  0.4243690000000  0.4595250000000 1.0
C      1  0.5856910000000  0.4430120000000  0.4627650000000 1.0
C      1  0.3985750000000  0.4880840000000  0.5303400000000 1.0
C      1  0.4347420000000  0.4343070000000  0.5589900000000 1.0
C      1  0.5502350000000  0.5170850000000  0.4895040000000 1.0
C      1  0.5542720000000  0.4941710000000  0.4156360000000 1.0
C      1  0.3916340000000  0.4832430000000  0.4797750000000 1.0
C      1  0.4234840000000  0.5548970000000  0.5485640000000 1.0
C      1  0.5375570000000  0.5591880000000  0.5789110000000 1.0
C      1  0.4984640000000  0.5564070000000  0.5247820000000 1.0
C      1  0.4235280000000  0.4607590000000  0.4444580000000 1.0
C      1  0.5743840000000  0.4545500000000  0.4386820000000 1.0
C      1  0.4905130000000  0.4146890000000  0.4341050000000 1.0
C      1  0.5095800000000  0.5554850000000  0.5850700000000 1.0
C      1  0.5934550000000  0.5233910000000  0.4583280000000 1.0
C      1  0.4992770000000  0.4520220000000  0.5766550000000 1.0
C      1  0.5171650000000  0.5226550000000  0.4013930000000 1.0
C      1  0.5406130000000  0.5837210000000  0.4913160000000 1.0
C      1  0.4319290000000  0.5748490000000  0.5294630000000 1.0
C      1  0.5647550000000  0.4844310000000  0.5868140000000 1.0
C      1  0.4432970000000  0.5885800000000  0.4593050000000 1.0
C      1  0.4354050000000  0.4929120000000  0.5050320000000 1.0
END
