TITL C-260526-2507-8 -0.261616771817057 125000 -519.492329256548 0 0 75 (C1) n - 1
REM
REM in /rds/project/t2_vol4/rds-t2-cs072/BORA/CARBON/from-Arr/AIRSS/Generating-Clusters/GAP-ML-2020/Only-C1/SD-CG/HFTN-CG
REM
REM
REM
REM
REM
REM ./C.cell (11c1c37f851c82e70ff6c80c92926a4b)
REM AIRSS Version 0.9.1 bugfix July 2018 build 013d7b7c2542+ Fri, 06 Jul 2018 19:26:36 +0100
REM compiler GCC version 9.3.0
REM options -cpp -mtune=generic -march=x86-64 -g -O0
REM seed -1229157895 1447635704 1294316845 838057393 1685596420 -579545159 -442675312 500466224 1866229080 1312184349 1853327606 501691556 -845861303 1177608960 -264836860 -851148757 1986700008 -1148240288 1295409915 -1517773669 1576996598 161288887 -916412229 -21046750 -1731188810 958951605 1048744518 2142080600 -554859778 -975590582 1608616580 -1822808098 195224004
REM
CELL 1.54180   50.00000   50.00000   50.00000   90.00000   90.00000   90.00000
LATT -1
SFAC C  
C      1  0.5145210000000  0.4900370000000  0.4215230000000 1.0
C      1  0.5275830000000  0.4230840000000  0.5397610000000 1.0
C      1  0.4510810000000  0.4777400000000  0.4443050000000 1.0
C      1  0.4663710000000  0.5116590000000  0.5019510000000 1.0
C      1  0.4969160000000  0.5315310000000  0.4317760000000 1.0
C      1  0.4905650000000  0.4370450000000  0.4603740000000 1.0
C      1  0.5558280000000  0.4873910000000  0.4584450000000 1.0
C      1  0.4736730000000  0.4684930000000  0.4286000000000 1.0
C      1  0.4461650000000  0.5307080000000  0.5582190000000 1.0
C      1  0.5502700000000  0.4846680000000  0.5268500000000 1.0
C      1  0.5342940000000  0.4947480000000  0.5693330000000 1.0
C      1  0.5689670000000  0.4910560000000  0.4835090000000 1.0
C      1  0.4453040000000  0.4611620000000  0.4672110000000 1.0
C      1  0.4391410000000  0.5142180000000  0.4879470000000 1.0
C      1  0.5081000000000  0.5612330000000  0.5339690000000 1.0
C      1  0.4322600000000  0.5325910000000  0.5326110000000 1.0
C      1  0.5365880000000  0.4441410000000  0.4750870000000 1.0
C      1  0.4746650000000  0.5144990000000  0.4243780000000 1.0
C      1  0.5178090000000  0.4873510000000  0.5175370000000 1.0
C      1  0.5410290000000  0.4719110000000  0.5526110000000 1.0
C      1  0.5538280000000  0.5132410000000  0.5617940000000 1.0
C      1  0.4972880000000  0.5809350000000  0.5155720000000 1.0
C      1  0.4829580000000  0.4871660000000  0.5673630000000 1.0
C      1  0.4923720000000  0.5271170000000  0.5698880000000 1.0
C      1  0.4847630000000  0.4978470000000  0.4845010000000 1.0
C      1  0.4767490000000  0.4266830000000  0.5456470000000 1.0
C      1  0.4460000000000  0.5259710000000  0.4613110000000 1.0
C      1  0.4607960000000  0.4494340000000  0.5398330000000 1.0
C      1  0.4531450000000  0.5530110000000  0.5266140000000 1.0
C      1  0.4671620000000  0.5116890000000  0.5595360000000 1.0
C      1  0.4983140000000  0.4173680000000  0.5318350000000 1.0
C      1  0.4719610000000  0.5405660000000  0.5081730000000 1.0
C      1  0.4644770000000  0.5487820000000  0.4629790000000 1.0
C      1  0.4346150000000  0.4667570000000  0.4948150000000 1.0
C      1  0.5068850000000  0.5021250000000  0.5743360000000 1.0
C      1  0.5014710000000  0.5372170000000  0.5152170000000 1.0
C      1  0.4646640000000  0.4405820000000  0.4714040000000 1.0
C      1  0.5447520000000  0.4311200000000  0.5203710000000 1.0
C      1  0.5600140000000  0.5548420000000  0.5221740000000 1.0
C      1  0.5698360000000  0.5193540000000  0.4895280000000 1.0
C      1  0.4221310000000  0.4924030000000  0.4986160000000 1.0
C      1  0.4864750000000  0.4903380000000  0.4164710000000 1.0
C      1  0.4631310000000  0.5559010000000  0.5534580000000 1.0
C      1  0.5023700000000  0.5106260000000  0.5268460000000 1.0
C      1  0.5159540000000  0.5374720000000  0.4898950000000 1.0
C      1  0.4963810000000  0.4361610000000  0.5072460000000 1.0
C      1  0.5366310000000  0.5677730000000  0.5303860000000 1.0
C      1  0.4793240000000  0.4721070000000  0.5416660000000 1.0
C      1  0.5698170000000  0.5289230000000  0.5166300000000 1.0
C      1  0.5458900000000  0.5696430000000  0.5033570000000 1.0
C      1  0.5042990000000  0.4616080000000  0.5276600000000 1.0
C      1  0.5101450000000  0.4907130000000  0.4904850000000 1.0
C      1  0.4680980000000  0.5610190000000  0.4877470000000 1.0
C      1  0.5560860000000  0.5343780000000  0.4697110000000 1.0
C      1  0.5203100000000  0.5128910000000  0.4775150000000 1.0
C      1  0.5208300000000  0.4653480000000  0.4344900000000 1.0
C      1  0.4513010000000  0.5075810000000  0.4406190000000 1.0
C      1  0.4678470000000  0.4360330000000  0.4983000000000 1.0
C      1  0.5240950000000  0.4504360000000  0.5467130000000 1.0
C      1  0.5223950000000  0.5155030000000  0.4312230000000 1.0
C      1  0.4743000000000  0.5006550000000  0.5299640000000 1.0
C      1  0.5412480000000  0.4631570000000  0.4537250000000 1.0
C      1  0.5634150000000  0.4725080000000  0.5041620000000 1.0
C      1  0.5102970000000  0.4341820000000  0.4805300000000 1.0
C      1  0.4485090000000  0.4490860000000  0.5134930000000 1.0
C      1  0.4915280000000  0.5530080000000  0.5587320000000 1.0
C      1  0.5630750000000  0.5096250000000  0.5362130000000 1.0
C      1  0.4907360000000  0.5509430000000  0.4510090000000 1.0
C      1  0.5386680000000  0.5562620000000  0.4796430000000 1.0
C      1  0.4954630000000  0.4518590000000  0.4376340000000 1.0
C      1  0.4214720000000  0.5165180000000  0.5129090000000 1.0
C      1  0.4920530000000  0.5766540000000  0.4895290000000 1.0
C      1  0.5416740000000  0.5136620000000  0.4536350000000 1.0
C      1  0.5518680000000  0.4467370000000  0.4991070000000 1.0
C      1  0.5090030000000  0.5612180000000  0.4717890000000 1.0
END
