TITL C-2681970-3643-19 225.901880426832 125000 -1081.28922532096 0 0 153 (C1) n - 1
REM
REM in /nfs/bkarasulu/CARBON/AIRSS/Generating-Clusters/GAP-ML-2020/Only-C1/SD-CG/HFTN-CG
REM
REM
REM
REM
REM
REM ./C.cell (11c1c37f851c82e70ff6c80c92926a4b)
REM
REM compiler GCC version 9.2.1 20190827 (Red Hat 9.2.1-1)
REM options -cpp -mtune=generic -march=x86-64 -g -O0 -fpre-include=/usr/include/finclude/math-vector-fortran.h
REM seed 1041608981 -742151025 -231192647 884123470 468513439 -1679160191 1248079647 -770928587 -209355104 348232325 -487342638 2119859198 -243727883 157462176 -1242336541 2054849391 1408113243 -1541310516 -1595073501 -2117124815 -697759236 -493283308 -626078039 1172532087 -671657911 -772707256 1088954125 -1686678896 543933259 -1436739345 -1782915956 237048007 2009125865
REM
CELL 1.54180   50.00000   50.00000   50.00000   90.00000   90.00000   90.00000
LATT -1
SFAC C  
C      1  0.4567600000000  0.4918490000000  0.5845140000000 1.0
C      1  0.5775970000000  0.4858930000000  0.4418570000000 1.0
C      1  0.5166050000000  0.4536250000000  0.4195750000000 1.0
C      1  0.5058990000000  0.4548880000000  0.5146680000000 1.0
C      1  0.4689340000000  0.5264990000000  0.4062290000000 1.0
C      1  0.4342390000000  0.5364550000000  0.4462580000000 1.0
C      1  0.4428080000000  0.4419070000000  0.5410760000000 1.0
C      1  0.5313820000000  0.5121210000000  0.5307000000000 1.0
C      1  0.5953050000000  0.4947030000000  0.4621820000000 1.0
C      1  0.5154260000000  0.4773220000000  0.5540200000000 1.0
C      1  0.5854440000000  0.4333130000000  0.5037870000000 1.0
C      1  0.5662120000000  0.5608470000000  0.5458440000000 1.0
C      1  0.5387630000000  0.5377030000000  0.4887380000000 1.0
C      1  0.4922210000000  0.3933280000000  0.4942480000000 1.0
C      1  0.4857020000000  0.5603840000000  0.5874170000000 1.0
C      1  0.4997730000000  0.5087910000000  0.6015090000000 1.0
C      1  0.4705600000000  0.4702910000000  0.5710060000000 1.0
C      1  0.5687940000000  0.5483260000000  0.5697930000000 1.0
C      1  0.4927490000000  0.4694090000000  0.4732410000000 1.0
C      1  0.4950210000000  0.5278060000000  0.5563450000000 1.0
C      1  0.5219720000000  0.5269500000000  0.5939600000000 1.0
C      1  0.6118030000000  0.4376910000000  0.5141110000000 1.0
C      1  0.5079150000000  0.4968650000000  0.4020280000000 1.0
C      1  0.5290820000000  0.4639910000000  0.5311540000000 1.0
C      1  0.3973490000000  0.5010740000000  0.5500290000000 1.0
C      1  0.5199320000000  0.5308050000000  0.5111850000000 1.0
C      1  0.5908460000000  0.5241460000000  0.5291840000000 1.0
C      1  0.5028080000000  0.4299260000000  0.4304730000000 1.0
C      1  0.4569040000000  0.4761690000000  0.3935030000000 1.0
C      1  0.6008400000000  0.5120130000000  0.5052090000000 1.0
C      1  0.4954350000000  0.5924500000000  0.4579810000000 1.0
C      1  0.4777380000000  0.5789410000000  0.5672680000000 1.0
C      1  0.5301830000000  0.4238930000000  0.5554650000000 1.0
C      1  0.4528170000000  0.4177530000000  0.5297250000000 1.0
C      1  0.4330610000000  0.5378550000000  0.4753230000000 1.0
C      1  0.4860080000000  0.4989230000000  0.5213780000000 1.0
C      1  0.5964360000000  0.4732870000000  0.4794390000000 1.0
C      1  0.4532660000000  0.5190170000000  0.4915710000000 1.0
C      1  0.5968290000000  0.5202130000000  0.4778820000000 1.0
C      1  0.4427810000000  0.4733950000000  0.4639490000000 1.0
C      1  0.5522670000000  0.4400610000000  0.5432140000000 1.0
C      1  0.4462510000000  0.4145030000000  0.5016740000000 1.0
C      1  0.5381130000000  0.4838550000000  0.5959250000000 1.0
C      1  0.4577010000000  0.5641400000000  0.5525350000000 1.0
C      1  0.5215700000000  0.4417030000000  0.5772130000000 1.0
C      1  0.5649680000000  0.4582510000000  0.5639540000000 1.0
C      1  0.4974010000000  0.5239350000000  0.4026230000000 1.0
C      1  0.4733600000000  0.6149030000000  0.4881550000000 1.0
C      1  0.5440370000000  0.4062910000000  0.5130980000000 1.0
C      1  0.5329190000000  0.4431390000000  0.4781730000000 1.0
C      1  0.5234310000000  0.4050390000000  0.5338190000000 1.0
C      1  0.4313970000000  0.4453110000000  0.4631270000000 1.0
C      1  0.4987340000000  0.5335630000000  0.4610290000000 1.0
C      1  0.4169180000000  0.4517700000000  0.5405780000000 1.0
C      1  0.4554990000000  0.5456780000000  0.4267620000000 1.0
C      1  0.5568780000000  0.5821540000000  0.4927850000000 1.0
C      1  0.4660330000000  0.4016690000000  0.4857010000000 1.0
C      1  0.5790490000000  0.4803290000000  0.5522490000000 1.0
C      1  0.5433580000000  0.4221740000000  0.4609220000000 1.0
C      1  0.4719010000000  0.5141060000000  0.5970030000000 1.0
C      1  0.5786500000000  0.5487490000000  0.5233020000000 1.0
C      1  0.4173080000000  0.5527080000000  0.5348840000000 1.0
C      1  0.4697990000000  0.6035710000000  0.5124890000000 1.0
C      1  0.5493900000000  0.5877220000000  0.4674190000000 1.0
C      1  0.4019020000000  0.5384450000000  0.5158530000000 1.0
C      1  0.5031050000000  0.5766340000000  0.4819480000000 1.0
C      1  0.4643760000000  0.5415680000000  0.5921250000000 1.0
C      1  0.4407000000000  0.4899160000000  0.5333500000000 1.0
C      1  0.5689670000000  0.5218190000000  0.5754220000000 1.0
C      1  0.4567940000000  0.5782910000000  0.5080200000000 1.0
C      1  0.4751710000000  0.5375230000000  0.5383120000000 1.0
C      1  0.4990780000000  0.5131620000000  0.4986400000000 1.0
C      1  0.4168090000000  0.4788490000000  0.5530860000000 1.0
C      1  0.5067020000000  0.5036460000000  0.5443020000000 1.0
C      1  0.4203530000000  0.4527850000000  0.5121680000000 1.0
C      1  0.5452400000000  0.4870350000000  0.5180700000000 1.0
C      1  0.5460990000000  0.5114370000000  0.5913510000000 1.0
C      1  0.4400010000000  0.5698580000000  0.5298840000000 1.0
C      1  0.4288670000000  0.4345490000000  0.4920060000000 1.0
C      1  0.5209070000000  0.5651490000000  0.4252820000000 1.0
C      1  0.4532770000000  0.5026090000000  0.4003320000000 1.0
C      1  0.5140180000000  0.5936710000000  0.5060690000000 1.0
C      1  0.5997900000000  0.4829600000000  0.5069680000000 1.0
C      1  0.5749100000000  0.4805150000000  0.5243450000000 1.0
C      1  0.4990990000000  0.5904000000000  0.5527680000000 1.0
C      1  0.4197060000000  0.5414750000000  0.5626120000000 1.0
C      1  0.5125720000000  0.4933590000000  0.4793050000000 1.0
C      1  0.4956120000000  0.5481890000000  0.5196430000000 1.0
C      1  0.3959460000000  0.5107020000000  0.4784960000000 1.0
C      1  0.3980840000000  0.5017000000000  0.4514950000000 1.0
C      1  0.5454480000000  0.4586520000000  0.5843480000000 1.0
C      1  0.4387490000000  0.4971330000000  0.4240320000000 1.0
C      1  0.5126620000000  0.3967450000000  0.4746860000000 1.0
C      1  0.5383940000000  0.4034800000000  0.4849740000000 1.0
C      1  0.4111730000000  0.5158430000000  0.5702920000000 1.0
C      1  0.4257860000000  0.4816540000000  0.5075430000000 1.0
C      1  0.5417330000000  0.4678970000000  0.4179610000000 1.0
C      1  0.4958500000000  0.5771480000000  0.4334510000000 1.0
C      1  0.4465020000000  0.4883700000000  0.4870730000000 1.0
C      1  0.4695840000000  0.4710410000000  0.4908050000000 1.0
C      1  0.5047630000000  0.5068190000000  0.4535150000000 1.0
C      1  0.4718210000000  0.4578280000000  0.4070700000000 1.0
C      1  0.3985820000000  0.4951780000000  0.5029970000000 1.0
C      1  0.6206920000000  0.4614500000000  0.5175550000000 1.0
C      1  0.5411880000000  0.4881520000000  0.4889970000000 1.0
C      1  0.5829640000000  0.5452010000000  0.4717940000000 1.0
C      1  0.5204530000000  0.5535590000000  0.4704760000000 1.0
C      1  0.5412170000000  0.5665250000000  0.4493990000000 1.0
C      1  0.4068520000000  0.5355690000000  0.4871400000000 1.0
C      1  0.4630480000000  0.4087050000000  0.4602550000000 1.0
C      1  0.5792220000000  0.4497900000000  0.4789300000000 1.0
C      1  0.4958490000000  0.4733950000000  0.4154640000000 1.0
C      1  0.5107720000000  0.5489980000000  0.5758490000000 1.0
C      1  0.4736270000000  0.4356150000000  0.4267470000000 1.0
C      1  0.5665640000000  0.5513920000000  0.4479250000000 1.0
C      1  0.5516060000000  0.4623170000000  0.4823200000000 1.0
C      1  0.4291000000000  0.4930710000000  0.5766270000000 1.0
C      1  0.4949380000000  0.5995570000000  0.5259720000000 1.0
C      1  0.4527840000000  0.4281560000000  0.4458450000000 1.0
C      1  0.4439810000000  0.5498090000000  0.5738480000000 1.0
C      1  0.5605920000000  0.5071260000000  0.4484420000000 1.0
C      1  0.4975930000000  0.3971610000000  0.5233230000000 1.0
C      1  0.5397810000000  0.5881970000000  0.5151390000000 1.0
C      1  0.4755690000000  0.4052650000000  0.5370520000000 1.0
C      1  0.5835870000000  0.5084260000000  0.5541990000000 1.0
C      1  0.5493340000000  0.5118670000000  0.4763340000000 1.0
C      1  0.4996140000000  0.4640610000000  0.5775380000000 1.0
C      1  0.5431680000000  0.5232740000000  0.4116720000000 1.0
C      1  0.4857700000000  0.4846720000000  0.4447140000000 1.0
C      1  0.5625680000000  0.5293400000000  0.4312120000000 1.0
C      1  0.5098120000000  0.4828340000000  0.5987800000000 1.0
C      1  0.4061520000000  0.4549540000000  0.4493260000000 1.0
C      1  0.4706750000000  0.5680030000000  0.4286350000000 1.0
C      1  0.4595190000000  0.5141600000000  0.5237530000000 1.0
C      1  0.5203380000000  0.5409530000000  0.4095000000000 1.0
C      1  0.4604630000000  0.4662110000000  0.5422990000000 1.0
C      1  0.5655450000000  0.4611550000000  0.4342850000000 1.0
C      1  0.4796100000000  0.5322840000000  0.4840290000000 1.0
C      1  0.4565430000000  0.4860400000000  0.4435310000000 1.0
C      1  0.4802670000000  0.4697140000000  0.5182450000000 1.0
C      1  0.5217380000000  0.5743220000000  0.5598000000000 1.0
C      1  0.4797150000000  0.6156770000000  0.4637440000000 1.0
C      1  0.3910270000000  0.4744210000000  0.4438800000000 1.0
C      1  0.5436150000000  0.5776080000000  0.5420040000000 1.0
C      1  0.3927600000000  0.5124430000000  0.5249960000000 1.0
C      1  0.5071710000000  0.4476000000000  0.4870320000000 1.0
C      1  0.5682070000000  0.5547690000000  0.4959030000000 1.0
C      1  0.5641350000000  0.4247770000000  0.5206980000000 1.0
C      1  0.5166080000000  0.4125160000000  0.4491580000000 1.0
C      1  0.5679680000000  0.4386500000000  0.4522260000000 1.0
C      1  0.5354130000000  0.4952080000000  0.4070190000000 1.0
C      1  0.4807920000000  0.5604890000000  0.4966290000000 1.0
C      1  0.4192230000000  0.5143890000000  0.4367050000000 1.0
END
