TITL C-26383-934-1 0.0709811147598563 125000 -439.706182003789 0 0 65 (C1) n - 1
REM
REM in /rds/project/t2_vol4/rds-t2-cs072/BORA/CARBON/from-Arr/AIRSS/Generating-Clusters/GAP-ML-2020/Only-C1/SD-CG/HFTN-CG
REM
REM
REM
REM
REM
REM ./C.cell (11c1c37f851c82e70ff6c80c92926a4b)
REM AIRSS Version 0.9.1 bugfix July 2018 build 013d7b7c2542+ Fri, 06 Jul 2018 19:26:36 +0100
REM compiler GCC version 9.3.0
REM options -cpp -mtune=generic -march=x86-64 -g -O0
REM seed 1372366910 -759052852 -1826038808 577359152 -686523431 339718099 -154438313 -984047221 -440054284 -1130774906 1260249827 1290359438 1530097476 2111207355 775589982 -2072624463 -100494108 -466723339 -1600259563 1617705752 -2002885151 -2139183272 1967166122 1466012831 -1343422199 -311019982 1470867763 1304951562 -1520359312 1959315518 -1350758613 -358036411 -1573752953
REM
CELL 1.54180   50.00000   50.00000   50.00000   90.00000   90.00000   90.00000
LATT -1
SFAC C  
C      1  0.5077140000000  0.4320630000000  0.5280520000000 1.0
C      1  0.5349240000000  0.5620140000000  0.5577950000000 1.0
C      1  0.4933820000000  0.4459250000000  0.5471960000000 1.0
C      1  0.4949490000000  0.5576360000000  0.4698820000000 1.0
C      1  0.5208910000000  0.5214710000000  0.4487550000000 1.0
C      1  0.5165840000000  0.4272500000000  0.4833000000000 1.0
C      1  0.5117140000000  0.5207650000000  0.5614240000000 1.0
C      1  0.5346780000000  0.5066490000000  0.5515120000000 1.0
C      1  0.4820880000000  0.4845280000000  0.5570020000000 1.0
C      1  0.5474860000000  0.5230240000000  0.5305670000000 1.0
C      1  0.5332880000000  0.4798680000000  0.4406370000000 1.0
C      1  0.5397470000000  0.4561730000000  0.4559390000000 1.0
C      1  0.4953030000000  0.4283770000000  0.5016400000000 1.0
C      1  0.4651580000000  0.5583220000000  0.5439670000000 1.0
C      1  0.5552400000000  0.4528530000000  0.4808920000000 1.0
C      1  0.5116050000000  0.4767050000000  0.4228940000000 1.0
C      1  0.5478770000000  0.4604750000000  0.5374280000000 1.0
C      1  0.4555250000000  0.5320170000000  0.4705860000000 1.0
C      1  0.5359720000000  0.4372530000000  0.5248150000000 1.0
C      1  0.4849970000000  0.4880620000000  0.4602290000000 1.0
C      1  0.4704470000000  0.4632870000000  0.5386870000000 1.0
C      1  0.4674580000000  0.5500580000000  0.5149420000000 1.0
C      1  0.4902940000000  0.4914100000000  0.4293140000000 1.0
C      1  0.4352100000000  0.5021010000000  0.5143700000000 1.0
C      1  0.5678740000000  0.5089750000000  0.4583740000000 1.0
C      1  0.5180730000000  0.4992280000000  0.4945200000000 1.0
C      1  0.4993200000000  0.5194780000000  0.4285510000000 1.0
C      1  0.4429010000000  0.4655440000000  0.4735970000000 1.0
C      1  0.5163280000000  0.4415160000000  0.4597990000000 1.0
C      1  0.4458410000000  0.5442060000000  0.4964370000000 1.0
C      1  0.4299470000000  0.4876500000000  0.4650740000000 1.0
C      1  0.5322860000000  0.4781350000000  0.5543250000000 1.0
C      1  0.4793970000000  0.5201870000000  0.5210980000000 1.0
C      1  0.5467050000000  0.5072360000000  0.4414590000000 1.0
C      1  0.5211530000000  0.5452880000000  0.4655560000000 1.0
C      1  0.4801050000000  0.4726300000000  0.5112500000000 1.0
C      1  0.4257620000000  0.5237550000000  0.4982730000000 1.0
C      1  0.4847320000000  0.5130490000000  0.5519000000000 1.0
C      1  0.4250510000000  0.4806840000000  0.5279710000000 1.0
C      1  0.5380400000000  0.5437720000000  0.4882460000000 1.0
C      1  0.5107460000000  0.5770620000000  0.5069780000000 1.0
C      1  0.5340800000000  0.5628750000000  0.5083870000000 1.0
C      1  0.4302230000000  0.5141090000000  0.4703230000000 1.0
C      1  0.4418110000000  0.4589940000000  0.5267470000000 1.0
C      1  0.5126860000000  0.5488280000000  0.5657610000000 1.0
C      1  0.4457530000000  0.4502160000000  0.4987830000000 1.0
C      1  0.5139520000000  0.4952780000000  0.4649500000000 1.0
C      1  0.5412660000000  0.4340630000000  0.4969220000000 1.0
C      1  0.4966210000000  0.5188520000000  0.4976140000000 1.0
C      1  0.5456070000000  0.5174340000000  0.5007510000000 1.0
C      1  0.4723640000000  0.4617130000000  0.4669960000000 1.0
C      1  0.5103530000000  0.4764580000000  0.5086430000000 1.0
C      1  0.4748010000000  0.4478470000000  0.4936030000000 1.0
C      1  0.4638890000000  0.4973240000000  0.5054260000000 1.0
C      1  0.4815720000000  0.5400370000000  0.4270120000000 1.0
C      1  0.5061360000000  0.4685290000000  0.5605820000000 1.0
C      1  0.5676990000000  0.4746570000000  0.4949970000000 1.0
C      1  0.5430420000000  0.5515640000000  0.5338960000000 1.0
C      1  0.5667480000000  0.4726700000000  0.5222380000000 1.0
C      1  0.4675530000000  0.5376450000000  0.5634260000000 1.0
C      1  0.5662300000000  0.5020390000000  0.4849500000000 1.0
C      1  0.4737940000000  0.5476120000000  0.4523580000000 1.0
C      1  0.4882800000000  0.5662310000000  0.4967360000000 1.0
C      1  0.4846330000000  0.5589250000000  0.5642050000000 1.0
C      1  0.4741170000000  0.5094130000000  0.4794590000000 1.0
END
