TITL C-26364-7887-2 10.8354318340604 125000 -145.342529702295 0 0 23 (C1) n - 1
REM
REM in /rds/project/t2_vol4/rds-t2-cs072/BORA/CARBON/from-Arr/AIRSS/Generating-Clusters/GAP-ML-2020/Only-C1/SD-CG/HFTN-CG
REM
REM
REM
REM
REM
REM ./C.cell (11c1c37f851c82e70ff6c80c92926a4b)
REM AIRSS Version 0.9.1 bugfix July 2018 build 013d7b7c2542+ Fri, 06 Jul 2018 19:26:36 +0100
REM compiler GCC version 9.3.0
REM options -cpp -mtune=generic -march=x86-64 -g -O0
REM seed -591643911 21991765 456045623 -1308422378 1715580077 1785310996 -654838450 -257339848 430350635 762233262 -970515299 1847126762 907077413 434560750 -1823305524 -1649711404 1940488219 620495632 751857583 -786165840 -582489215 -93106478 -897487956 -385584815 2086384861 1852184186 1217749760 -1278103641 1083096461 -1485688487 1029379824 -712420090 1845557541
REM
CELL 1.54180   50.00000   50.00000   50.00000   90.00000   90.00000   90.00000
LATT -1
SFAC C  
C      1  0.4428110000000  0.5166160000000  0.4920830000000 1.0
C      1  0.5567960000000  0.4676310000000  0.4963860000000 1.0
C      1  0.4863910000000  0.5227850000000  0.4816670000000 1.0
C      1  0.5020950000000  0.4791060000000  0.4818650000000 1.0
C      1  0.5342410000000  0.5105790000000  0.4902390000000 1.0
C      1  0.5167890000000  0.4986490000000  0.5413320000000 1.0
C      1  0.4683230000000  0.4992420000000  0.5308930000000 1.0
C      1  0.4493780000000  0.5443370000000  0.4904600000000 1.0
C      1  0.4588470000000  0.5259190000000  0.5392540000000 1.0
C      1  0.4449680000000  0.5092750000000  0.5192070000000 1.0
C      1  0.4637030000000  0.5057870000000  0.4760130000000 1.0
C      1  0.5237450000000  0.4799380000000  0.4603390000000 1.0
C      1  0.5523670000000  0.4956630000000  0.5066520000000 1.0
C      1  0.4826890000000  0.5368520000000  0.5261000000000 1.0
C      1  0.4747240000000  0.4815790000000  0.4748080000000 1.0
C      1  0.5334120000000  0.5050790000000  0.4623120000000 1.0
C      1  0.5177750000000  0.4565110000000  0.4937420000000 1.0
C      1  0.4966810000000  0.5100910000000  0.5244780000000 1.0
C      1  0.5362450000000  0.4857100000000  0.5283490000000 1.0
C      1  0.5391590000000  0.4587880000000  0.4739310000000 1.0
C      1  0.5367090000000  0.4597370000000  0.5161690000000 1.0
C      1  0.4760610000000  0.5434750000000  0.4982770000000 1.0
C      1  0.5060920000000  0.5066520000000  0.4954450000000 1.0
END
