TITL C-26365-7670-1 34.6500248023438 125000 -673.76515144787 0 0 97 (C1) n - 1
REM
REM in /rds/project/t2_vol4/rds-t2-cs072/BORA/CARBON/from-Arr/AIRSS/Generating-Clusters/GAP-ML-2020/Only-C1/SD-CG/HFTN-CG
REM
REM
REM
REM
REM
REM ./C.cell (11c1c37f851c82e70ff6c80c92926a4b)
REM AIRSS Version 0.9.1 bugfix July 2018 build 013d7b7c2542+ Fri, 06 Jul 2018 19:26:36 +0100
REM compiler GCC version 9.3.0
REM options -cpp -mtune=generic -march=x86-64 -g -O0
REM seed -1476098779 1302281034 -135117184 644975807 -928748748 -1701229596 1895315203 2051859631 -392958737 -828548855 1000111942 -1456418362 -691278023 923608422 188567107 264992783 -1152595455 1455761492 2041264158 -923713404 -1652324001 -11177776 1424297844 -1626596810 -848144464 1542147131 327823014 -1188343558 -720183737 -1871271454 475949 -2005442750 5449293
REM
CELL 1.54180   50.00000   50.00000   50.00000   90.00000   90.00000   90.00000
LATT -1
SFAC C  
C      1  0.4921790000000  0.4838700000000  0.5887700000000 1.0
C      1  0.4939590000000  0.5705060000000  0.5158670000000 1.0
C      1  0.5770450000000  0.5131540000000  0.4769230000000 1.0
C      1  0.4751490000000  0.5662170000000  0.5390870000000 1.0
C      1  0.4389890000000  0.4384350000000  0.4918850000000 1.0
C      1  0.4452500000000  0.5208480000000  0.5645800000000 1.0
C      1  0.4840550000000  0.4686490000000  0.4222900000000 1.0
C      1  0.4396470000000  0.4614670000000  0.4734990000000 1.0
C      1  0.5068720000000  0.4186980000000  0.4763820000000 1.0
C      1  0.5019210000000  0.5105010000000  0.4098000000000 1.0
C      1  0.5187880000000  0.4276830000000  0.5032130000000 1.0
C      1  0.5680930000000  0.5393090000000  0.4709780000000 1.0
C      1  0.4602180000000  0.5521210000000  0.4585720000000 1.0
C      1  0.5082080000000  0.4826270000000  0.4146460000000 1.0
C      1  0.5331800000000  0.5609680000000  0.5429860000000 1.0
C      1  0.5049010000000  0.4772120000000  0.5406720000000 1.0
C      1  0.4344520000000  0.4478040000000  0.5187510000000 1.0
C      1  0.4981190000000  0.5393160000000  0.5060340000000 1.0
C      1  0.5120800000000  0.5067400000000  0.5429290000000 1.0
C      1  0.4840230000000  0.4085920000000  0.4928250000000 1.0
C      1  0.5639750000000  0.4921150000000  0.4598000000000 1.0
C      1  0.5620720000000  0.4389810000000  0.4856710000000 1.0
C      1  0.5144520000000  0.5541480000000  0.5639240000000 1.0
C      1  0.4864440000000  0.5538950000000  0.5620010000000 1.0
C      1  0.4569470000000  0.5659270000000  0.4836220000000 1.0
C      1  0.5565070000000  0.4450490000000  0.4581020000000 1.0
C      1  0.5279680000000  0.5341740000000  0.5799440000000 1.0
C      1  0.4303120000000  0.4765120000000  0.5135690000000 1.0
C      1  0.5304630000000  0.4517350000000  0.4469620000000 1.0
C      1  0.5198870000000  0.4823130000000  0.5825670000000 1.0
C      1  0.5189370000000  0.4689300000000  0.4704620000000 1.0
C      1  0.5321760000000  0.4747650000000  0.4270080000000 1.0
C      1  0.5184990000000  0.5317990000000  0.4175650000000 1.0
C      1  0.4520240000000  0.5127770000000  0.4303030000000 1.0
C      1  0.5680000000000  0.5334730000000  0.5176260000000 1.0
C      1  0.5806950000000  0.4611400000000  0.4887140000000 1.0
C      1  0.5077190000000  0.4535600000000  0.4946790000000 1.0
C      1  0.4749180000000  0.4817960000000  0.5401370000000 1.0
C      1  0.4257390000000  0.5312930000000  0.4997590000000 1.0
C      1  0.4827330000000  0.4490020000000  0.4430800000000 1.0
C      1  0.4644910000000  0.4761250000000  0.5124660000000 1.0
C      1  0.5392720000000  0.4870300000000  0.4799750000000 1.0
C      1  0.4383240000000  0.4926120000000  0.5584230000000 1.0
C      1  0.4297590000000  0.5139340000000  0.4771760000000 1.0
C      1  0.5259090000000  0.5766470000000  0.4714290000000 1.0
C      1  0.4804240000000  0.4309620000000  0.5413770000000 1.0
C      1  0.4827610000000  0.5089730000000  0.5902550000000 1.0
C      1  0.5208800000000  0.5219630000000  0.5189730000000 1.0
C      1  0.4403720000000  0.5561210000000  0.5037350000000 1.0
C      1  0.4943410000000  0.4171870000000  0.5188070000000 1.0
C      1  0.5513730000000  0.5258840000000  0.5663350000000 1.0
C      1  0.5476080000000  0.4355550000000  0.5088190000000 1.0
C      1  0.5534660000000  0.5441470000000  0.4469620000000 1.0
C      1  0.5746000000000  0.4776440000000  0.5109550000000 1.0
C      1  0.5090940000000  0.5295170000000  0.4773750000000 1.0
C      1  0.5768970000000  0.5075940000000  0.5053690000000 1.0
C      1  0.4949490000000  0.4437870000000  0.5640030000000 1.0
C      1  0.4208750000000  0.5217110000000  0.5260490000000 1.0
C      1  0.5058820000000  0.4335650000000  0.4511110000000 1.0
C      1  0.4727930000000  0.5005380000000  0.5002670000000 1.0
C      1  0.4810110000000  0.5802560000000  0.4913210000000 1.0
C      1  0.5588830000000  0.4569380000000  0.5278300000000 1.0
C      1  0.4864320000000  0.5631710000000  0.4479330000000 1.0
C      1  0.4561460000000  0.4678740000000  0.5596780000000 1.0
C      1  0.4737560000000  0.5262880000000  0.5699060000000 1.0
C      1  0.5098630000000  0.5553770000000  0.4321830000000 1.0
C      1  0.4346680000000  0.5379690000000  0.5452040000000 1.0
C      1  0.4647270000000  0.4274900000000  0.4904500000000 1.0
C      1  0.5114130000000  0.4736950000000  0.5141170000000 1.0
C      1  0.4535160000000  0.4433450000000  0.5413090000000 1.0
C      1  0.5476430000000  0.4568380000000  0.5524630000000 1.0
C      1  0.4234750000000  0.4944560000000  0.5344250000000 1.0
C      1  0.4454380000000  0.5266790000000  0.4546060000000 1.0
C      1  0.5284790000000  0.5073620000000  0.5691960000000 1.0
C      1  0.4276070000000  0.4848940000000  0.4843620000000 1.0
C      1  0.4482530000000  0.5591020000000  0.5316940000000 1.0
C      1  0.5394190000000  0.5711960000000  0.4962300000000 1.0
C      1  0.5496050000000  0.4965800000000  0.4343170000000 1.0
C      1  0.5250000000000  0.5097160000000  0.4926110000000 1.0
C      1  0.5213040000000  0.4600850000000  0.5630480000000 1.0
C      1  0.4638340000000  0.4886420000000  0.4207650000000 1.0
C      1  0.5329320000000  0.5635730000000  0.4474680000000 1.0
C      1  0.5612430000000  0.5520990000000  0.4957690000000 1.0
C      1  0.4823050000000  0.5115380000000  0.5424950000000 1.0
C      1  0.4975300000000  0.5794820000000  0.4688950000000 1.0
C      1  0.5237460000000  0.5740150000000  0.5197500000000 1.0
C      1  0.5558220000000  0.5409050000000  0.5428030000000 1.0
C      1  0.4776050000000  0.4540780000000  0.4931740000000 1.0
C      1  0.4930590000000  0.4871230000000  0.4688430000000 1.0
C      1  0.4772880000000  0.4610010000000  0.5787980000000 1.0
C      1  0.5761530000000  0.4663550000000  0.4610710000000 1.0
C      1  0.4740340000000  0.5138710000000  0.4134000000000 1.0
C      1  0.5440440000000  0.5237170000000  0.4285900000000 1.0
C      1  0.5000390000000  0.4943180000000  0.4987450000000 1.0
C      1  0.4769780000000  0.5225050000000  0.5155300000000 1.0
C      1  0.4950000000000  0.5136420000000  0.4587500000000 1.0
C      1  0.4700820000000  0.4642260000000  0.4662270000000 1.0
END
