TITL C-260495-6708-1 14.7748227973312 125000 -540.451461009492 0 0 77 (C1) n - 1
REM
REM in /rds/project/t2_vol4/rds-t2-cs072/BORA/CARBON/from-Arr/AIRSS/Generating-Clusters/GAP-ML-2020/Only-C1/SD-CG/HFTN-CG
REM
REM
REM
REM
REM
REM ./C.cell (11c1c37f851c82e70ff6c80c92926a4b)
REM AIRSS Version 0.9.1 bugfix July 2018 build 013d7b7c2542+ Fri, 06 Jul 2018 19:26:36 +0100
REM compiler GCC version 9.3.0
REM options -cpp -mtune=generic -march=x86-64 -g -O0
REM seed -2091649547 -636023683 -2059930466 -275917378 -173340736 -305329050 1081894697 131556894 -1062187626 -145909807 -6226842 344803436 288914677 -1092549600 1708140447 -1335334800 176258652 -1523641492 305841643 -545506175 -847041742 1515446200 -1218984479 -1912710509 1131184400 -1001012723 -1735490980 199801936 -1338981219 -274638326 193756372 -2113068012 1785181903
REM
CELL 1.54180   50.00000   50.00000   50.00000   90.00000   90.00000   90.00000
LATT -1
SFAC C  
C      1  0.5645100000000  0.4888320000000  0.5354010000000 1.0
C      1  0.4318500000000  0.5108300000000  0.5202410000000 1.0
C      1  0.4695800000000  0.4701770000000  0.4330630000000 1.0
C      1  0.4467690000000  0.4626490000000  0.5240420000000 1.0
C      1  0.5638410000000  0.5437810000000  0.5260180000000 1.0
C      1  0.5707180000000  0.5090070000000  0.4961210000000 1.0
C      1  0.4323740000000  0.4623460000000  0.4669810000000 1.0
C      1  0.4755250000000  0.4497120000000  0.5573800000000 1.0
C      1  0.5466950000000  0.5177930000000  0.4564810000000 1.0
C      1  0.5099980000000  0.5386610000000  0.5451260000000 1.0
C      1  0.4627440000000  0.5443250000000  0.5370130000000 1.0
C      1  0.4829020000000  0.5264590000000  0.4807300000000 1.0
C      1  0.4921200000000  0.5655640000000  0.4586090000000 1.0
C      1  0.4674780000000  0.4982920000000  0.5515210000000 1.0
C      1  0.5538460000000  0.5176430000000  0.5426180000000 1.0
C      1  0.5128390000000  0.4942700000000  0.5203480000000 1.0
C      1  0.5072350000000  0.5290620000000  0.4355210000000 1.0
C      1  0.4813470000000  0.4336550000000  0.5341040000000 1.0
C      1  0.4458090000000  0.4405480000000  0.4734900000000 1.0
C      1  0.5432300000000  0.4452860000000  0.5478140000000 1.0
C      1  0.5535280000000  0.4678790000000  0.4607050000000 1.0
C      1  0.5406410000000  0.4393560000000  0.4952040000000 1.0
C      1  0.5596140000000  0.4620080000000  0.4887430000000 1.0
C      1  0.5701570000000  0.4826800000000  0.5077120000000 1.0
C      1  0.5302670000000  0.5395890000000  0.4479070000000 1.0
C      1  0.4581760000000  0.4704640000000  0.5495920000000 1.0
C      1  0.5255390000000  0.4845230000000  0.4274740000000 1.0
C      1  0.4221590000000  0.4819300000000  0.4852730000000 1.0
C      1  0.5282180000000  0.5335770000000  0.5035540000000 1.0
C      1  0.5107280000000  0.5238000000000  0.5698800000000 1.0
C      1  0.5240660000000  0.4913270000000  0.4937140000000 1.0
C      1  0.5521360000000  0.4715030000000  0.5541870000000 1.0
C      1  0.4848600000000  0.5030450000000  0.5219120000000 1.0
C      1  0.5381020000000  0.5133700000000  0.5693660000000 1.0
C      1  0.4814540000000  0.5803380000000  0.4803280000000 1.0
C      1  0.5036120000000  0.5878520000000  0.4978880000000 1.0
C      1  0.4872130000000  0.5330000000000  0.5268650000000 1.0
C      1  0.4988080000000  0.5389790000000  0.4998530000000 1.0
C      1  0.5224900000000  0.4341520000000  0.4722640000000 1.0
C      1  0.5075820000000  0.4816260000000  0.4743220000000 1.0
C      1  0.5212770000000  0.5632500000000  0.4626680000000 1.0
C      1  0.5440150000000  0.5149030000000  0.4855800000000 1.0
C      1  0.5472780000000  0.4917340000000  0.4449190000000 1.0
C      1  0.4931050000000  0.4354440000000  0.4662330000000 1.0
C      1  0.4476680000000  0.5202940000000  0.5418210000000 1.0
C      1  0.5074520000000  0.4794170000000  0.5773620000000 1.0
C      1  0.4297590000000  0.5271120000000  0.4949230000000 1.0
C      1  0.5178390000000  0.5650570000000  0.5352290000000 1.0
C      1  0.4627700000000  0.5181300000000  0.4376520000000 1.0
C      1  0.5344220000000  0.4329500000000  0.5218160000000 1.0
C      1  0.4912420000000  0.5020370000000  0.5704940000000 1.0
C      1  0.4732140000000  0.5025430000000  0.4938510000000 1.0
C      1  0.5052160000000  0.5037500000000  0.4232770000000 1.0
C      1  0.4695990000000  0.4338880000000  0.4840970000000 1.0
C      1  0.4247840000000  0.5078960000000  0.4735930000000 1.0
C      1  0.4637520000000  0.4408290000000  0.5125830000000 1.0
C      1  0.5354550000000  0.4476440000000  0.4512280000000 1.0
C      1  0.4401680000000  0.5046570000000  0.4492850000000 1.0
C      1  0.4816150000000  0.4817650000000  0.4786010000000 1.0
C      1  0.5282600000000  0.5754990000000  0.4888670000000 1.0
C      1  0.4686560000000  0.5695090000000  0.5245820000000 1.0
C      1  0.4828350000000  0.5364510000000  0.4512600000000 1.0
C      1  0.5191210000000  0.4363900000000  0.5605730000000 1.0
C      1  0.4995490000000  0.4528820000000  0.5727070000000 1.0
C      1  0.5088830000000  0.4255290000000  0.5355290000000 1.0
C      1  0.4595990000000  0.5700460000000  0.4966350000000 1.0
C      1  0.5803290000000  0.5312960000000  0.5089780000000 1.0
C      1  0.5167530000000  0.4579110000000  0.4326680000000 1.0
C      1  0.4442910000000  0.4761880000000  0.4450240000000 1.0
C      1  0.5361310000000  0.4860480000000  0.5734940000000 1.0
C      1  0.4296260000000  0.4824550000000  0.5127110000000 1.0
C      1  0.5280350000000  0.5188140000000  0.5291460000000 1.0
C      1  0.5389460000000  0.5599280000000  0.5141210000000 1.0
C      1  0.4778170000000  0.4966480000000  0.4244930000000 1.0
C      1  0.4900930000000  0.4511470000000  0.4409500000000 1.0
C      1  0.4434130000000  0.5497070000000  0.4887490000000 1.0
C      1  0.4962740000000  0.5803590000000  0.5249350000000 1.0
END
