TITL C-2699-3823-11 60.8072059153513 125000 -209.845284283467 0 0 31 (C1) n - 1
REM
REM in /rds/project/t2_vol4/rds-t2-cs072/BORA/CARBON/from-Arr/AIRSS/Generating-Clusters/GAP-ML-2020/Only-C1/SD-CG/HFTN-CG
REM
REM
REM
REM
REM
REM ./C.cell (11c1c37f851c82e70ff6c80c92926a4b)
REM AIRSS Version 0.9.1 bugfix July 2018 build 013d7b7c2542+ Fri, 06 Jul 2018 19:26:36 +0100
REM compiler GCC version 9.3.0
REM options -cpp -mtune=generic -march=x86-64 -g -O0
REM seed 1051871462 -1910484160 -1771706134 889120801 -1857437352 -1750265868 351431317 -2131054021 207937783 5009436 -1636141588 -1784344867 845712618 -641569266 -1657579133 476597720 -275214611 -942122829 736159595 -296572350 1010748303 -1079052183 -1212431918 -1857297469 2072739554 -430649352 -1290651994 -1999354450 200606585 580949944 -1084735695 1218731462 -176978927
REM
CELL 1.54180   50.00000   50.00000   50.00000   90.00000   90.00000   90.00000
LATT -1
SFAC C  
C      1  0.4729450000000  0.4427100000000  0.5385640000000 1.0
C      1  0.4538710000000  0.5165450000000  0.4793300000000 1.0
C      1  0.5354530000000  0.4971150000000  0.4801080000000 1.0
C      1  0.4951400000000  0.5535380000000  0.4692260000000 1.0
C      1  0.4917300000000  0.5552060000000  0.5158770000000 1.0
C      1  0.4601750000000  0.4844180000000  0.5196520000000 1.0
C      1  0.5249250000000  0.5184930000000  0.5240780000000 1.0
C      1  0.4762430000000  0.5552790000000  0.4919350000000 1.0
C      1  0.5349350000000  0.5057970000000  0.5696090000000 1.0
C      1  0.4670270000000  0.5158400000000  0.4531760000000 1.0
C      1  0.4786760000000  0.4892410000000  0.4503340000000 1.0
C      1  0.5274760000000  0.4698030000000  0.5206200000000 1.0
C      1  0.4906550000000  0.4380150000000  0.5203880000000 1.0
C      1  0.5098180000000  0.4519690000000  0.5056430000000 1.0
C      1  0.5255080000000  0.4680590000000  0.5486520000000 1.0
C      1  0.5062210000000  0.4908740000000  0.4437880000000 1.0
C      1  0.4755940000000  0.4735860000000  0.4745440000000 1.0
C      1  0.4757180000000  0.4724050000000  0.5380190000000 1.0
C      1  0.5440270000000  0.4804880000000  0.5680360000000 1.0
C      1  0.5008440000000  0.4830620000000  0.5489960000000 1.0
C      1  0.5209420000000  0.4769450000000  0.4649440000000 1.0
C      1  0.4890520000000  0.5344970000000  0.4489870000000 1.0
C      1  0.5133680000000  0.5183880000000  0.4438240000000 1.0
C      1  0.5306670000000  0.5224650000000  0.4669280000000 1.0
C      1  0.5342380000000  0.4958230000000  0.5086500000000 1.0
C      1  0.5018530000000  0.4619800000000  0.4805740000000 1.0
C      1  0.5201170000000  0.5442660000000  0.4815360000000 1.0
C      1  0.5150570000000  0.5411410000000  0.5097310000000 1.0
C      1  0.4598300000000  0.4900690000000  0.4933560000000 1.0
C      1  0.5150220000000  0.5108170000000  0.5500380000000 1.0
C      1  0.4528710000000  0.5411660000000  0.4908580000000 1.0
END
