TITL C-260510-6746-3 0.259585869091819 125000 -585.635789412882 0 0 85 (C1) n - 1
REM
REM in /rds/project/t2_vol4/rds-t2-cs072/BORA/CARBON/from-Arr/AIRSS/Generating-Clusters/GAP-ML-2020/Only-C1/SD-CG/HFTN-CG
REM
REM
REM
REM
REM
REM ./C.cell (11c1c37f851c82e70ff6c80c92926a4b)
REM AIRSS Version 0.9.1 bugfix July 2018 build 013d7b7c2542+ Fri, 06 Jul 2018 19:26:36 +0100
REM compiler GCC version 9.3.0
REM options -cpp -mtune=generic -march=x86-64 -g -O0
REM seed -1915072757 -1306246618 -1361907199 -1971585828 294416631 -780197744 16482631 1773613740 965831290 -202409915 -1872527886 -1659450856 -605245417 -1686973551 -316437377 260043107 754901597 -980867652 364801179 1705103104 -1857881529 397085744 -987577432 549859819 -686232723 66278280 147028908 -34025432 -274460561 598839481 1693139042 646007437 -436108091
REM
CELL 1.54180   50.00000   50.00000   50.00000   90.00000   90.00000   90.00000
LATT -1
SFAC C  
C      1  0.4609520000000  0.5354680000000  0.4979680000000 1.0
C      1  0.4276600000000  0.5097930000000  0.5552620000000 1.0
C      1  0.4364070000000  0.4667490000000  0.4527480000000 1.0
C      1  0.4477760000000  0.5463990000000  0.4702050000000 1.0
C      1  0.5010350000000  0.4259930000000  0.5146760000000 1.0
C      1  0.4986410000000  0.4306240000000  0.4590990000000 1.0
C      1  0.4618710000000  0.5747330000000  0.5300270000000 1.0
C      1  0.5064980000000  0.5131660000000  0.4901680000000 1.0
C      1  0.5226740000000  0.4804520000000  0.5759220000000 1.0
C      1  0.4802920000000  0.5063950000000  0.5350280000000 1.0
C      1  0.5391680000000  0.4982300000000  0.4393370000000 1.0
C      1  0.4617520000000  0.4554440000000  0.4458620000000 1.0
C      1  0.5209350000000  0.5259260000000  0.5597710000000 1.0
C      1  0.4803710000000  0.4993170000000  0.4342090000000 1.0
C      1  0.5357140000000  0.4579520000000  0.5232010000000 1.0
C      1  0.5790360000000  0.4779570000000  0.5223790000000 1.0
C      1  0.4985930000000  0.5831290000000  0.4957640000000 1.0
C      1  0.5092200000000  0.4581480000000  0.4490920000000 1.0
C      1  0.5676140000000  0.4943410000000  0.4499180000000 1.0
C      1  0.4805130000000  0.5790310000000  0.4739330000000 1.0
C      1  0.4352600000000  0.4459280000000  0.4956250000000 1.0
C      1  0.5809840000000  0.4679700000000  0.4971030000000 1.0
C      1  0.5591420000000  0.4488880000000  0.5636990000000 1.0
C      1  0.5333130000000  0.4991760000000  0.5556420000000 1.0
C      1  0.5597770000000  0.5155920000000  0.5470120000000 1.0
C      1  0.4527010000000  0.5111430000000  0.5673360000000 1.0
C      1  0.4846490000000  0.4714240000000  0.4383970000000 1.0
C      1  0.4945700000000  0.5337590000000  0.5497970000000 1.0
C      1  0.4486970000000  0.4883270000000  0.5034970000000 1.0
C      1  0.4406050000000  0.4635110000000  0.5203760000000 1.0
C      1  0.5612090000000  0.4670230000000  0.4544830000000 1.0
C      1  0.5388440000000  0.5451500000000  0.4500520000000 1.0
C      1  0.5266790000000  0.5238290000000  0.4337470000000 1.0
C      1  0.4943520000000  0.4832090000000  0.4939220000000 1.0
C      1  0.4552680000000  0.4648730000000  0.5468910000000 1.0
C      1  0.5146870000000  0.4397660000000  0.5349250000000 1.0
C      1  0.4511590000000  0.5649050000000  0.5065150000000 1.0
C      1  0.4978220000000  0.4864030000000  0.5216580000000 1.0
C      1  0.5638930000000  0.5481990000000  0.4944470000000 1.0
C      1  0.4578440000000  0.4301320000000  0.4883300000000 1.0
C      1  0.4231430000000  0.4622590000000  0.4772740000000 1.0
C      1  0.5258120000000  0.4882660000000  0.5276860000000 1.0
C      1  0.4707730000000  0.4873130000000  0.5582920000000 1.0
C      1  0.5309560000000  0.5107310000000  0.5083300000000 1.0
C      1  0.5074630000000  0.4467910000000  0.5618570000000 1.0
C      1  0.4100630000000  0.5080860000000  0.5048950000000 1.0
C      1  0.5362020000000  0.4681110000000  0.4391360000000 1.0
C      1  0.4555690000000  0.5587630000000  0.5524040000000 1.0
C      1  0.4553290000000  0.5134410000000  0.5176860000000 1.0
C      1  0.5358340000000  0.4505780000000  0.4931060000000 1.0
C      1  0.5437840000000  0.5652720000000  0.5053340000000 1.0
C      1  0.5638410000000  0.4550170000000  0.4801450000000 1.0
C      1  0.4237050000000  0.4923540000000  0.4855450000000 1.0
C      1  0.5438140000000  0.5391230000000  0.5487690000000 1.0
C      1  0.4573730000000  0.5374860000000  0.4460940000000 1.0
C      1  0.4705560000000  0.4343220000000  0.4628460000000 1.0
C      1  0.4949820000000  0.5676870000000  0.4522780000000 1.0
C      1  0.5169210000000  0.4706010000000  0.4772490000000 1.0
C      1  0.5482340000000  0.5009610000000  0.4872700000000 1.0
C      1  0.5126910000000  0.4087040000000  0.4693450000000 1.0
C      1  0.4981740000000  0.5228750000000  0.4306010000000 1.0
C      1  0.5717250000000  0.5131870000000  0.4725850000000 1.0
C      1  0.4669560000000  0.5371250000000  0.5635940000000 1.0
C      1  0.5607550000000  0.5399520000000  0.4668790000000 1.0
C      1  0.5224990000000  0.5662700000000  0.4597520000000 1.0
C      1  0.4343500000000  0.4952370000000  0.4556300000000 1.0
C      1  0.5340060000000  0.4541270000000  0.5734490000000 1.0
C      1  0.4888450000000  0.5345780000000  0.4892020000000 1.0
C      1  0.4897570000000  0.5781220000000  0.5225050000000 1.0
C      1  0.5177900000000  0.4254670000000  0.4911070000000 1.0
C      1  0.4602950000000  0.4433030000000  0.5326800000000 1.0
C      1  0.4240020000000  0.5145440000000  0.5288020000000 1.0
C      1  0.5626660000000  0.4594530000000  0.5383760000000 1.0
C      1  0.4831790000000  0.5463990000000  0.4372630000000 1.0
C      1  0.4730720000000  0.4282000000000  0.5124620000000 1.0
C      1  0.5332390000000  0.5589230000000  0.5312320000000 1.0
C      1  0.5779200000000  0.5240720000000  0.5024710000000 1.0
C      1  0.5770620000000  0.5073570000000  0.5259600000000 1.0
C      1  0.4690030000000  0.4780240000000  0.4864260000000 1.0
C      1  0.5262470000000  0.4976770000000  0.4694630000000 1.0
C      1  0.5248060000000  0.5758780000000  0.4870080000000 1.0
C      1  0.5055040000000  0.5595720000000  0.5363850000000 1.0
C      1  0.4948630000000  0.4726920000000  0.5701830000000 1.0
C      1  0.4536150000000  0.5729480000000  0.4796840000000 1.0
C      1  0.4544500000000  0.5096960000000  0.4427340000000 1.0
END
