TITL C-26391-1095-5 -26.2074246418167 125000 -1072.92080927973 0 0 155 (C1) n - 1
REM
REM in /rds/project/t2_vol4/rds-t2-cs072/BORA/CARBON/from-Arr/AIRSS/Generating-Clusters/GAP-ML-2020/Only-C1/SD-CG/HFTN-CG
REM
REM
REM
REM
REM
REM ./C.cell (11c1c37f851c82e70ff6c80c92926a4b)
REM AIRSS Version 0.9.1 bugfix July 2018 build 013d7b7c2542+ Fri, 06 Jul 2018 19:26:36 +0100
REM compiler GCC version 9.3.0
REM options -cpp -mtune=generic -march=x86-64 -g -O0
REM seed -1035441633 404167300 1035272775 -1046048896 -487624162 -1521804769 -1523840557 -1910835915 1607403122 1521814283 1833994965 -1216536928 2039899441 -1091900592 -13273722 -2102682942 -1711911980 -1928179227 -1757256758 1930878947 1167978940 -2027720782 -1091530385 -701068678 1493711624 -1486409536 -392575889 -1409897871 1586686687 1062430071 -1911570429 -812946701 -33644458
REM
CELL 1.54180   50.00000   50.00000   50.00000   90.00000   90.00000   90.00000
LATT -1
SFAC C  
C      1  0.4747450000000  0.5061290000000  0.4417790000000 1.0
C      1  0.4446110000000  0.5839950000000  0.5404250000000 1.0
C      1  0.5467420000000  0.5133410000000  0.5569000000000 1.0
C      1  0.5594820000000  0.4274090000000  0.5375380000000 1.0
C      1  0.4904900000000  0.3957750000000  0.4992310000000 1.0
C      1  0.5528590000000  0.5788710000000  0.4625000000000 1.0
C      1  0.5272370000000  0.3998620000000  0.4845480000000 1.0
C      1  0.5294830000000  0.5775060000000  0.4271560000000 1.0
C      1  0.4662090000000  0.5034530000000  0.4953020000000 1.0
C      1  0.4520930000000  0.4544010000000  0.5838040000000 1.0
C      1  0.5647290000000  0.5136010000000  0.5139450000000 1.0
C      1  0.4566410000000  0.5828530000000  0.4542570000000 1.0
C      1  0.5208230000000  0.5130540000000  0.4396120000000 1.0
C      1  0.4643570000000  0.5099990000000  0.5248080000000 1.0
C      1  0.5658480000000  0.5104910000000  0.4248740000000 1.0
C      1  0.5398220000000  0.5828770000000  0.5332770000000 1.0
C      1  0.5942220000000  0.5465040000000  0.5305360000000 1.0
C      1  0.5299000000000  0.4835330000000  0.5333680000000 1.0
C      1  0.4897360000000  0.5880920000000  0.5154280000000 1.0
C      1  0.5226100000000  0.4636210000000  0.5528700000000 1.0
C      1  0.4961410000000  0.4161590000000  0.4453030000000 1.0
C      1  0.5745850000000  0.5131140000000  0.5744050000000 1.0
C      1  0.4206450000000  0.5089200000000  0.5022560000000 1.0
C      1  0.5090580000000  0.5643730000000  0.4133510000000 1.0
C      1  0.4951810000000  0.5247220000000  0.4503150000000 1.0
C      1  0.4348880000000  0.5684300000000  0.4683590000000 1.0
C      1  0.5187780000000  0.5818700000000  0.5539040000000 1.0
C      1  0.4833210000000  0.5487790000000  0.4866290000000 1.0
C      1  0.4476850000000  0.5057550000000  0.4557960000000 1.0
C      1  0.5025680000000  0.4499330000000  0.5369140000000 1.0
C      1  0.5841620000000  0.5036700000000  0.4460930000000 1.0
C      1  0.4913020000000  0.4532330000000  0.4885750000000 1.0
C      1  0.4805660000000  0.4897490000000  0.5376160000000 1.0
C      1  0.5256040000000  0.5576370000000  0.5700060000000 1.0
C      1  0.5526870000000  0.4720300000000  0.4538410000000 1.0
C      1  0.4906790000000  0.5206570000000  0.4822800000000 1.0
C      1  0.4573750000000  0.5054510000000  0.5859920000000 1.0
C      1  0.5483790000000  0.4732960000000  0.5936940000000 1.0
C      1  0.5213850000000  0.4761440000000  0.5818890000000 1.0
C      1  0.4929440000000  0.5888640000000  0.5454190000000 1.0
C      1  0.4136950000000  0.4575840000000  0.5160980000000 1.0
C      1  0.5918610000000  0.5003570000000  0.5526850000000 1.0
C      1  0.5503150000000  0.4664680000000  0.4240470000000 1.0
C      1  0.5091860000000  0.5264700000000  0.5299350000000 1.0
C      1  0.4135230000000  0.4630860000000  0.5442650000000 1.0
C      1  0.3995790000000  0.5126760000000  0.4799580000000 1.0
C      1  0.5369660000000  0.4285920000000  0.5806990000000 1.0
C      1  0.5867340000000  0.4632530000000  0.5152630000000 1.0
C      1  0.4689710000000  0.6021980000000  0.4996170000000 1.0
C      1  0.4696740000000  0.5059640000000  0.4106320000000 1.0
C      1  0.5914720000000  0.5087590000000  0.5026420000000 1.0
C      1  0.5029640000000  0.4700150000000  0.4688340000000 1.0
C      1  0.5475500000000  0.5319350000000  0.4358980000000 1.0
C      1  0.4038390000000  0.5260980000000  0.4537810000000 1.0
C      1  0.5178560000000  0.3982770000000  0.5122910000000 1.0
C      1  0.5182750000000  0.4165020000000  0.5656690000000 1.0
C      1  0.5277960000000  0.5921490000000  0.4528030000000 1.0
C      1  0.5440950000000  0.5461980000000  0.5879510000000 1.0
C      1  0.5013760000000  0.4012380000000  0.4715000000000 1.0
C      1  0.4807380000000  0.5371040000000  0.5321660000000 1.0
C      1  0.5599780000000  0.4294010000000  0.4942560000000 1.0
C      1  0.4755560000000  0.5978280000000  0.4710320000000 1.0
C      1  0.5052800000000  0.5973550000000  0.4703100000000 1.0
C      1  0.5152430000000  0.5186360000000  0.4983010000000 1.0
C      1  0.5070270000000  0.5008210000000  0.5439800000000 1.0
C      1  0.4393250000000  0.5464900000000  0.4270140000000 1.0
C      1  0.5768030000000  0.4355650000000  0.5150790000000 1.0
C      1  0.4521050000000  0.5311240000000  0.5723920000000 1.0
C      1  0.4599720000000  0.4423420000000  0.5236850000000 1.0
C      1  0.4008060000000  0.4844680000000  0.4749100000000 1.0
C      1  0.5222750000000  0.5050630000000  0.5743190000000 1.0
C      1  0.4230600000000  0.4362550000000  0.5503040000000 1.0
C      1  0.4422260000000  0.4820210000000  0.5768840000000 1.0
C      1  0.4425990000000  0.4318470000000  0.5696060000000 1.0
C      1  0.5201210000000  0.4919950000000  0.4848360000000 1.0
C      1  0.4517840000000  0.4766890000000  0.4590980000000 1.0
C      1  0.5118050000000  0.5602650000000  0.4837180000000 1.0
C      1  0.4734930000000  0.4328420000000  0.4364610000000 1.0
C      1  0.5633620000000  0.5783620000000  0.4891470000000 1.0
C      1  0.4810000000000  0.4771790000000  0.4490210000000 1.0
C      1  0.4948230000000  0.4723550000000  0.5952190000000 1.0
C      1  0.4313000000000  0.5582430000000  0.5368720000000 1.0
C      1  0.4754030000000  0.5587310000000  0.5127210000000 1.0
C      1  0.5370200000000  0.4990330000000  0.4619780000000 1.0
C      1  0.5766620000000  0.5543790000000  0.5508840000000 1.0
C      1  0.4766330000000  0.4620750000000  0.5384450000000 1.0
C      1  0.4637320000000  0.4491440000000  0.4944740000000 1.0
C      1  0.5340500000000  0.5392280000000  0.4883520000000 1.0
C      1  0.4816530000000  0.4602320000000  0.4229080000000 1.0
C      1  0.4639000000000  0.3988020000000  0.5103400000000 1.0
C      1  0.5288120000000  0.4738050000000  0.5064180000000 1.0
C      1  0.4511620000000  0.4748110000000  0.4882630000000 1.0
C      1  0.5176830000000  0.4961010000000  0.4123790000000 1.0
C      1  0.5549650000000  0.4962520000000  0.5349070000000 1.0
C      1  0.5376250000000  0.4488650000000  0.4936000000000 1.0
C      1  0.4295990000000  0.4328120000000  0.5209330000000 1.0
C      1  0.5977360000000  0.5180590000000  0.5304910000000 1.0
C      1  0.5893020000000  0.4810330000000  0.4919810000000 1.0
C      1  0.5514350000000  0.4102560000000  0.4751190000000 1.0
C      1  0.4893810000000  0.4235390000000  0.5752660000000 1.0
C      1  0.5417220000000  0.4253640000000  0.4535600000000 1.0
C      1  0.4471450000000  0.4290870000000  0.4772000000000 1.0
C      1  0.5335750000000  0.4523410000000  0.4653210000000 1.0
C      1  0.4444320000000  0.5180660000000  0.4825250000000 1.0
C      1  0.5517120000000  0.5625140000000  0.4371670000000 1.0
C      1  0.4621150000000  0.4769370000000  0.4076950000000 1.0
C      1  0.4804940000000  0.4957760000000  0.5970520000000 1.0
C      1  0.5084550000000  0.4668590000000  0.4124370000000 1.0
C      1  0.5415000000000  0.5899830000000  0.5061940000000 1.0
C      1  0.4877810000000  0.5510470000000  0.4312780000000 1.0
C      1  0.5318250000000  0.5384830000000  0.5471100000000 1.0
C      1  0.5814460000000  0.5271850000000  0.4625250000000 1.0
C      1  0.4397010000000  0.4119380000000  0.4983420000000 1.0
C      1  0.5314820000000  0.4113430000000  0.5372780000000 1.0
C      1  0.5807210000000  0.4799690000000  0.4635110000000 1.0
C      1  0.4316160000000  0.4618080000000  0.4410900000000 1.0
C      1  0.4509980000000  0.5460150000000  0.4825000000000 1.0
C      1  0.4067730000000  0.4781410000000  0.4488190000000 1.0
C      1  0.4432690000000  0.5968680000000  0.5122010000000 1.0
C      1  0.4434260000000  0.5581930000000  0.5099560000000 1.0
C      1  0.4803380000000  0.4482410000000  0.5890410000000 1.0
C      1  0.5591750000000  0.4996220000000  0.5962360000000 1.0
C      1  0.4324210000000  0.5097750000000  0.5340990000000 1.0
C      1  0.5570050000000  0.4476050000000  0.5831060000000 1.0
C      1  0.5138580000000  0.5874350000000  0.4968050000000 1.0
C      1  0.5514950000000  0.5566430000000  0.5349920000000 1.0
C      1  0.5105280000000  0.4505740000000  0.5089000000000 1.0
C      1  0.5718560000000  0.5418480000000  0.5762270000000 1.0
C      1  0.4241740000000  0.5015450000000  0.4143620000000 1.0
C      1  0.5223900000000  0.4242940000000  0.4338610000000 1.0
C      1  0.4680600000000  0.5778770000000  0.5551880000000 1.0
C      1  0.5673510000000  0.4482890000000  0.5559970000000 1.0
C      1  0.4056190000000  0.5035280000000  0.4351020000000 1.0
C      1  0.4289200000000  0.5797620000000  0.4955060000000 1.0
C      1  0.5822930000000  0.5546640000000  0.5013480000000 1.0
C      1  0.5944350000000  0.5331850000000  0.4857570000000 1.0
C      1  0.4202660000000  0.5493180000000  0.4480530000000 1.0
C      1  0.4317750000000  0.5343690000000  0.5514470000000 1.0
C      1  0.4470440000000  0.4358380000000  0.4489320000000 1.0
C      1  0.5488930000000  0.4918930000000  0.4119330000000 1.0
C      1  0.4653460000000  0.4143790000000  0.5623280000000 1.0
C      1  0.4433180000000  0.5221080000000  0.4110180000000 1.0
C      1  0.4617180000000  0.5634790000000  0.4334880000000 1.0
C      1  0.4968800000000  0.5141760000000  0.4002810000000 1.0
C      1  0.5562390000000  0.5419280000000  0.5095840000000 1.0
C      1  0.4715320000000  0.5484600000000  0.5600470000000 1.0
C      1  0.4986310000000  0.5415050000000  0.4038050000000 1.0
C      1  0.4257680000000  0.4864580000000  0.5537060000000 1.0
C      1  0.5363140000000  0.5195510000000  0.5966340000000 1.0
C      1  0.4207090000000  0.4780640000000  0.4968170000000 1.0
C      1  0.4676670000000  0.4135010000000  0.5341120000000 1.0
C      1  0.4358440000000  0.4751560000000  0.4150950000000 1.0
C      1  0.5788150000000  0.4749980000000  0.5411990000000 1.0
C      1  0.5284210000000  0.4485480000000  0.4181940000000 1.0
C      1  0.5509820000000  0.5260870000000  0.4656090000000 1.0
END
