TITL C-26391-1095-6 -0.200260585634022 125000 -773.409345518526 0 0 111 (C1) n - 1
REM
REM in /rds/project/t2_vol4/rds-t2-cs072/BORA/CARBON/from-Arr/AIRSS/Generating-Clusters/GAP-ML-2020/Only-C1/SD-CG/HFTN-CG
REM
REM
REM
REM
REM
REM ./C.cell (11c1c37f851c82e70ff6c80c92926a4b)
REM AIRSS Version 0.9.1 bugfix July 2018 build 013d7b7c2542+ Fri, 06 Jul 2018 19:26:36 +0100
REM compiler GCC version 9.3.0
REM options -cpp -mtune=generic -march=x86-64 -g -O0
REM seed -850926264 930519093 1092173067 533630660 -1234621109 1476538347 -457471086 1996752268 -182506639 -1806112993 -961474137 106755858 -1078576093 1217571711 -866998554 -1089979035 440336490 1241397547 -1030354180 -774271926 624458039 -1365797183 2017183265 -446879143 1282901669 -2072472562 449029790 1280211762 251933375 775588991 -1616164360 -1736140019 -1912170927
REM
CELL 1.54180   50.00000   50.00000   50.00000   90.00000   90.00000   90.00000
LATT -1
SFAC C  
C      1  0.4345570000000  0.4454720000000  0.4901010000000 1.0
C      1  0.5405820000000  0.4454050000000  0.4337430000000 1.0
C      1  0.5855080000000  0.4674130000000  0.5021010000000 1.0
C      1  0.4684890000000  0.5029770000000  0.4276040000000 1.0
C      1  0.5293730000000  0.4614080000000  0.4877610000000 1.0
C      1  0.4302710000000  0.4780840000000  0.4439350000000 1.0
C      1  0.5582910000000  0.5588270000000  0.5034130000000 1.0
C      1  0.5119470000000  0.4498130000000  0.5057350000000 1.0
C      1  0.4963000000000  0.5137460000000  0.5964180000000 1.0
C      1  0.4618360000000  0.4644290000000  0.5278270000000 1.0
C      1  0.5423490000000  0.5274910000000  0.5575570000000 1.0
C      1  0.4901350000000  0.4217390000000  0.5287990000000 1.0
C      1  0.5160290000000  0.5689760000000  0.4631000000000 1.0
C      1  0.5142600000000  0.5602420000000  0.4160710000000 1.0
C      1  0.4490630000000  0.4373480000000  0.4669110000000 1.0
C      1  0.5403030000000  0.4845080000000  0.5749110000000 1.0
C      1  0.4874640000000  0.5412590000000  0.5120480000000 1.0
C      1  0.4290040000000  0.5344720000000  0.4973950000000 1.0
C      1  0.5175110000000  0.5034480000000  0.5120290000000 1.0
C      1  0.4699790000000  0.5071380000000  0.5458030000000 1.0
C      1  0.4744380000000  0.5088850000000  0.4842880000000 1.0
C      1  0.4936920000000  0.4760350000000  0.4595540000000 1.0
C      1  0.4068530000000  0.4870070000000  0.5051380000000 1.0
C      1  0.5449120000000  0.4281090000000  0.4549050000000 1.0
C      1  0.4185990000000  0.4943870000000  0.5302430000000 1.0
C      1  0.4751820000000  0.5847650000000  0.4912900000000 1.0
C      1  0.4919700000000  0.4342750000000  0.4341010000000 1.0
C      1  0.5769880000000  0.4609360000000  0.4745610000000 1.0
C      1  0.5137140000000  0.4859840000000  0.5352750000000 1.0
C      1  0.4967730000000  0.5805940000000  0.5330370000000 1.0
C      1  0.4674240000000  0.4584140000000  0.5564250000000 1.0
C      1  0.4739260000000  0.4950920000000  0.4584940000000 1.0
C      1  0.5760250000000  0.5333310000000  0.4759760000000 1.0
C      1  0.5167190000000  0.5851520000000  0.5121540000000 1.0
C      1  0.4660200000000  0.5307310000000  0.5280300000000 1.0
C      1  0.5022760000000  0.5607340000000  0.5564470000000 1.0
C      1  0.5172830000000  0.4682050000000  0.5804200000000 1.0
C      1  0.4712740000000  0.4227410000000  0.5065600000000 1.0
C      1  0.4746090000000  0.5289890000000  0.5850750000000 1.0
C      1  0.5455360000000  0.5707810000000  0.4570480000000 1.0
C      1  0.5666390000000  0.4817810000000  0.4580230000000 1.0
C      1  0.4135550000000  0.4635700000000  0.4895080000000 1.0
C      1  0.5324030000000  0.4129330000000  0.4967540000000 1.0
C      1  0.4141940000000  0.5140330000000  0.5493240000000 1.0
C      1  0.5303380000000  0.5134390000000  0.4608400000000 1.0
C      1  0.5338310000000  0.5616660000000  0.5611790000000 1.0
C      1  0.4763760000000  0.5523140000000  0.5686690000000 1.0
C      1  0.5227850000000  0.4161850000000  0.4692430000000 1.0
C      1  0.5479160000000  0.5802810000000  0.5480880000000 1.0
C      1  0.4110930000000  0.4780570000000  0.4641000000000 1.0
C      1  0.4526930000000  0.5702320000000  0.4784990000000 1.0
C      1  0.5324160000000  0.4368350000000  0.5449100000000 1.0
C      1  0.4955930000000  0.4199960000000  0.4593900000000 1.0
C      1  0.4525260000000  0.5497190000000  0.5482450000000 1.0
C      1  0.4713180000000  0.5846750000000  0.5202000000000 1.0
C      1  0.4566990000000  0.5103190000000  0.5723530000000 1.0
C      1  0.4676400000000  0.4800740000000  0.5756030000000 1.0
C      1  0.5131170000000  0.5298720000000  0.5496820000000 1.0
C      1  0.4515440000000  0.4417040000000  0.5125130000000 1.0
C      1  0.4806250000000  0.4770590000000  0.4160430000000 1.0
C      1  0.4732640000000  0.5528090000000  0.4362090000000 1.0
C      1  0.5570760000000  0.5095260000000  0.5355130000000 1.0
C      1  0.5580050000000  0.5082200000000  0.4725590000000 1.0
C      1  0.5178270000000  0.5376050000000  0.4751330000000 1.0
C      1  0.5099760000000  0.5326480000000  0.4187920000000 1.0
C      1  0.4949380000000  0.4875810000000  0.5821410000000 1.0
C      1  0.5636680000000  0.5597600000000  0.4731200000000 1.0
C      1  0.5741730000000  0.4471710000000  0.5214120000000 1.0
C      1  0.4379560000000  0.5610480000000  0.5008860000000 1.0
C      1  0.4329210000000  0.5298330000000  0.4503140000000 1.0
C      1  0.5124140000000  0.5318800000000  0.5209870000000 1.0
C      1  0.5601810000000  0.4194540000000  0.4956900000000 1.0
C      1  0.4041780000000  0.5012500000000  0.4794450000000 1.0
C      1  0.4468480000000  0.4538030000000  0.4429740000000 1.0
C      1  0.5158970000000  0.4830230000000  0.4741510000000 1.0
C      1  0.5183730000000  0.4247090000000  0.5210410000000 1.0
C      1  0.5316920000000  0.4880150000000  0.4209360000000 1.0
C      1  0.5461360000000  0.4824120000000  0.5462710000000 1.0
C      1  0.5512930000000  0.4725990000000  0.4353860000000 1.0
C      1  0.5347490000000  0.5392350000000  0.5012290000000 1.0
C      1  0.5542300000000  0.4545840000000  0.5401780000000 1.0
C      1  0.4988800000000  0.5681130000000  0.4381840000000 1.0
C      1  0.5088220000000  0.4720870000000  0.4130750000000 1.0
C      1  0.5217000000000  0.5226980000000  0.5988100000000 1.0
C      1  0.5147760000000  0.4460490000000  0.4223980000000 1.0
C      1  0.5453060000000  0.5106010000000  0.5044720000000 1.0
C      1  0.4343620000000  0.5272930000000  0.5611930000000 1.0
C      1  0.4724910000000  0.4226270000000  0.4766970000000 1.0
C      1  0.4488630000000  0.4913090000000  0.5267280000000 1.0
C      1  0.5407900000000  0.5116390000000  0.5822710000000 1.0
C      1  0.4404100000000  0.5044660000000  0.4360490000000 1.0
C      1  0.5279090000000  0.5136900000000  0.4307900000000 1.0
C      1  0.4506550000000  0.5535290000000  0.4532710000000 1.0
C      1  0.4167550000000  0.5254310000000  0.4734920000000 1.0
C      1  0.4483520000000  0.5698260000000  0.5266300000000 1.0
C      1  0.5666240000000  0.4342240000000  0.4717790000000 1.0
C      1  0.5813540000000  0.5381110000000  0.5041330000000 1.0
C      1  0.4984720000000  0.5029500000000  0.5538440000000 1.0
C      1  0.4871720000000  0.4375610000000  0.5536080000000 1.0
C      1  0.4962740000000  0.4913050000000  0.4962010000000 1.0
C      1  0.4941610000000  0.4695920000000  0.5172760000000 1.0
C      1  0.4699880000000  0.4525870000000  0.4271360000000 1.0
C      1  0.5841870000000  0.5154610000000  0.5218540000000 1.0
C      1  0.4518130000000  0.5136990000000  0.5053120000000 1.0
C      1  0.4808720000000  0.5290270000000  0.4223040000000 1.0
C      1  0.5449800000000  0.5806980000000  0.5201700000000 1.0
C      1  0.5774110000000  0.4199010000000  0.5164140000000 1.0
C      1  0.5937870000000  0.4915710000000  0.5111900000000 1.0
C      1  0.5132450000000  0.4450490000000  0.5639510000000 1.0
C      1  0.4893720000000  0.5335340000000  0.4845630000000 1.0
C      1  0.5036500000000  0.5841220000000  0.4863890000000 1.0
END
