TITL C-2681593-4431-2 -0.344396422831891 125000 -792.530511632667 0 0 113 (C1) n - 1
REM
REM in /nfs/bkarasulu/CARBON/AIRSS/Generating-Clusters/GAP-ML-2020/Only-C1/SD-CG/HFTN-CG
REM
REM
REM
REM
REM
REM ./C.cell (11c1c37f851c82e70ff6c80c92926a4b)
REM
REM compiler GCC version 9.2.1 20190827 (Red Hat 9.2.1-1)
REM options -cpp -mtune=generic -march=x86-64 -g -O0 -fpre-include=/usr/include/finclude/math-vector-fortran.h
REM seed 209991186 -220247592 150135428 -319797663 -731489170 153777723 618745729 1612168502 1849726389 181093067 2065135872 -13721852 856943574 1648915535 -550091636 -1191444393 1727284736 -633300295 -1559351257 307924821 -2019615990 -1358181285 113735640 654460936 837284302 1439703121 1023978914 -1735695625 -1594326913 -830266475 -460856382 -1349840661 -472066409
REM
CELL 1.54180   50.00000   50.00000   50.00000   90.00000   90.00000   90.00000
LATT -1
SFAC C  
C      1  0.4855700000000  0.4618420000000  0.4846710000000 1.0
C      1  0.5086660000000  0.5158340000000  0.5460600000000 1.0
C      1  0.5237210000000  0.5355050000000  0.5670380000000 1.0
C      1  0.4613060000000  0.4180810000000  0.4814180000000 1.0
C      1  0.5779010000000  0.5237190000000  0.5047580000000 1.0
C      1  0.4787690000000  0.5866490000000  0.4874280000000 1.0
C      1  0.5438860000000  0.5758870000000  0.4683680000000 1.0
C      1  0.4912560000000  0.4727220000000  0.5287790000000 1.0
C      1  0.5544000000000  0.4232980000000  0.4926660000000 1.0
C      1  0.4344200000000  0.5203280000000  0.4368410000000 1.0
C      1  0.4687150000000  0.4550660000000  0.4212730000000 1.0
C      1  0.4507670000000  0.5655950000000  0.5158030000000 1.0
C      1  0.4685880000000  0.5451680000000  0.5740950000000 1.0
C      1  0.4537460000000  0.4404030000000  0.4410740000000 1.0
C      1  0.4965410000000  0.4247440000000  0.4419980000000 1.0
C      1  0.5004390000000  0.5853590000000  0.4696090000000 1.0
C      1  0.4197090000000  0.4686500000000  0.5196410000000 1.0
C      1  0.4850120000000  0.5382200000000  0.4870890000000 1.0
C      1  0.4114470000000  0.5120640000000  0.4860880000000 1.0
C      1  0.5162690000000  0.4599430000000  0.5338890000000 1.0
C      1  0.4726520000000  0.5112950000000  0.4933050000000 1.0
C      1  0.5085870000000  0.4266590000000  0.5564150000000 1.0
C      1  0.5681350000000  0.5532030000000  0.5544520000000 1.0
C      1  0.5246930000000  0.5193260000000  0.4761740000000 1.0
C      1  0.5001770000000  0.4868680000000  0.4091920000000 1.0
C      1  0.4495450000000  0.5258820000000  0.5652960000000 1.0
C      1  0.5636700000000  0.4665930000000  0.4862350000000 1.0
C      1  0.4377000000000  0.4344370000000  0.4847460000000 1.0
C      1  0.5807570000000  0.5061420000000  0.5268550000000 1.0
C      1  0.5940020000000  0.4826760000000  0.5231510000000 1.0
C      1  0.4838030000000  0.4964060000000  0.5435020000000 1.0
C      1  0.4291650000000  0.5481760000000  0.5202790000000 1.0
C      1  0.5771050000000  0.4881410000000  0.4697960000000 1.0
C      1  0.4624970000000  0.5079580000000  0.4276010000000 1.0
C      1  0.4612190000000  0.5625100000000  0.4885090000000 1.0
C      1  0.4197800000000  0.5395750000000  0.4934530000000 1.0
C      1  0.4674240000000  0.5121140000000  0.5226550000000 1.0
C      1  0.5335570000000  0.5631020000000  0.4448800000000 1.0
C      1  0.5284330000000  0.5180020000000  0.5916710000000 1.0
C      1  0.5562130000000  0.5064810000000  0.5439200000000 1.0
C      1  0.5143210000000  0.4628310000000  0.4146830000000 1.0
C      1  0.5606990000000  0.4405620000000  0.4716740000000 1.0
C      1  0.5547510000000  0.5306010000000  0.5625750000000 1.0
C      1  0.4440770000000  0.4309960000000  0.5333480000000 1.0
C      1  0.5054250000000  0.4221670000000  0.5030820000000 1.0
C      1  0.5034110000000  0.5365860000000  0.4649600000000 1.0
C      1  0.4786020000000  0.4131480000000  0.5040370000000 1.0
C      1  0.4396450000000  0.5479580000000  0.4734970000000 1.0
C      1  0.4369700000000  0.5480570000000  0.4432930000000 1.0
C      1  0.4722060000000  0.4829730000000  0.4141330000000 1.0
C      1  0.4895520000000  0.5343150000000  0.5327710000000 1.0
C      1  0.5307280000000  0.5070270000000  0.5269370000000 1.0
C      1  0.5186040000000  0.4319620000000  0.4576730000000 1.0
C      1  0.5558650000000  0.5633570000000  0.5315830000000 1.0
C      1  0.5044480000000  0.5640020000000  0.4485340000000 1.0
C      1  0.5488070000000  0.5387910000000  0.4385200000000 1.0
C      1  0.4803090000000  0.5312500000000  0.5946070000000 1.0
C      1  0.4747700000000  0.4622720000000  0.5097750000000 1.0
C      1  0.5169090000000  0.5891960000000  0.5143040000000 1.0
C      1  0.4513340000000  0.5167550000000  0.4724270000000 1.0
C      1  0.5251580000000  0.4750140000000  0.5810670000000 1.0
C      1  0.5307030000000  0.4713500000000  0.4896840000000 1.0
C      1  0.4829050000000  0.5036080000000  0.5921500000000 1.0
C      1  0.5789930000000  0.5156350000000  0.4774110000000 1.0
C      1  0.4646150000000  0.4938300000000  0.4544770000000 1.0
C      1  0.4367270000000  0.4784030000000  0.4562910000000 1.0
C      1  0.4306250000000  0.4794130000000  0.5443400000000 1.0
C      1  0.4561210000000  0.4432760000000  0.5579070000000 1.0
C      1  0.5549190000000  0.5097910000000  0.5838630000000 1.0
C      1  0.5524230000000  0.4849940000000  0.5675340000000 1.0
C      1  0.5262270000000  0.4801040000000  0.5164390000000 1.0
C      1  0.4803470000000  0.4258500000000  0.5541850000000 1.0
C      1  0.4335830000000  0.5057820000000  0.5308530000000 1.0
C      1  0.4944940000000  0.4430790000000  0.4207200000000 1.0
C      1  0.5103420000000  0.4953330000000  0.5945210000000 1.0
C      1  0.5301070000000  0.5287800000000  0.5044920000000 1.0
C      1  0.5095970000000  0.5132820000000  0.4153670000000 1.0
C      1  0.4562230000000  0.5632950000000  0.4310610000000 1.0
C      1  0.5253340000000  0.4514090000000  0.5640980000000 1.0
C      1  0.4239250000000  0.5042810000000  0.4605340000000 1.0
C      1  0.5115200000000  0.4447720000000  0.4837850000000 1.0
C      1  0.5652900000000  0.4471760000000  0.5330930000000 1.0
C      1  0.4706660000000  0.4218770000000  0.4544490000000 1.0
C      1  0.4160090000000  0.4956570000000  0.5090200000000 1.0
C      1  0.4845320000000  0.5592810000000  0.5525520000000 1.0
C      1  0.4350810000000  0.4504710000000  0.4601980000000 1.0
C      1  0.5547680000000  0.4561770000000  0.5580450000000 1.0
C      1  0.5593470000000  0.5471330000000  0.5061330000000 1.0
C      1  0.5142700000000  0.5626790000000  0.5573240000000 1.0
C      1  0.4882340000000  0.5903660000000  0.5143190000000 1.0
C      1  0.5512980000000  0.4902820000000  0.4270460000000 1.0
C      1  0.5237700000000  0.5882570000000  0.4850140000000 1.0
C      1  0.5038500000000  0.5420050000000  0.5089590000000 1.0
C      1  0.5784580000000  0.4629230000000  0.5132650000000 1.0
C      1  0.5202740000000  0.4283840000000  0.5269560000000 1.0
C      1  0.5718090000000  0.4890000000000  0.4438870000000 1.0
C      1  0.4824370000000  0.5548610000000  0.4301680000000 1.0
C      1  0.5167820000000  0.4925330000000  0.4735630000000 1.0
C      1  0.5297840000000  0.5755000000000  0.5366470000000 1.0
C      1  0.5430940000000  0.4431920000000  0.4481350000000 1.0
C      1  0.4294760000000  0.4424500000000  0.5112660000000 1.0
C      1  0.4651000000000  0.4964130000000  0.5687100000000 1.0
C      1  0.5686330000000  0.5372820000000  0.4605730000000 1.0
C      1  0.4676900000000  0.4148390000000  0.5298650000000 1.0
C      1  0.4308210000000  0.5307690000000  0.5444800000000 1.0
C      1  0.5375300000000  0.5161780000000  0.4236810000000 1.0
C      1  0.5632270000000  0.5587540000000  0.4790070000000 1.0
C      1  0.4711860000000  0.5771090000000  0.5327180000000 1.0
C      1  0.4853070000000  0.5273320000000  0.4222150000000 1.0
C      1  0.5488100000000  0.4279370000000  0.5191940000000 1.0
C      1  0.4489630000000  0.4704620000000  0.5635120000000 1.0
C      1  0.5397540000000  0.4632370000000  0.4274750000000 1.0
C      1  0.4871910000000  0.4887690000000  0.4746670000000 1.0
END
