TITL C-2681594-4449-21 23.8822319292291 125000 -456.051655882026 0 0 68 (C1) n - 1
REM
REM in /nfs/bkarasulu/CARBON/AIRSS/Generating-Clusters/GAP-ML-2020/Only-C1/SD-CG/HFTN-CG
REM
REM
REM
REM
REM
REM ./C.cell (11c1c37f851c82e70ff6c80c92926a4b)
REM
REM compiler GCC version 9.2.1 20190827 (Red Hat 9.2.1-1)
REM options -cpp -mtune=generic -march=x86-64 -g -O0 -fpre-include=/usr/include/finclude/math-vector-fortran.h
REM seed 454451151 1518653519 -1413505216 1262988310 -2089158764 1764926216 1257994298 661929800 17871454 143825965 1174613833 136360421 -834982714 655713643 287502160 599441258 1510283630 -337245780 -89461305 -103756580 -983274878 437583780 1042515204 1074417094 1093902113 -238352699 1122987971 -470580333 121591347 664101285 -1483971536 -296406556 -1668076369
REM
CELL 1.54180   50.00000   50.00000   50.00000   90.00000   90.00000   90.00000
LATT -1
SFAC C  
C      1  0.4869890000000  0.5274800000000  0.5017330000000 1.0
C      1  0.5223970000000  0.5544110000000  0.4730950000000 1.0
C      1  0.5736850000000  0.4617950000000  0.5381550000000 1.0
C      1  0.5307390000000  0.4368180000000  0.5228950000000 1.0
C      1  0.4608740000000  0.5400990000000  0.4499050000000 1.0
C      1  0.5291900000000  0.5091820000000  0.5021110000000 1.0
C      1  0.4349720000000  0.5054360000000  0.5265160000000 1.0
C      1  0.5270780000000  0.4657350000000  0.4839940000000 1.0
C      1  0.4919880000000  0.4681270000000  0.5526480000000 1.0
C      1  0.5299750000000  0.5270430000000  0.4188470000000 1.0
C      1  0.5049790000000  0.5502780000000  0.4512220000000 1.0
C      1  0.5325260000000  0.5158650000000  0.5480440000000 1.0
C      1  0.4610700000000  0.4536880000000  0.5005780000000 1.0
C      1  0.5226960000000  0.5009650000000  0.4495240000000 1.0
C      1  0.5141070000000  0.4749090000000  0.4384320000000 1.0
C      1  0.5502010000000  0.5588120000000  0.4799200000000 1.0
C      1  0.4730160000000  0.5360800000000  0.5488630000000 1.0
C      1  0.5255360000000  0.5587960000000  0.5202240000000 1.0
C      1  0.4334140000000  0.4669990000000  0.4982490000000 1.0
C      1  0.5219320000000  0.5459540000000  0.5456380000000 1.0
C      1  0.5032640000000  0.4766170000000  0.5249420000000 1.0
C      1  0.5163280000000  0.4569120000000  0.5091620000000 1.0
C      1  0.4947950000000  0.5065260000000  0.5787910000000 1.0
C      1  0.4793610000000  0.4800460000000  0.5075300000000 1.0
C      1  0.5765370000000  0.4864680000000  0.5450180000000 1.0
C      1  0.4657610000000  0.4420670000000  0.4729210000000 1.0
C      1  0.5213390000000  0.5032480000000  0.5725200000000 1.0
C      1  0.4603870000000  0.5432030000000  0.4985360000000 1.0
C      1  0.5056240000000  0.5530040000000  0.4971340000000 1.0
C      1  0.4966240000000  0.5509630000000  0.5544520000000 1.0
C      1  0.4748620000000  0.5186020000000  0.4335800000000 1.0
C      1  0.4872540000000  0.4999780000000  0.4871190000000 1.0
C      1  0.4785120000000  0.5631230000000  0.4871850000000 1.0
C      1  0.4694860000000  0.5109810000000  0.5677780000000 1.0
C      1  0.4861430000000  0.4704150000000  0.4371450000000 1.0
C      1  0.5557200000000  0.4634780000000  0.4935050000000 1.0
C      1  0.5808490000000  0.4991940000000  0.4673130000000 1.0
C      1  0.4614420000000  0.4437740000000  0.5295310000000 1.0
C      1  0.5068320000000  0.4797960000000  0.5754860000000 1.0
C      1  0.5696270000000  0.5217380000000  0.4547840000000 1.0
C      1  0.4497210000000  0.5288240000000  0.4732170000000 1.0
C      1  0.5089470000000  0.4261880000000  0.5342430000000 1.0
C      1  0.4600110000000  0.5003710000000  0.4710240000000 1.0
C      1  0.5590040000000  0.5064210000000  0.5362880000000 1.0
C      1  0.5172650000000  0.4959300000000  0.4793210000000 1.0
C      1  0.4654890000000  0.4909060000000  0.4408270000000 1.0
C      1  0.5710750000000  0.4879780000000  0.4892850000000 1.0
C      1  0.5570760000000  0.4496070000000  0.5189480000000 1.0
C      1  0.4653390000000  0.4832390000000  0.5531390000000 1.0
C      1  0.4860110000000  0.5182870000000  0.5283980000000 1.0
C      1  0.5166130000000  0.4538640000000  0.4586490000000 1.0
C      1  0.4498280000000  0.5435200000000  0.5282060000000 1.0
C      1  0.4454690000000  0.4638740000000  0.5427960000000 1.0
C      1  0.5462150000000  0.5163060000000  0.4383450000000 1.0
C      1  0.4442550000000  0.4487090000000  0.4555070000000 1.0
C      1  0.4393860000000  0.4734780000000  0.4468230000000 1.0
C      1  0.4276710000000  0.4775830000000  0.5240410000000 1.0
C      1  0.5705210000000  0.5473130000000  0.4654370000000 1.0
C      1  0.5130050000000  0.5049260000000  0.5266280000000 1.0
C      1  0.5562510000000  0.5053440000000  0.5083310000000 1.0
C      1  0.4884430000000  0.4476740000000  0.4570710000000 1.0
C      1  0.4645940000000  0.4976960000000  0.5265780000000 1.0
C      1  0.4863720000000  0.4396330000000  0.5430570000000 1.0
C      1  0.4791660000000  0.5590140000000  0.4592030000000 1.0
C      1  0.5040930000000  0.5246810000000  0.4351910000000 1.0
C      1  0.4262430000000  0.5307940000000  0.5330120000000 1.0
C      1  0.5484880000000  0.5669080000000  0.5074000000000 1.0
C      1  0.4353370000000  0.4823280000000  0.4740090000000 1.0
END
