TITL C-26367-8133-4 0.154249692716326 125000 -640.234988672332 0 0 92 (C1) n - 1
REM
REM in /rds/project/t2_vol4/rds-t2-cs072/BORA/CARBON/from-Arr/AIRSS/Generating-Clusters/GAP-ML-2020/Only-C1/SD-CG/HFTN-CG
REM
REM
REM
REM
REM
REM ./C.cell (11c1c37f851c82e70ff6c80c92926a4b)
REM AIRSS Version 0.9.1 bugfix July 2018 build 013d7b7c2542+ Fri, 06 Jul 2018 19:26:36 +0100
REM compiler GCC version 9.3.0
REM options -cpp -mtune=generic -march=x86-64 -g -O0
REM seed 868267302 696569317 -735837281 1728797861 1613861353 382479911 -1878492849 -2039462340 1273437244 -1583900199 -1424847235 1320794999 1573954998 2085724318 777774736 -1969040433 215456280 -6309102 -359062526 359043473 -484558751 1722514547 -1079071431 2125886487 -198613770 1445498880 1947838186 -4027859 -1524185692 1566851720 2064167823 -265488830 -2143287670
REM
CELL 1.54180   50.00000   50.00000   50.00000   90.00000   90.00000   90.00000
LATT -1
SFAC C  
C      1  0.5327080000000  0.5413820000000  0.5577160000000 1.0
C      1  0.5141760000000  0.4627300000000  0.5767090000000 1.0
C      1  0.5089470000000  0.4972960000000  0.4628150000000 1.0
C      1  0.5729970000000  0.4770650000000  0.5373270000000 1.0
C      1  0.5044430000000  0.4539880000000  0.4266280000000 1.0
C      1  0.4322810000000  0.4844440000000  0.5158570000000 1.0
C      1  0.4683790000000  0.5230710000000  0.5666080000000 1.0
C      1  0.4992950000000  0.3972870000000  0.4822970000000 1.0
C      1  0.4690510000000  0.5201290000000  0.5051960000000 1.0
C      1  0.4280100000000  0.4686690000000  0.4711790000000 1.0
C      1  0.5353830000000  0.4807240000000  0.4486770000000 1.0
C      1  0.5131060000000  0.4602100000000  0.5200350000000 1.0
C      1  0.4795360000000  0.4918640000000  0.4983500000000 1.0
C      1  0.5207760000000  0.5181060000000  0.4777590000000 1.0
C      1  0.4750620000000  0.5596340000000  0.4725950000000 1.0
C      1  0.5533560000000  0.5432950000000  0.5371710000000 1.0
C      1  0.4210470000000  0.5313670000000  0.5123640000000 1.0
C      1  0.5344330000000  0.4554020000000  0.4644440000000 1.0
C      1  0.4653840000000  0.5487600000000  0.5551170000000 1.0
C      1  0.5517440000000  0.4552150000000  0.4875640000000 1.0
C      1  0.5124520000000  0.5265740000000  0.4225310000000 1.0
C      1  0.4664000000000  0.5142150000000  0.4258250000000 1.0
C      1  0.4853820000000  0.5357230000000  0.4292780000000 1.0
C      1  0.4400880000000  0.4781070000000  0.4474170000000 1.0
C      1  0.5309010000000  0.5422020000000  0.4378760000000 1.0
C      1  0.5096060000000  0.4998120000000  0.4127760000000 1.0
C      1  0.5053270000000  0.4167740000000  0.5323670000000 1.0
C      1  0.4853710000000  0.5755270000000  0.4941680000000 1.0
C      1  0.4468160000000  0.4322730000000  0.5291010000000 1.0
C      1  0.5134970000000  0.5628190000000  0.5569010000000 1.0
C      1  0.4748220000000  0.4612060000000  0.5555780000000 1.0
C      1  0.5784780000000  0.4935370000000  0.4665030000000 1.0
C      1  0.4932670000000  0.5298200000000  0.5228910000000 1.0
C      1  0.5396980000000  0.4469690000000  0.5152370000000 1.0
C      1  0.4956720000000  0.5072460000000  0.5690440000000 1.0
C      1  0.5445220000000  0.5289840000000  0.4610870000000 1.0
C      1  0.5559550000000  0.5011550000000  0.4515440000000 1.0
C      1  0.4189090000000  0.5167450000000  0.4854000000000 1.0
C      1  0.4239170000000  0.5559640000000  0.5237770000000 1.0
C      1  0.5269380000000  0.5053520000000  0.5033380000000 1.0
C      1  0.4790800000000  0.4582620000000  0.4642730000000 1.0
C      1  0.4614140000000  0.4610010000000  0.4396910000000 1.0
C      1  0.4786770000000  0.4660910000000  0.4188000000000 1.0
C      1  0.4193140000000  0.4887520000000  0.4895440000000 1.0
C      1  0.5600400000000  0.5430260000000  0.4837480000000 1.0
C      1  0.4363810000000  0.4442640000000  0.4845880000000 1.0
C      1  0.4390340000000  0.5230150000000  0.4664450000000 1.0
C      1  0.5726920000000  0.5231490000000  0.5371430000000 1.0
C      1  0.5222830000000  0.4754510000000  0.4230060000000 1.0
C      1  0.5090150000000  0.4057050000000  0.5067750000000 1.0
C      1  0.5740070000000  0.4735430000000  0.4877200000000 1.0
C      1  0.5969820000000  0.5137590000000  0.4686320000000 1.0
C      1  0.5245230000000  0.5172830000000  0.5705660000000 1.0
C      1  0.5377330000000  0.4687090000000  0.5646750000000 1.0
C      1  0.4816010000000  0.4936980000000  0.4123340000000 1.0
C      1  0.5439190000000  0.4965250000000  0.5680860000000 1.0
C      1  0.4694790000000  0.4443650000000  0.5132910000000 1.0
C      1  0.5178580000000  0.5324760000000  0.5048190000000 1.0
C      1  0.5204880000000  0.5909100000000  0.5584360000000 1.0
C      1  0.4598320000000  0.5369270000000  0.4809850000000 1.0
C      1  0.5304290000000  0.5914220000000  0.5347200000000 1.0
C      1  0.5530090000000  0.4579670000000  0.5409260000000 1.0
C      1  0.4951290000000  0.5027570000000  0.5382620000000 1.0
C      1  0.4672290000000  0.4382490000000  0.4838770000000 1.0
C      1  0.4618290000000  0.4747540000000  0.5137280000000 1.0
C      1  0.5330480000000  0.5796690000000  0.5101180000000 1.0
C      1  0.5127090000000  0.5844830000000  0.4899810000000 1.0
C      1  0.4522450000000  0.5069260000000  0.5503480000000 1.0
C      1  0.4263730000000  0.4398290000000  0.5113810000000 1.0
C      1  0.5431970000000  0.5515210000000  0.5085150000000 1.0
C      1  0.5157160000000  0.5652550000000  0.4467560000000 1.0
C      1  0.4238260000000  0.4611790000000  0.5325470000000 1.0
C      1  0.5841300000000  0.5278620000000  0.4885260000000 1.0
C      1  0.4925790000000  0.4442260000000  0.5320340000000 1.0
C      1  0.5860060000000  0.5140280000000  0.5138190000000 1.0
C      1  0.4396330000000  0.5121830000000  0.5248780000000 1.0
C      1  0.4879060000000  0.5576470000000  0.4474470000000 1.0
C      1  0.5831030000000  0.4851720000000  0.5122970000000 1.0
C      1  0.4453070000000  0.4498660000000  0.5509550000000 1.0
C      1  0.5236230000000  0.5828130000000  0.4650230000000 1.0
C      1  0.4698540000000  0.4851900000000  0.5407250000000 1.0
C      1  0.4501330000000  0.5620270000000  0.5331270000000 1.0
C      1  0.4870920000000  0.4848170000000  0.4725630000000 1.0
C      1  0.4749260000000  0.5728360000000  0.5207860000000 1.0
C      1  0.5302910000000  0.4180970000000  0.5190630000000 1.0
C      1  0.4904420000000  0.4207170000000  0.4707350000000 1.0
C      1  0.4903920000000  0.5558060000000  0.5405290000000 1.0
C      1  0.4910880000000  0.4763070000000  0.5754260000000 1.0
C      1  0.5672570000000  0.5004470000000  0.5530950000000 1.0
C      1  0.5061480000000  0.4432530000000  0.4557950000000 1.0
C      1  0.5079210000000  0.4877900000000  0.5156880000000 1.0
C      1  0.4449480000000  0.5063570000000  0.4437220000000 1.0
END
