TITL C-260554-959-7 36.728352746636 125000 -112.931483012838 0 0 18 (C1) n - 1
REM
REM in /rds/project/t2_vol4/rds-t2-cs072/BORA/CARBON/from-Arr/AIRSS/Generating-Clusters/GAP-ML-2020/Only-C1/SD-CG/HFTN-CG
REM
REM
REM
REM
REM
REM ./C.cell (11c1c37f851c82e70ff6c80c92926a4b)
REM AIRSS Version 0.9.1 bugfix July 2018 build 013d7b7c2542+ Fri, 06 Jul 2018 19:26:36 +0100
REM compiler GCC version 9.3.0
REM options -cpp -mtune=generic -march=x86-64 -g -O0
REM seed -1647643008 370059652 -961999578 -330892971 145660481 611529121 1924481950 1423552529 1597701069 1477647047 2050166930 65909706 134820887 2129702174 1812012958 -1844101812 514041961 -2037970409 -325444883 452904433 -1889378775 -1734838615 -1333147104 1353944005 1136572738 -1199190854 -1514130729 1503115765 -428146462 2019905786 1608656816 -247903982 -1149794343
REM
CELL 1.54180   50.00000   50.00000   50.00000   90.00000   90.00000   90.00000
LATT -1
SFAC C  
C      1  0.5381410000000  0.4881810000000  0.4814190000000 1.0
C      1  0.4925280000000  0.5555880000000  0.5061330000000 1.0
C      1  0.5354390000000  0.4860780000000  0.5093830000000 1.0
C      1  0.4775090000000  0.4854630000000  0.4703520000000 1.0
C      1  0.4952390000000  0.5447370000000  0.5298840000000 1.0
C      1  0.5109820000000  0.5241420000000  0.5334580000000 1.0
C      1  0.5273320000000  0.4664820000000  0.5261730000000 1.0
C      1  0.4553690000000  0.4984010000000  0.5141760000000 1.0
C      1  0.5026520000000  0.4645580000000  0.5183640000000 1.0
C      1  0.4505550000000  0.5185280000000  0.5292940000000 1.0
C      1  0.4848160000000  0.4581260000000  0.4997010000000 1.0
C      1  0.5013020000000  0.5019560000000  0.4687360000000 1.0
C      1  0.5176500000000  0.4778460000000  0.4653650000000 1.0
C      1  0.5017550000000  0.5612080000000  0.4829550000000 1.0
C      1  0.4951950000000  0.4609170000000  0.4715710000000 1.0
C      1  0.5228310000000  0.5149110000000  0.4837160000000 1.0
C      1  0.5245730000000  0.5118490000000  0.5128190000000 1.0
C      1  0.4661330000000  0.4810310000000  0.4965000000000 1.0
END
