TITL C-260535-2428-10 0.100903876531894 125000 -283.456624152443 0 0 43 (C1) n - 1
REM
REM in /rds/project/t2_vol4/rds-t2-cs072/BORA/CARBON/from-Arr/AIRSS/Generating-Clusters/GAP-ML-2020/Only-C1/SD-CG/HFTN-CG
REM
REM
REM
REM
REM
REM ./C.cell (11c1c37f851c82e70ff6c80c92926a4b)
REM AIRSS Version 0.9.1 bugfix July 2018 build 013d7b7c2542+ Fri, 06 Jul 2018 19:26:36 +0100
REM compiler GCC version 9.3.0
REM options -cpp -mtune=generic -march=x86-64 -g -O0
REM seed -1453190142 -1345099396 -525762519 -36697973 961249576 1608747125 -729637982 -647080908 -23710853 -1963520360 1391606606 591840275 -2000140471 -1910885909 242747989 989750744 240945295 767364924 -746094587 -1732695772 1394534338 4251040 -1523039318 1003415468 653975507 -1616094300 -24273072 -1526943079 -2044382569 594478435 -1796894172 -1423591063 1600124137
REM
CELL 1.54180   50.00000   50.00000   50.00000   90.00000   90.00000   90.00000
LATT -1
SFAC C  
C      1  0.5248850000000  0.5234320000000  0.5469800000000 1.0
C      1  0.4515780000000  0.4959770000000  0.4735280000000 1.0
C      1  0.4870240000000  0.4687600000000  0.5450800000000 1.0
C      1  0.4780590000000  0.5114340000000  0.4817640000000 1.0
C      1  0.5114810000000  0.4790840000000  0.5565820000000 1.0
C      1  0.5180720000000  0.5623510000000  0.4993630000000 1.0
C      1  0.5562600000000  0.4664520000000  0.4533650000000 1.0
C      1  0.5407200000000  0.4680350000000  0.5144350000000 1.0
C      1  0.5508800000000  0.4482200000000  0.4981020000000 1.0
C      1  0.4787900000000  0.5165530000000  0.4394190000000 1.0
C      1  0.5234970000000  0.4969890000000  0.4681230000000 1.0
C      1  0.4726330000000  0.4389040000000  0.5054250000000 1.0
C      1  0.5147470000000  0.4661340000000  0.4760460000000 1.0
C      1  0.4908910000000  0.4528430000000  0.5208670000000 1.0
C      1  0.4657380000000  0.4902150000000  0.5449280000000 1.0
C      1  0.4607160000000  0.4440530000000  0.4831110000000 1.0
C      1  0.5067380000000  0.4964080000000  0.5136970000000 1.0
C      1  0.4508170000000  0.5118240000000  0.4488210000000 1.0
C      1  0.5376680000000  0.4781180000000  0.5430260000000 1.0
C      1  0.4789390000000  0.5147010000000  0.5516580000000 1.0
C      1  0.5183030000000  0.5697340000000  0.5255330000000 1.0
C      1  0.4902890000000  0.4726200000000  0.4602730000000 1.0
C      1  0.4818780000000  0.5071760000000  0.5095190000000 1.0
C      1  0.4407240000000  0.5275870000000  0.5073730000000 1.0
C      1  0.4643820000000  0.4687680000000  0.4701220000000 1.0
C      1  0.5117630000000  0.4674600000000  0.5055030000000 1.0
C      1  0.4623250000000  0.5370960000000  0.4531040000000 1.0
C      1  0.4824620000000  0.5325970000000  0.5268460000000 1.0
C      1  0.5050080000000  0.5080370000000  0.5607910000000 1.0
C      1  0.5094500000000  0.5451920000000  0.5350340000000 1.0
C      1  0.4568850000000  0.4944640000000  0.5182380000000 1.0
C      1  0.5263220000000  0.5100990000000  0.4942150000000 1.0
C      1  0.5017580000000  0.5509510000000  0.4792970000000 1.0
C      1  0.5405230000000  0.4521450000000  0.4718390000000 1.0
C      1  0.4737840000000  0.5423900000000  0.4796770000000 1.0
C      1  0.5515240000000  0.4933800000000  0.4604330000000 1.0
C      1  0.5249930000000  0.5380040000000  0.4862580000000 1.0
C      1  0.5662800000000  0.5008420000000  0.4845210000000 1.0
C      1  0.5459910000000  0.5044570000000  0.5365630000000 1.0
C      1  0.4957620000000  0.5012180000000  0.4573040000000 1.0
C      1  0.5503670000000  0.4982190000000  0.5067950000000 1.0
C      1  0.4618130000000  0.5442330000000  0.5076290000000 1.0
C      1  0.4372830000000  0.5028450000000  0.4988140000000 1.0
END
