TITL C-2681593-4431-6 1.84606243783467 125000 -125.940062254963 0 0 20 (C1) n - 1
REM
REM in /nfs/bkarasulu/CARBON/AIRSS/Generating-Clusters/GAP-ML-2020/Only-C1/SD-CG/HFTN-CG
REM
REM
REM
REM
REM
REM ./C.cell (11c1c37f851c82e70ff6c80c92926a4b)
REM
REM compiler GCC version 9.2.1 20190827 (Red Hat 9.2.1-1)
REM options -cpp -mtune=generic -march=x86-64 -g -O0 -fpre-include=/usr/include/finclude/math-vector-fortran.h
REM seed 563610396 2037628918 1486836763 -34314897 -454542160 -728101368 1108174807 98488608 2046699295 1403827987 -1958177068 30708957 -1115946276 -1204015048 347317989 -1087500410 -950720272 -887938321 -245440749 -1025399876 -2066267258 466074161 947273726 102675332 -1758568792 1489876721 298068366 1522396189 1043059771 1183161882 -1187871449 75943961 -967398668
REM
CELL 1.54180   50.00000   50.00000   50.00000   90.00000   90.00000   90.00000
LATT -1
SFAC C  
C      1  0.4668440000000  0.4568570000000  0.5212920000000 1.0
C      1  0.5017570000000  0.5149580000000  0.5371890000000 1.0
C      1  0.4561010000000  0.5213740000000  0.5347060000000 1.0
C      1  0.4836440000000  0.5016280000000  0.4671190000000 1.0
C      1  0.4879730000000  0.4418990000000  0.5244140000000 1.0
C      1  0.4780450000000  0.5232840000000  0.5471660000000 1.0
C      1  0.4436810000000  0.5156920000000  0.4866720000000 1.0
C      1  0.5069410000000  0.4988040000000  0.5133950000000 1.0
C      1  0.4570140000000  0.4801300000000  0.5151940000000 1.0
C      1  0.5464470000000  0.4766750000000  0.4790740000000 1.0
C      1  0.5520340000000  0.5010180000000  0.4931220000000 1.0
C      1  0.5222430000000  0.4847810000000  0.4707460000000 1.0
C      1  0.5615240000000  0.5217420000000  0.4779460000000 1.0
C      1  0.5356450000000  0.5035110000000  0.5160260000000 1.0
C      1  0.5086310000000  0.4985250000000  0.4507080000000 1.0
C      1  0.4491050000000  0.5058300000000  0.5127190000000 1.0
C      1  0.4977930000000  0.4901470000000  0.4892620000000 1.0
C      1  0.4586060000000  0.5129620000000  0.4664890000000 1.0
C      1  0.5549650000000  0.5329410000000  0.4564420000000 1.0
C      1  0.5310070000000  0.5172440000000  0.5403200000000 1.0
END
