TITL C-2681591-4431-17 -23.5177618639705 125000 -587.61575127161 0 0 87 (C1) n - 1
REM
REM in /nfs/bkarasulu/CARBON/AIRSS/Generating-Clusters/GAP-ML-2020/Only-C1/SD-CG/HFTN-CG
REM
REM
REM
REM
REM
REM ./C.cell (11c1c37f851c82e70ff6c80c92926a4b)
REM
REM compiler GCC version 9.2.1 20190827 (Red Hat 9.2.1-1)
REM options -cpp -mtune=generic -march=x86-64 -g -O0 -fpre-include=/usr/include/finclude/math-vector-fortran.h
REM seed -376411384 525035428 1091189632 205508999 1847309587 -1245141728 1278209455 -443254660 1805243403 1017599224 -425181648 -1051205888 -648734329 403954664 1147557949 1740307648 2132104525 60482211 -1764121627 86280314 -1431630142 -36144441 1612644327 -1385470274 -442680271 -23197142 1404789336 -119415199 1071388223 -259209883 -842815480 -1295584002 1759632517
REM
CELL 1.54180   50.00000   50.00000   50.00000   90.00000   90.00000   90.00000
LATT -1
SFAC C  
C      1  0.5096890000000  0.5257060000000  0.5860620000000 1.0
C      1  0.4898020000000  0.5723030000000  0.5198180000000 1.0
C      1  0.5016390000000  0.4417510000000  0.5502630000000 1.0
C      1  0.4798140000000  0.5484790000000  0.5729150000000 1.0
C      1  0.4552800000000  0.4355530000000  0.4674540000000 1.0
C      1  0.5075280000000  0.5638510000000  0.4702870000000 1.0
C      1  0.4867190000000  0.4876220000000  0.5388690000000 1.0
C      1  0.4724830000000  0.4905390000000  0.5119350000000 1.0
C      1  0.4585850000000  0.4785870000000  0.4720390000000 1.0
C      1  0.5338170000000  0.4948080000000  0.4684100000000 1.0
C      1  0.5042740000000  0.5308720000000  0.5279510000000 1.0
C      1  0.4520980000000  0.5654300000000  0.4938850000000 1.0
C      1  0.4420230000000  0.4769650000000  0.5474420000000 1.0
C      1  0.4350690000000  0.4957020000000  0.4797090000000 1.0
C      1  0.5270750000000  0.5119500000000  0.4279090000000 1.0
C      1  0.5046730000000  0.4500620000000  0.4618030000000 1.0
C      1  0.4605370000000  0.5264860000000  0.4384930000000 1.0
C      1  0.5766130000000  0.4988090000000  0.5065690000000 1.0
C      1  0.5623650000000  0.5241070000000  0.4941680000000 1.0
C      1  0.4605870000000  0.4751570000000  0.4276640000000 1.0
C      1  0.5023900000000  0.4467380000000  0.4312930000000 1.0
C      1  0.4858870000000  0.5245060000000  0.4541640000000 1.0
C      1  0.5924510000000  0.4783690000000  0.4967460000000 1.0
C      1  0.5628210000000  0.5305190000000  0.4633250000000 1.0
C      1  0.4836460000000  0.4402280000000  0.4820660000000 1.0
C      1  0.4717760000000  0.4483350000000  0.5564550000000 1.0
C      1  0.4528820000000  0.4592260000000  0.4510290000000 1.0
C      1  0.4484610000000  0.5011280000000  0.4327040000000 1.0
C      1  0.4382720000000  0.5587040000000  0.4713560000000 1.0
C      1  0.5407400000000  0.4413650000000  0.5203990000000 1.0
C      1  0.4873590000000  0.4697690000000  0.4209670000000 1.0
C      1  0.5169870000000  0.4737780000000  0.5075650000000 1.0
C      1  0.5571840000000  0.5451900000000  0.5153090000000 1.0
C      1  0.5399690000000  0.5677320000000  0.5068030000000 1.0
C      1  0.5348430000000  0.5110370000000  0.4940310000000 1.0
C      1  0.4124840000000  0.4754330000000  0.4800700000000 1.0
C      1  0.5082340000000  0.4817720000000  0.4580730000000 1.0
C      1  0.4951130000000  0.4959680000000  0.4953450000000 1.0
C      1  0.4376580000000  0.5036440000000  0.5340470000000 1.0
C      1  0.5430310000000  0.4536390000000  0.4944270000000 1.0
C      1  0.4805630000000  0.5233480000000  0.5871580000000 1.0
C      1  0.5713530000000  0.5543580000000  0.4507900000000 1.0
C      1  0.5530090000000  0.4612000000000  0.5385290000000 1.0
C      1  0.4777930000000  0.5447480000000  0.5262460000000 1.0
C      1  0.5200270000000  0.5055170000000  0.5699580000000 1.0
C      1  0.4475720000000  0.4465550000000  0.5110170000000 1.0
C      1  0.4678510000000  0.4787730000000  0.5622950000000 1.0
C      1  0.4092750000000  0.4500370000000  0.4816610000000 1.0
C      1  0.5446060000000  0.4936620000000  0.5714310000000 1.0
C      1  0.5098940000000  0.5326780000000  0.4364640000000 1.0
C      1  0.5323570000000  0.4949440000000  0.5202040000000 1.0
C      1  0.5678100000000  0.4692690000000  0.4858160000000 1.0
C      1  0.5195850000000  0.5568630000000  0.4453880000000 1.0
C      1  0.4480540000000  0.5200800000000  0.5543220000000 1.0
C      1  0.5225710000000  0.5512420000000  0.5456570000000 1.0
C      1  0.5079590000000  0.5232300000000  0.4983990000000 1.0
C      1  0.4689830000000  0.5842250000000  0.5064470000000 1.0
C      1  0.5433100000000  0.4654100000000  0.5644860000000 1.0
C      1  0.5471460000000  0.5109910000000  0.4485140000000 1.0
C      1  0.4484310000000  0.5097620000000  0.5057750000000 1.0
C      1  0.4663520000000  0.4644690000000  0.4973770000000 1.0
C      1  0.4623960000000  0.5441120000000  0.5505910000000 1.0
C      1  0.5567270000000  0.4775810000000  0.4603550000000 1.0
C      1  0.4483210000000  0.4494750000000  0.5392990000000 1.0
C      1  0.4387930000000  0.5384230000000  0.4542870000000 1.0
C      1  0.5497400000000  0.5369550000000  0.5416780000000 1.0
C      1  0.4312080000000  0.5104660000000  0.4543270000000 1.0
C      1  0.5139010000000  0.4289880000000  0.5243740000000 1.0
C      1  0.4906990000000  0.5395750000000  0.4799910000000 1.0
C      1  0.5142830000000  0.4847950000000  0.4263320000000 1.0
C      1  0.5331450000000  0.5732580000000  0.4803690000000 1.0
C      1  0.5211540000000  0.4496670000000  0.5690280000000 1.0
C      1  0.4847610000000  0.4954450000000  0.4671470000000 1.0
C      1  0.5463460000000  0.5650190000000  0.4550180000000 1.0
C      1  0.5572530000000  0.5108050000000  0.5522640000000 1.0
C      1  0.5024080000000  0.4650370000000  0.5315240000000 1.0
C      1  0.5083050000000  0.5514830000000  0.5712350000000 1.0
C      1  0.5287270000000  0.4594150000000  0.4252370000000 1.0
C      1  0.5100160000000  0.5051820000000  0.5412500000000 1.0
C      1  0.5601370000000  0.4908450000000  0.5302890000000 1.0
C      1  0.4639840000000  0.5380510000000  0.5006640000000 1.0
C      1  0.4622720000000  0.5053180000000  0.5757090000000 1.0
C      1  0.4342110000000  0.4383710000000  0.4873750000000 1.0
C      1  0.4958800000000  0.4261630000000  0.5039090000000 1.0
C      1  0.5464660000000  0.4554410000000  0.4461460000000 1.0
C      1  0.5184860000000  0.5724840000000  0.5252350000000 1.0
C      1  0.5330180000000  0.4444720000000  0.4686160000000 1.0
END
