TITL C-2681591-4431-16 -0.55370739418752 125000 -990.35024031467 0 0 141 (C1) n - 1
REM
REM in /nfs/bkarasulu/CARBON/AIRSS/Generating-Clusters/GAP-ML-2020/Only-C1/SD-CG/HFTN-CG
REM
REM
REM
REM
REM
REM ./C.cell (11c1c37f851c82e70ff6c80c92926a4b)
REM
REM compiler GCC version 9.2.1 20190827 (Red Hat 9.2.1-1)
REM options -cpp -mtune=generic -march=x86-64 -g -O0 -fpre-include=/usr/include/finclude/math-vector-fortran.h
REM seed -1838658141 997102585 -1599009881 -1926511942 -135286927 -717188206 -485144310 1042461009 1987623199 -221776768 1708149347 -1518955169 2020590442 1698397848 538742146 713059880 130756538 -1273169725 1609200717 1513099811 -2022502479 1649418263 -1984233990 1918746263 -2050948507 -1309439699 -1002803106 -1247768240 -1044877894 828605373 -1604548361 -737037106 -739100110
REM
CELL 1.54180   50.00000   50.00000   50.00000   90.00000   90.00000   90.00000
LATT -1
SFAC C  
C      1  0.4990910000000  0.4450000000000  0.4677870000000 1.0
C      1  0.4334980000000  0.4807040000000  0.4250610000000 1.0
C      1  0.4828660000000  0.5341210000000  0.4127490000000 1.0
C      1  0.5788120000000  0.5130990000000  0.5391310000000 1.0
C      1  0.4790210000000  0.5479750000000  0.5090980000000 1.0
C      1  0.4836830000000  0.4847750000000  0.4008720000000 1.0
C      1  0.5108180000000  0.4292570000000  0.5705230000000 1.0
C      1  0.5648590000000  0.5799230000000  0.5137900000000 1.0
C      1  0.4450900000000  0.4796960000000  0.5834930000000 1.0
C      1  0.4668810000000  0.4944010000000  0.4602650000000 1.0
C      1  0.4026910000000  0.4883430000000  0.5405750000000 1.0
C      1  0.4985110000000  0.5726880000000  0.4439480000000 1.0
C      1  0.4824130000000  0.4092930000000  0.5071680000000 1.0
C      1  0.4275090000000  0.5266110000000  0.4716840000000 1.0
C      1  0.5029040000000  0.5207690000000  0.4676140000000 1.0
C      1  0.5530490000000  0.5836470000000  0.5401030000000 1.0
C      1  0.5217430000000  0.6068880000000  0.4613860000000 1.0
C      1  0.4832460000000  0.5526380000000  0.5762790000000 1.0
C      1  0.5921970000000  0.4774150000000  0.4750170000000 1.0
C      1  0.4586500000000  0.5190320000000  0.4735780000000 1.0
C      1  0.5438640000000  0.5647850000000  0.4299420000000 1.0
C      1  0.4178290000000  0.4796720000000  0.4498670000000 1.0
C      1  0.5548610000000  0.5702730000000  0.4892350000000 1.0
C      1  0.4219900000000  0.5453480000000  0.4956910000000 1.0
C      1  0.5752310000000  0.4975270000000  0.5146990000000 1.0
C      1  0.5371310000000  0.5385190000000  0.4168230000000 1.0
C      1  0.4977800000000  0.4006320000000  0.4847900000000 1.0
C      1  0.4365260000000  0.5411500000000  0.5430740000000 1.0
C      1  0.4907410000000  0.4745850000000  0.5421880000000 1.0
C      1  0.4723510000000  0.5198690000000  0.5028130000000 1.0
C      1  0.5485670000000  0.4161250000000  0.5099270000000 1.0
C      1  0.4846690000000  0.4366160000000  0.5811990000000 1.0
C      1  0.5098390000000  0.4740520000000  0.4664510000000 1.0
C      1  0.5340370000000  0.4162900000000  0.4566500000000 1.0
C      1  0.5284090000000  0.4124820000000  0.4864000000000 1.0
C      1  0.4517350000000  0.4578750000000  0.4240770000000 1.0
C      1  0.5930800000000  0.5195580000000  0.4526720000000 1.0
C      1  0.4287730000000  0.5019370000000  0.5745690000000 1.0
C      1  0.5600270000000  0.5186360000000  0.4204260000000 1.0
C      1  0.4971750000000  0.4335050000000  0.5158380000000 1.0
C      1  0.5029510000000  0.4441460000000  0.4202030000000 1.0
C      1  0.4462570000000  0.4297550000000  0.4917390000000 1.0
C      1  0.5113450000000  0.5025220000000  0.4238350000000 1.0
C      1  0.4764660000000  0.5539730000000  0.4356320000000 1.0
C      1  0.5252230000000  0.5577220000000  0.4875320000000 1.0
C      1  0.4585710000000  0.5598950000000  0.5335550000000 1.0
C      1  0.4550760000000  0.4149660000000  0.5146340000000 1.0
C      1  0.5562670000000  0.5117710000000  0.5777410000000 1.0
C      1  0.5709070000000  0.5634060000000  0.5353470000000 1.0
C      1  0.5109590000000  0.5287740000000  0.4131690000000 1.0
C      1  0.4211430000000  0.4441000000000  0.4859960000000 1.0
C      1  0.5804300000000  0.5003610000000  0.5645450000000 1.0
C      1  0.5691290000000  0.5592300000000  0.4426520000000 1.0
C      1  0.4402720000000  0.4547140000000  0.5708900000000 1.0
C      1  0.5072860000000  0.4257060000000  0.4455190000000 1.0
C      1  0.5873710000000  0.5334390000000  0.4769660000000 1.0
C      1  0.5818870000000  0.4553440000000  0.5493960000000 1.0
C      1  0.5273400000000  0.5308900000000  0.5283600000000 1.0
C      1  0.5316030000000  0.5566080000000  0.5738580000000 1.0
C      1  0.4407840000000  0.5060420000000  0.4130070000000 1.0
C      1  0.5391630000000  0.4741830000000  0.5471600000000 1.0
C      1  0.4684130000000  0.6008680000000  0.5137680000000 1.0
C      1  0.4773730000000  0.5612730000000  0.4816160000000 1.0
C      1  0.5614110000000  0.5365830000000  0.5416300000000 1.0
C      1  0.4788660000000  0.5109650000000  0.5975890000000 1.0
C      1  0.5798990000000  0.5342850000000  0.4327640000000 1.0
C      1  0.5320880000000  0.4440880000000  0.5813180000000 1.0
C      1  0.5407940000000  0.4610620000000  0.4975960000000 1.0
C      1  0.5044280000000  0.5770050000000  0.5354820000000 1.0
C      1  0.5278600000000  0.5079630000000  0.5099570000000 1.0
C      1  0.5242620000000  0.4612730000000  0.4109110000000 1.0
C      1  0.4849640000000  0.4626090000000  0.5174470000000 1.0
C      1  0.5867020000000  0.4908510000000  0.4512010000000 1.0
C      1  0.5287030000000  0.5327960000000  0.4714810000000 1.0
C      1  0.4075820000000  0.4626440000000  0.5030900000000 1.0
C      1  0.5439100000000  0.5105520000000  0.4831190000000 1.0
C      1  0.4519190000000  0.5731050000000  0.4716780000000 1.0
C      1  0.5130730000000  0.5149800000000  0.5483170000000 1.0
C      1  0.5240280000000  0.4943700000000  0.5921570000000 1.0
C      1  0.5287930000000  0.5779550000000  0.5536170000000 1.0
C      1  0.4893540000000  0.4615420000000  0.5958100000000 1.0
C      1  0.5532850000000  0.4470280000000  0.5568310000000 1.0
C      1  0.4051020000000  0.5070650000000  0.5187740000000 1.0
C      1  0.4642670000000  0.5327200000000  0.5837920000000 1.0
C      1  0.5139020000000  0.4612570000000  0.5448490000000 1.0
C      1  0.4972140000000  0.4963070000000  0.4509420000000 1.0
C      1  0.4290300000000  0.5427570000000  0.4449680000000 1.0
C      1  0.4473050000000  0.4443650000000  0.4483790000000 1.0
C      1  0.4228140000000  0.4529960000000  0.4594550000000 1.0
C      1  0.4952160000000  0.6001770000000  0.5131450000000 1.0
C      1  0.5337720000000  0.4980140000000  0.5650040000000 1.0
C      1  0.5534680000000  0.5387540000000  0.5701290000000 1.0
C      1  0.5912730000000  0.4755460000000  0.5022000000000 1.0
C      1  0.5163890000000  0.4386350000000  0.4927490000000 1.0
C      1  0.5617160000000  0.4407010000000  0.5065720000000 1.0
C      1  0.4599100000000  0.4335590000000  0.5675590000000 1.0
C      1  0.5061350000000  0.6028740000000  0.4831930000000 1.0
C      1  0.5016530000000  0.5747740000000  0.4737930000000 1.0
C      1  0.5143370000000  0.4315530000000  0.5410560000000 1.0
C      1  0.4264700000000  0.4458470000000  0.5467690000000 1.0
C      1  0.4702890000000  0.4835340000000  0.5960600000000 1.0
C      1  0.5104390000000  0.5528370000000  0.5151070000000 1.0
C      1  0.4404370000000  0.5280340000000  0.5686720000000 1.0
C      1  0.5238270000000  0.5845640000000  0.4396750000000 1.0
C      1  0.4044630000000  0.4906090000000  0.4950560000000 1.0
C      1  0.4087620000000  0.4616110000000  0.5313840000000 1.0
C      1  0.5114490000000  0.4849000000000  0.4020960000000 1.0
C      1  0.4590280000000  0.4768020000000  0.5116020000000 1.0
C      1  0.5839300000000  0.4524910000000  0.5196750000000 1.0
C      1  0.4480230000000  0.5827860000000  0.5168100000000 1.0
C      1  0.5634390000000  0.4390210000000  0.4259520000000 1.0
C      1  0.5573450000000  0.4188970000000  0.4408330000000 1.0
C      1  0.5659990000000  0.4898710000000  0.4283070000000 1.0
C      1  0.4637220000000  0.5028090000000  0.5240910000000 1.0
C      1  0.4685510000000  0.5096280000000  0.4048440000000 1.0
C      1  0.5447360000000  0.4835400000000  0.5191610000000 1.0
C      1  0.5182390000000  0.4665790000000  0.5954380000000 1.0
C      1  0.4123080000000  0.5001880000000  0.4696050000000 1.0
C      1  0.5423300000000  0.4259710000000  0.5364710000000 1.0
C      1  0.4653090000000  0.4748660000000  0.4821820000000 1.0
C      1  0.4280510000000  0.5274460000000  0.4235350000000 1.0
C      1  0.4789670000000  0.5383300000000  0.4625890000000 1.0
C      1  0.4914580000000  0.4044980000000  0.4591900000000 1.0
C      1  0.5092690000000  0.5440440000000  0.5861280000000 1.0
C      1  0.4804800000000  0.5669730000000  0.5520300000000 1.0
C      1  0.5927320000000  0.4762660000000  0.5635740000000 1.0
C      1  0.4026230000000  0.4959560000000  0.5667560000000 1.0
C      1  0.4662640000000  0.4451700000000  0.4723140000000 1.0
C      1  0.4869450000000  0.5017940000000  0.5432150000000 1.0
C      1  0.4990700000000  0.5077910000000  0.4955620000000 1.0
C      1  0.5065760000000  0.5170850000000  0.5976640000000 1.0
C      1  0.4181720000000  0.5327400000000  0.5213260000000 1.0
C      1  0.5378880000000  0.4795020000000  0.4745380000000 1.0
C      1  0.5738520000000  0.5590380000000  0.4706880000000 1.0
C      1  0.4939220000000  0.4792770000000  0.4922160000000 1.0
C      1  0.4470900000000  0.4255480000000  0.5415800000000 1.0
C      1  0.4777760000000  0.4583820000000  0.4121310000000 1.0
C      1  0.4486620000000  0.5634280000000  0.4453900000000 1.0
C      1  0.5525970000000  0.4644580000000  0.4195900000000 1.0
C      1  0.4338960000000  0.5712080000000  0.4938170000000 1.0
C      1  0.5708230000000  0.5165700000000  0.4932510000000 1.0
END
