TITL C-26386-316-7 37.3087418723248 125000 -747.192212422673 0 0 106 (C1) n - 1
REM
REM in /rds/project/t2_vol4/rds-t2-cs072/BORA/CARBON/from-Arr/AIRSS/Generating-Clusters/GAP-ML-2020/Only-C1/SD-CG/HFTN-CG
REM
REM
REM
REM
REM
REM ./C.cell (11c1c37f851c82e70ff6c80c92926a4b)
REM AIRSS Version 0.9.1 bugfix July 2018 build 013d7b7c2542+ Fri, 06 Jul 2018 19:26:36 +0100
REM compiler GCC version 9.3.0
REM options -cpp -mtune=generic -march=x86-64 -g -O0
REM seed 883086553 -2033379819 301680688 1326231805 -332943178 1556285171 1115901197 -1106416453 1816892259 2027196161 1001259280 2068208641 -1615492591 1932114902 1664057436 -887865499 -1681047887 1534663591 1466658684 -1529480398 -638919940 -1674831232 1664374728 275648044 -1671749190 -898863220 1003661216 -1514707844 -992129186 884300668 54658624 1105937146 92935154
REM
CELL 1.54180   50.00000   50.00000   50.00000   90.00000   90.00000   90.00000
LATT -1
SFAC C  
C      1  0.5656240000000  0.5564570000000  0.4848230000000 1.0
C      1  0.4868540000000  0.5155860000000  0.4717860000000 1.0
C      1  0.5469830000000  0.4400650000000  0.5394890000000 1.0
C      1  0.4554290000000  0.5274630000000  0.5699840000000 1.0
C      1  0.4944140000000  0.5022210000000  0.4178880000000 1.0
C      1  0.5684330000000  0.4531580000000  0.4605950000000 1.0
C      1  0.4624960000000  0.4902470000000  0.4999590000000 1.0
C      1  0.4864640000000  0.5331940000000  0.4946980000000 1.0
C      1  0.4961100000000  0.4774940000000  0.4308790000000 1.0
C      1  0.4798460000000  0.4452730000000  0.5667770000000 1.0
C      1  0.5141370000000  0.4731770000000  0.5829070000000 1.0
C      1  0.5075410000000  0.4903530000000  0.5092990000000 1.0
C      1  0.4989810000000  0.4560270000000  0.5470910000000 1.0
C      1  0.5801310000000  0.5084330000000  0.4922780000000 1.0
C      1  0.4246120000000  0.4642990000000  0.5258020000000 1.0
C      1  0.5147140000000  0.5398700000000  0.5008090000000 1.0
C      1  0.4712820000000  0.5106240000000  0.5874410000000 1.0
C      1  0.4722580000000  0.5503120000000  0.5631230000000 1.0
C      1  0.5662900000000  0.5262530000000  0.4470680000000 1.0
C      1  0.5414120000000  0.4836970000000  0.5454410000000 1.0
C      1  0.5258620000000  0.5853650000000  0.4960560000000 1.0
C      1  0.5696340000000  0.4541310000000  0.4900620000000 1.0
C      1  0.4446670000000  0.5755200000000  0.4929950000000 1.0
C      1  0.4850120000000  0.4642540000000  0.5869370000000 1.0
C      1  0.4741180000000  0.5161660000000  0.5138220000000 1.0
C      1  0.5152860000000  0.5220040000000  0.4213750000000 1.0
C      1  0.5217800000000  0.4372170000000  0.4494150000000 1.0
C      1  0.5086580000000  0.5480330000000  0.4332710000000 1.0
C      1  0.4381410000000  0.5703540000000  0.5388330000000 1.0
C      1  0.4856390000000  0.4696020000000  0.5022160000000 1.0
C      1  0.4147060000000  0.4544040000000  0.5007990000000 1.0
C      1  0.5153270000000  0.5302650000000  0.5466380000000 1.0
C      1  0.5382610000000  0.4266160000000  0.5157290000000 1.0
C      1  0.5269240000000  0.4592930000000  0.5562250000000 1.0
C      1  0.5679430000000  0.4787600000000  0.4483820000000 1.0
C      1  0.4756040000000  0.4731020000000  0.4527290000000 1.0
C      1  0.4671270000000  0.4144710000000  0.4996860000000 1.0
C      1  0.4422940000000  0.4833910000000  0.5649950000000 1.0
C      1  0.5326790000000  0.5220210000000  0.4840450000000 1.0
C      1  0.4571080000000  0.4384070000000  0.5509170000000 1.0
C      1  0.5912730000000  0.4907990000000  0.5142980000000 1.0
C      1  0.4127330000000  0.4813850000000  0.4893940000000 1.0
C      1  0.5703590000000  0.5413020000000  0.5292270000000 1.0
C      1  0.5375880000000  0.5116040000000  0.5576290000000 1.0
C      1  0.4242560000000  0.5355760000000  0.5061380000000 1.0
C      1  0.4268340000000  0.5143930000000  0.5268240000000 1.0
C      1  0.4310590000000  0.5343230000000  0.4769810000000 1.0
C      1  0.5728110000000  0.4526150000000  0.5370970000000 1.0
C      1  0.4368990000000  0.4587860000000  0.5504910000000 1.0
C      1  0.5696980000000  0.4770870000000  0.5509080000000 1.0
C      1  0.4802110000000  0.5556950000000  0.4325540000000 1.0
C      1  0.5115120000000  0.5021020000000  0.4780990000000 1.0
C      1  0.4887250000000  0.4866140000000  0.5470850000000 1.0
C      1  0.5651560000000  0.5257570000000  0.4192650000000 1.0
C      1  0.4638140000000  0.4836400000000  0.5849710000000 1.0
C      1  0.5509220000000  0.5613340000000  0.5264120000000 1.0
C      1  0.5098960000000  0.5793820000000  0.5198790000000 1.0
C      1  0.4957970000000  0.4308560000000  0.4644740000000 1.0
C      1  0.4666180000000  0.4282760000000  0.4554710000000 1.0
C      1  0.4984420000000  0.5184150000000  0.5876590000000 1.0
C      1  0.5777820000000  0.5034670000000  0.4616380000000 1.0
C      1  0.4445490000000  0.5179720000000  0.4309900000000 1.0
C      1  0.4671780000000  0.4279690000000  0.5254140000000 1.0
C      1  0.4361560000000  0.5100260000000  0.4587860000000 1.0
C      1  0.5669460000000  0.5208100000000  0.5482790000000 1.0
C      1  0.4499280000000  0.4213520000000  0.4778100000000 1.0
C      1  0.5201990000000  0.4747150000000  0.4706180000000 1.0
C      1  0.4678740000000  0.5115760000000  0.4160060000000 1.0
C      1  0.4550640000000  0.4525140000000  0.4462840000000 1.0
C      1  0.5438190000000  0.4732920000000  0.4903980000000 1.0
C      1  0.4960020000000  0.5073250000000  0.5306890000000 1.0
C      1  0.4190440000000  0.4848890000000  0.4625760000000 1.0
C      1  0.4266070000000  0.4394570000000  0.4788300000000 1.0
C      1  0.5481330000000  0.5436220000000  0.4643310000000 1.0
C      1  0.5218550000000  0.4666440000000  0.4395430000000 1.0
C      1  0.4320490000000  0.4896730000000  0.5116820000000 1.0
C      1  0.4642080000000  0.4974980000000  0.4693550000000 1.0
C      1  0.4987400000000  0.5402500000000  0.5695110000000 1.0
C      1  0.5844090000000  0.4991010000000  0.5410750000000 1.0
C      1  0.5204700000000  0.5006850000000  0.5824530000000 1.0
C      1  0.5519080000000  0.5747960000000  0.5012870000000 1.0
C      1  0.4308430000000  0.5625610000000  0.5137790000000 1.0
C      1  0.5227580000000  0.5528540000000  0.5277900000000 1.0
C      1  0.4824080000000  0.5840400000000  0.5225520000000 1.0
C      1  0.5253540000000  0.5604370000000  0.4525320000000 1.0
C      1  0.4613160000000  0.5378570000000  0.4210930000000 1.0
C      1  0.5136150000000  0.5808580000000  0.4703000000000 1.0
C      1  0.5789690000000  0.5369180000000  0.5017110000000 1.0
C      1  0.4370060000000  0.5104700000000  0.5545160000000 1.0
C      1  0.5851360000000  0.4620080000000  0.5128560000000 1.0
C      1  0.5526020000000  0.4297120000000  0.4912730000000 1.0
C      1  0.4702140000000  0.5873870000000  0.4967630000000 1.0
C      1  0.5454520000000  0.4822650000000  0.4311510000000 1.0
C      1  0.4653550000000  0.5711410000000  0.5436840000000 1.0
C      1  0.4437540000000  0.5602070000000  0.4696230000000 1.0
C      1  0.4948610000000  0.4138920000000  0.4891830000000 1.0
C      1  0.4681800000000  0.5690940000000  0.4543360000000 1.0
C      1  0.4932300000000  0.4608840000000  0.4745810000000 1.0
C      1  0.5417910000000  0.5101660000000  0.4222340000000 1.0
C      1  0.5351770000000  0.4850750000000  0.5149690000000 1.0
C      1  0.4291550000000  0.4582970000000  0.4567280000000 1.0
C      1  0.5108940000000  0.4241870000000  0.5102600000000 1.0
C      1  0.5464220000000  0.4334280000000  0.4627480000000 1.0
C      1  0.4915330000000  0.4442690000000  0.5212530000000 1.0
C      1  0.5508090000000  0.5029950000000  0.4965900000000 1.0
C      1  0.4848630000000  0.5838400000000  0.4718210000000 1.0
END
