TITL C-260507-6815-2 0.0211695865869681 125000 -139.340973539188 0 0 22 (C1) n - 1
REM
REM in /rds/project/t2_vol4/rds-t2-cs072/BORA/CARBON/from-Arr/AIRSS/Generating-Clusters/GAP-ML-2020/Only-C1/SD-CG/HFTN-CG
REM
REM
REM
REM
REM
REM ./C.cell (11c1c37f851c82e70ff6c80c92926a4b)
REM AIRSS Version 0.9.1 bugfix July 2018 build 013d7b7c2542+ Fri, 06 Jul 2018 19:26:36 +0100
REM compiler GCC version 9.3.0
REM options -cpp -mtune=generic -march=x86-64 -g -O0
REM seed 558410364 2051553612 -773850463 -1173926179 -429786494 -1609316402 -1543416602 -1209661017 330743876 925407966 45052000 -401822701 67369210 2061228672 -1653381355 -1449058433 178656685 65848485 -455963265 -367922563 -360939028 -2140979854 -2106722344 -1302225039 -469076427 -2144120616 1289615123 -24481327 -932726933 2052708815 -417912855 -967401061 1401514144
REM
CELL 1.54180   50.00000   50.00000   50.00000   90.00000   90.00000   90.00000
LATT -1
SFAC C  
C      1  0.4723330000000  0.4807860000000  0.4898070000000 1.0
C      1  0.5495570000000  0.5317880000000  0.5262770000000 1.0
C      1  0.5227450000000  0.5238740000000  0.4633960000000 1.0
C      1  0.4517650000000  0.4936250000000  0.5007980000000 1.0
C      1  0.5389900000000  0.4617230000000  0.4982700000000 1.0
C      1  0.5157800000000  0.4657070000000  0.5111090000000 1.0
C      1  0.4541650000000  0.5210450000000  0.5619680000000 1.0
C      1  0.4982570000000  0.4887570000000  0.5005300000000 1.0
C      1  0.4947210000000  0.4919180000000  0.5399430000000 1.0
C      1  0.4793030000000  0.4682540000000  0.4658990000000 1.0
C      1  0.5028500000000  0.5411930000000  0.4623750000000 1.0
C      1  0.5289390000000  0.4715490000000  0.4520140000000 1.0
C      1  0.5045150000000  0.4682940000000  0.5364430000000 1.0
C      1  0.5025550000000  0.5116840000000  0.5190250000000 1.0
C      1  0.5322140000000  0.5178720000000  0.5120600000000 1.0
C      1  0.5037800000000  0.4702130000000  0.4580860000000 1.0
C      1  0.4870190000000  0.5357300000000  0.4823890000000 1.0
C      1  0.4570540000000  0.5159640000000  0.5152450000000 1.0
C      1  0.4819880000000  0.5289930000000  0.5074520000000 1.0
C      1  0.4445850000000  0.5226820000000  0.5386640000000 1.0
C      1  0.5404930000000  0.4801930000000  0.4764600000000 1.0
C      1  0.5363920000000  0.5081550000000  0.4817880000000 1.0
END
