TITL C-260541-2314-8 0.157884188072496 125000 -650.905086574109 0 0 94 (C1) n - 1
REM
REM in /rds/project/t2_vol4/rds-t2-cs072/BORA/CARBON/from-Arr/AIRSS/Generating-Clusters/GAP-ML-2020/Only-C1/SD-CG/HFTN-CG
REM
REM
REM
REM
REM
REM ./C.cell (11c1c37f851c82e70ff6c80c92926a4b)
REM AIRSS Version 0.9.1 bugfix July 2018 build 013d7b7c2542+ Fri, 06 Jul 2018 19:26:36 +0100
REM compiler GCC version 9.3.0
REM options -cpp -mtune=generic -march=x86-64 -g -O0
REM seed 1868504096 886430358 949817512 146227789 -1851923202 -1122008701 497175190 754332009 -1873522496 -1941665889 -837451324 1502694419 -38299757 588881170 1124127313 -1167735959 235788538 519019831 214564951 -18319813 -158482970 1569074472 -1617329108 -997724302 -620296395 -1488184274 -155111270 290005841 491637326 -601481897 1532288477 442658162 1221387425
REM
CELL 1.54180   50.00000   50.00000   50.00000   90.00000   90.00000   90.00000
LATT -1
SFAC C  
C      1  0.5378170000000  0.5599060000000  0.4380830000000 1.0
C      1  0.4433070000000  0.5292830000000  0.5511580000000 1.0
C      1  0.5477560000000  0.4209730000000  0.4969110000000 1.0
C      1  0.5899410000000  0.4924220000000  0.4735910000000 1.0
C      1  0.5316030000000  0.5107830000000  0.5854190000000 1.0
C      1  0.4904680000000  0.4925310000000  0.4403850000000 1.0
C      1  0.5115790000000  0.4695490000000  0.5104450000000 1.0
C      1  0.4594940000000  0.4926560000000  0.4814410000000 1.0
C      1  0.5245670000000  0.4546550000000  0.4924400000000 1.0
C      1  0.4524660000000  0.5511660000000  0.5323670000000 1.0
C      1  0.5086840000000  0.5171040000000  0.4354580000000 1.0
C      1  0.4486630000000  0.4882610000000  0.5743280000000 1.0
C      1  0.4405900000000  0.4578900000000  0.4453480000000 1.0
C      1  0.4811860000000  0.5038710000000  0.5216280000000 1.0
C      1  0.4430280000000  0.5451880000000  0.4586360000000 1.0
C      1  0.5076530000000  0.5298510000000  0.5886040000000 1.0
C      1  0.4563870000000  0.5163090000000  0.5750230000000 1.0
C      1  0.4410090000000  0.5485080000000  0.5057550000000 1.0
C      1  0.4915750000000  0.5039390000000  0.5480020000000 1.0
C      1  0.4938410000000  0.4874290000000  0.5742160000000 1.0
C      1  0.5206130000000  0.4258650000000  0.4906120000000 1.0
C      1  0.5542100000000  0.5516260000000  0.4893630000000 1.0
C      1  0.5044640000000  0.4240750000000  0.4674240000000 1.0
C      1  0.5678840000000  0.5377240000000  0.4674690000000 1.0
C      1  0.5003730000000  0.5174610000000  0.4801160000000 1.0
C      1  0.4840560000000  0.4480850000000  0.4699070000000 1.0
C      1  0.5521780000000  0.5373820000000  0.4397250000000 1.0
C      1  0.4534730000000  0.4637750000000  0.4218870000000 1.0
C      1  0.4880190000000  0.5412880000000  0.4381490000000 1.0
C      1  0.5430380000000  0.4933860000000  0.4725570000000 1.0
C      1  0.4365100000000  0.4465810000000  0.4901640000000 1.0
C      1  0.5412650000000  0.4794640000000  0.5488730000000 1.0
C      1  0.4431910000000  0.4546780000000  0.5422950000000 1.0
C      1  0.4888530000000  0.4341090000000  0.5431560000000 1.0
C      1  0.4540470000000  0.4452780000000  0.4675560000000 1.0
C      1  0.4462730000000  0.4413990000000  0.5165540000000 1.0
C      1  0.4880690000000  0.5765330000000  0.5051290000000 1.0
C      1  0.5873800000000  0.5197740000000  0.4739960000000 1.0
C      1  0.5241900000000  0.5753830000000  0.5324520000000 1.0
C      1  0.4066910000000  0.4837610000000  0.5021270000000 1.0
C      1  0.4253330000000  0.5040230000000  0.4489800000000 1.0
C      1  0.4212250000000  0.4763940000000  0.4561380000000 1.0
C      1  0.4668750000000  0.4479980000000  0.5580580000000 1.0
C      1  0.4224600000000  0.5286460000000  0.4964290000000 1.0
C      1  0.5685350000000  0.4867460000000  0.4552880000000 1.0
C      1  0.5164860000000  0.4351010000000  0.5450770000000 1.0
C      1  0.5276490000000  0.4680220000000  0.4672180000000 1.0
C      1  0.4775620000000  0.5672610000000  0.5313420000000 1.0
C      1  0.5439350000000  0.5483080000000  0.5633570000000 1.0
C      1  0.5414950000000  0.4473290000000  0.5415270000000 1.0
C      1  0.4474440000000  0.5099070000000  0.4306130000000 1.0
C      1  0.4686780000000  0.4845490000000  0.5059230000000 1.0
C      1  0.4526440000000  0.5589550000000  0.4812590000000 1.0
C      1  0.5633590000000  0.4347470000000  0.4765330000000 1.0
C      1  0.5788370000000  0.4767690000000  0.4960540000000 1.0
C      1  0.5529950000000  0.5215660000000  0.5692910000000 1.0
C      1  0.4269400000000  0.5076350000000  0.5399910000000 1.0
C      1  0.4708950000000  0.4698110000000  0.5756190000000 1.0
C      1  0.5581130000000  0.4678780000000  0.4349810000000 1.0
C      1  0.4939090000000  0.5637930000000  0.4560660000000 1.0
C      1  0.5015370000000  0.5681260000000  0.5486900000000 1.0
C      1  0.4655810000000  0.4880450000000  0.4244830000000 1.0
C      1  0.5523130000000  0.5400560000000  0.5162570000000 1.0
C      1  0.5306450000000  0.4891930000000  0.5204350000000 1.0
C      1  0.4837240000000  0.5147040000000  0.5856350000000 1.0
C      1  0.5146920000000  0.5499040000000  0.5688610000000 1.0
C      1  0.4597760000000  0.5353080000000  0.4371790000000 1.0
C      1  0.5610280000000  0.5039650000000  0.5488730000000 1.0
C      1  0.5585140000000  0.4366320000000  0.5196110000000 1.0
C      1  0.5006880000000  0.4690710000000  0.4547450000000 1.0
C      1  0.5253830000000  0.4255350000000  0.4509380000000 1.0
C      1  0.4242200000000  0.5258770000000  0.4675990000000 1.0
C      1  0.5243740000000  0.4861440000000  0.5740820000000 1.0
C      1  0.4991010000000  0.5212760000000  0.5066920000000 1.0
C      1  0.5331080000000  0.5699370000000  0.4842660000000 1.0
C      1  0.4751340000000  0.4374720000000  0.5177380000000 1.0
C      1  0.5658670000000  0.5149210000000  0.5220030000000 1.0
C      1  0.4860580000000  0.4598280000000  0.5012810000000 1.0
C      1  0.5362990000000  0.5143620000000  0.4244600000000 1.0
C      1  0.5166090000000  0.5786850000000  0.5058020000000 1.0
C      1  0.4776070000000  0.5709830000000  0.4792090000000 1.0
C      1  0.4147760000000  0.5074220000000  0.5138430000000 1.0
C      1  0.4326330000000  0.4813640000000  0.5524920000000 1.0
C      1  0.4804720000000  0.5020070000000  0.4675290000000 1.0
C      1  0.5453650000000  0.4883190000000  0.4215560000000 1.0
C      1  0.5240030000000  0.5159560000000  0.4654780000000 1.0
C      1  0.5217090000000  0.5689330000000  0.4580870000000 1.0
C      1  0.5463220000000  0.4457830000000  0.4534780000000 1.0
C      1  0.5120580000000  0.5238940000000  0.5469290000000 1.0
C      1  0.5474030000000  0.5594970000000  0.5379380000000 1.0
C      1  0.5232780000000  0.5206640000000  0.5212570000000 1.0
C      1  0.5554280000000  0.4936100000000  0.5020710000000 1.0
C      1  0.4167010000000  0.4676900000000  0.4832600000000 1.0
C      1  0.5758330000000  0.4494950000000  0.4987450000000 1.0
END
