TITL C-26388-484-6 -0.0131123089624474 125000 -151.428131095231 0 0 24 (C1) n - 1
REM
REM in /rds/project/t2_vol4/rds-t2-cs072/BORA/CARBON/from-Arr/AIRSS/Generating-Clusters/GAP-ML-2020/Only-C1/SD-CG/HFTN-CG
REM
REM
REM
REM
REM
REM ./C.cell (11c1c37f851c82e70ff6c80c92926a4b)
REM AIRSS Version 0.9.1 bugfix July 2018 build 013d7b7c2542+ Fri, 06 Jul 2018 19:26:36 +0100
REM compiler GCC version 9.3.0
REM options -cpp -mtune=generic -march=x86-64 -g -O0
REM seed -247524099 1655267280 467275042 127569543 1388061676 1783933944 1753449030 -548756247 -320299680 -1993905560 -682346378 -878289553 1525896370 1014935799 1180820428 499385697 1264511361 2135253238 1740712476 698011357 756379805 -912374154 -234925062 -577434743 1944593724 -404389262 1295460228 -1398248903 511472722 1753404372 1325183400 2087281970 1396602438
REM
CELL 1.54180   50.00000   50.00000   50.00000   90.00000   90.00000   90.00000
LATT -1
SFAC C  
C      1  0.4800840000000  0.4945540000000  0.5093060000000 1.0
C      1  0.5481620000000  0.4959730000000  0.5284800000000 1.0
C      1  0.4976650000000  0.5120370000000  0.4554680000000 1.0
C      1  0.5098370000000  0.4614960000000  0.4842030000000 1.0
C      1  0.5203140000000  0.5375930000000  0.5317540000000 1.0
C      1  0.4781560000000  0.5079030000000  0.5531220000000 1.0
C      1  0.5043950000000  0.4650910000000  0.5376590000000 1.0
C      1  0.4642500000000  0.5185560000000  0.5102890000000 1.0
C      1  0.5244330000000  0.5098550000000  0.5356960000000 1.0
C      1  0.5090750000000  0.4669900000000  0.4549570000000 1.0
C      1  0.4605520000000  0.5212820000000  0.5406240000000 1.0
C      1  0.4432160000000  0.5207250000000  0.4896130000000 1.0
C      1  0.5190190000000  0.4458310000000  0.5323120000000 1.0
C      1  0.5501530000000  0.4800980000000  0.5087570000000 1.0
C      1  0.5374170000000  0.4708150000000  0.4863510000000 1.0
C      1  0.4983190000000  0.4933850000000  0.5337540000000 1.0
C      1  0.5026200000000  0.5467510000000  0.5161060000000 1.0
C      1  0.4833990000000  0.5381770000000  0.4987520000000 1.0
C      1  0.4827170000000  0.5302890000000  0.4703850000000 1.0
C      1  0.5332110000000  0.4826370000000  0.4579580000000 1.0
C      1  0.4545570000000  0.5275530000000  0.4672950000000 1.0
C      1  0.4863240000000  0.4846100000000  0.4587700000000 1.0
C      1  0.4856880000000  0.4787610000000  0.4872530000000 1.0
C      1  0.5264350000000  0.5090390000000  0.4511370000000 1.0
END
