TITL C-260536-2373-3 -0.199365211141617 125000 -785.560338939084 0 0 112 (C1) n - 1
REM
REM in /rds/project/t2_vol4/rds-t2-cs072/BORA/CARBON/from-Arr/AIRSS/Generating-Clusters/GAP-ML-2020/Only-C1/SD-CG/HFTN-CG
REM
REM
REM
REM
REM
REM ./C.cell (11c1c37f851c82e70ff6c80c92926a4b)
REM AIRSS Version 0.9.1 bugfix July 2018 build 013d7b7c2542+ Fri, 06 Jul 2018 19:26:36 +0100
REM compiler GCC version 9.3.0
REM options -cpp -mtune=generic -march=x86-64 -g -O0
REM seed -1157165451 -1478015965 -1436512102 2030243456 -321247055 -1285317029 -1664365723 -1552019596 -283677831 1274026093 280366551 1641187268 -656545439 1953496734 2101074704 1345617777 -1970163930 1566507350 807797166 1315268357 285752263 224052516 -548110836 1323253769 -760333281 -1351222295 -577209570 1633803926 -328404233 -310342796 -1115273440 -1623423468 -205425616
REM
CELL 1.54180   50.00000   50.00000   50.00000   90.00000   90.00000   90.00000
LATT -1
SFAC C  
C      1  0.5451860000000  0.5100070000000  0.5234580000000 1.0
C      1  0.5062410000000  0.5344690000000  0.5129640000000 1.0
C      1  0.5842080000000  0.4460840000000  0.5128690000000 1.0
C      1  0.5560350000000  0.5339300000000  0.4766050000000 1.0
C      1  0.4435770000000  0.4319200000000  0.4816540000000 1.0
C      1  0.4890730000000  0.4832720000000  0.5889290000000 1.0
C      1  0.4499760000000  0.4249200000000  0.4310790000000 1.0
C      1  0.4646300000000  0.4243920000000  0.5222560000000 1.0
C      1  0.5224560000000  0.5349960000000  0.4374270000000 1.0
C      1  0.5687950000000  0.5255670000000  0.5632820000000 1.0
C      1  0.4644340000000  0.4821720000000  0.5153970000000 1.0
C      1  0.4658540000000  0.5498780000000  0.5484330000000 1.0
C      1  0.4638090000000  0.5717610000000  0.5298660000000 1.0
C      1  0.5347790000000  0.4854800000000  0.5124480000000 1.0
C      1  0.5050500000000  0.5378710000000  0.4846990000000 1.0
C      1  0.5493850000000  0.4887290000000  0.5704670000000 1.0
C      1  0.4326570000000  0.4451100000000  0.4407940000000 1.0
C      1  0.4727770000000  0.5144230000000  0.4324870000000 1.0
C      1  0.5494310000000  0.5637590000000  0.4796680000000 1.0
C      1  0.5206990000000  0.4954810000000  0.4697440000000 1.0
C      1  0.4597470000000  0.5232820000000  0.5342040000000 1.0
C      1  0.4482690000000  0.4895930000000  0.4661600000000 1.0
C      1  0.5267000000000  0.5345200000000  0.5893930000000 1.0
C      1  0.4936290000000  0.4872580000000  0.4740650000000 1.0
C      1  0.5228510000000  0.4812680000000  0.4128290000000 1.0
C      1  0.4288050000000  0.5467780000000  0.5035030000000 1.0
C      1  0.5665010000000  0.5010060000000  0.5476730000000 1.0
C      1  0.4797920000000  0.5206700000000  0.5097880000000 1.0
C      1  0.5383970000000  0.4817990000000  0.4859820000000 1.0
C      1  0.4185150000000  0.4989470000000  0.5247210000000 1.0
C      1  0.4194720000000  0.4457520000000  0.4661740000000 1.0
C      1  0.4811450000000  0.5858340000000  0.4696560000000 1.0
C      1  0.5096340000000  0.5929710000000  0.5100020000000 1.0
C      1  0.5129120000000  0.4159660000000  0.5274730000000 1.0
C      1  0.5094110000000  0.4595410000000  0.4253890000000 1.0
C      1  0.4852850000000  0.4439950000000  0.5600000000000 1.0
C      1  0.5267600000000  0.5761210000000  0.4660310000000 1.0
C      1  0.5416950000000  0.4251970000000  0.4982990000000 1.0
C      1  0.4999910000000  0.5247170000000  0.4215950000000 1.0
C      1  0.5024640000000  0.5778480000000  0.5545010000000 1.0
C      1  0.5480750000000  0.4476580000000  0.4515210000000 1.0
C      1  0.4486160000000  0.5314530000000  0.4362220000000 1.0
C      1  0.5838410000000  0.4858660000000  0.5308600000000 1.0
C      1  0.5673550000000  0.5181910000000  0.4532870000000 1.0
C      1  0.5013310000000  0.4534640000000  0.5044230000000 1.0
C      1  0.4962970000000  0.4853430000000  0.5468580000000 1.0
C      1  0.5577510000000  0.4383820000000  0.4770030000000 1.0
C      1  0.5132150000000  0.5630350000000  0.4437640000000 1.0
C      1  0.4883750000000  0.4241190000000  0.5392640000000 1.0
C      1  0.4797920000000  0.4636660000000  0.4276800000000 1.0
C      1  0.4775120000000  0.5284380000000  0.4808570000000 1.0
C      1  0.4587020000000  0.4520530000000  0.5584300000000 1.0
C      1  0.4316860000000  0.5242000000000  0.5224240000000 1.0
C      1  0.5078570000000  0.4781710000000  0.5197850000000 1.0
C      1  0.4876560000000  0.5551550000000  0.5665520000000 1.0
C      1  0.5498650000000  0.5676280000000  0.5640090000000 1.0
C      1  0.5244240000000  0.5276600000000  0.5308370000000 1.0
C      1  0.5680070000000  0.5246810000000  0.5044780000000 1.0
C      1  0.5352310000000  0.4648220000000  0.5662530000000 1.0
C      1  0.5351830000000  0.5866370000000  0.5212350000000 1.0
C      1  0.4825230000000  0.5107750000000  0.5890740000000 1.0
C      1  0.4540860000000  0.4645840000000  0.4488690000000 1.0
C      1  0.4574140000000  0.5580690000000  0.4413940000000 1.0
C      1  0.5554500000000  0.5711710000000  0.5064710000000 1.0
C      1  0.5766200000000  0.4912080000000  0.4576860000000 1.0
C      1  0.4466340000000  0.5696430000000  0.5076240000000 1.0
C      1  0.4627500000000  0.4912250000000  0.5864900000000 1.0
C      1  0.5678430000000  0.5503590000000  0.5496700000000 1.0
C      1  0.5860100000000  0.4991380000000  0.5051250000000 1.0
C      1  0.5310160000000  0.5820430000000  0.5489890000000 1.0
C      1  0.5391680000000  0.5590430000000  0.5881370000000 1.0
C      1  0.4244490000000  0.4813900000000  0.5462600000000 1.0
C      1  0.5864330000000  0.4819670000000  0.4825020000000 1.0
C      1  0.4776420000000  0.4901420000000  0.4153040000000 1.0
C      1  0.4962290000000  0.4324790000000  0.4581210000000 1.0
C      1  0.4876820000000  0.4931280000000  0.5038130000000 1.0
C      1  0.5391900000000  0.4292310000000  0.5275270000000 1.0
C      1  0.4844580000000  0.5700590000000  0.4456590000000 1.0
C      1  0.4972920000000  0.5344830000000  0.5844060000000 1.0
C      1  0.4264430000000  0.5227930000000  0.4558050000000 1.0
C      1  0.4675200000000  0.4942340000000  0.5429260000000 1.0
C      1  0.4549310000000  0.5807780000000  0.4814950000000 1.0
C      1  0.4891440000000  0.5862140000000  0.5307260000000 1.0
C      1  0.4891860000000  0.4572800000000  0.4776420000000 1.0
C      1  0.5498210000000  0.4489060000000  0.5461610000000 1.0
C      1  0.5144060000000  0.4124080000000  0.4985880000000 1.0
C      1  0.5488710000000  0.5182820000000  0.4316150000000 1.0
C      1  0.4472050000000  0.4768040000000  0.4936820000000 1.0
C      1  0.5754610000000  0.4584170000000  0.5347200000000 1.0
C      1  0.5695910000000  0.5506650000000  0.5207370000000 1.0
C      1  0.4095690000000  0.4705030000000  0.4764420000000 1.0
C      1  0.4918960000000  0.4133430000000  0.4812570000000 1.0
C      1  0.4595000000000  0.4554410000000  0.4779650000000 1.0
C      1  0.5210470000000  0.4416150000000  0.4434150000000 1.0
C      1  0.4731980000000  0.5055950000000  0.4623180000000 1.0
C      1  0.4191420000000  0.4747210000000  0.5044450000000 1.0
C      1  0.5067300000000  0.5908390000000  0.4816590000000 1.0
C      1  0.4753950000000  0.4336250000000  0.4364130000000 1.0
C      1  0.5606770000000  0.4728520000000  0.4413190000000 1.0
C      1  0.4401600000000  0.5665610000000  0.4623300000000 1.0
C      1  0.5478880000000  0.5157360000000  0.5815500000000 1.0
C      1  0.4653100000000  0.4181870000000  0.4945710000000 1.0
C      1  0.4496640000000  0.4799380000000  0.5627410000000 1.0
C      1  0.4202580000000  0.4961110000000  0.4626080000000 1.0
C      1  0.5030650000000  0.5003470000000  0.4073770000000 1.0
C      1  0.5468030000000  0.4907570000000  0.4237360000000 1.0
C      1  0.4236040000000  0.4580890000000  0.5293370000000 1.0
C      1  0.4243760000000  0.5454800000000  0.4742090000000 1.0
C      1  0.4454770000000  0.4410410000000  0.5361940000000 1.0
C      1  0.5799990000000  0.4535910000000  0.4877320000000 1.0
C      1  0.5251420000000  0.5244720000000  0.4687660000000 1.0
C      1  0.5038310000000  0.4663320000000  0.5686900000000 1.0
END
