TITL C-260509-7927-5 -0.147832963112379 125000 -607.164663543587 0 0 89 (C1) n - 1
REM
REM in /rds/project/t2_vol4/rds-t2-cs072/BORA/CARBON/from-Arr/AIRSS/Generating-Clusters/GAP-ML-2020/Only-C1/SD-CG/HFTN-CG
REM
REM
REM
REM
REM
REM ./C.cell (11c1c37f851c82e70ff6c80c92926a4b)
REM AIRSS Version 0.9.1 bugfix July 2018 build 013d7b7c2542+ Fri, 06 Jul 2018 19:26:36 +0100
REM compiler GCC version 9.3.0
REM options -cpp -mtune=generic -march=x86-64 -g -O0
REM seed 724622145 1309503430 -1673056415 414595868 -1012945607 908488127 -1735641477 334711046 580415036 576045909 -519956567 -321665988 1978071614 912980590 1235131294 62988034 -365146543 -250167224 -1643216536 -1486146124 1202077125 -237212959 1932852251 -2009843572 515702625 486039506 1836917969 19890846 1746932414 -545277854 -798296 802044361 1640393172
REM
CELL 1.54180   50.00000   50.00000   50.00000   90.00000   90.00000   90.00000
LATT -1
SFAC C  
C      1  0.4450640000000  0.5267720000000  0.5418490000000 1.0
C      1  0.5123680000000  0.4191900000000  0.5115960000000 1.0
C      1  0.4423860000000  0.5685230000000  0.4958390000000 1.0
C      1  0.5339860000000  0.5324330000000  0.5178820000000 1.0
C      1  0.5701290000000  0.5428050000000  0.4897730000000 1.0
C      1  0.4649150000000  0.4572630000000  0.4485290000000 1.0
C      1  0.4489760000000  0.5171330000000  0.4822270000000 1.0
C      1  0.4770820000000  0.5504940000000  0.4361810000000 1.0
C      1  0.5133300000000  0.4714360000000  0.4628310000000 1.0
C      1  0.4840730000000  0.5262420000000  0.5692700000000 1.0
C      1  0.4276460000000  0.5243270000000  0.5193630000000 1.0
C      1  0.4767660000000  0.4338850000000  0.4609300000000 1.0
C      1  0.5405760000000  0.5100070000000  0.4061670000000 1.0
C      1  0.4820630000000  0.4603830000000  0.5012540000000 1.0
C      1  0.4647640000000  0.5424150000000  0.5265090000000 1.0
C      1  0.4341880000000  0.4740450000000  0.4856820000000 1.0
C      1  0.4608100000000  0.5701580000000  0.5173750000000 1.0
C      1  0.5272890000000  0.5575370000000  0.4576490000000 1.0
C      1  0.4959630000000  0.4662180000000  0.5262100000000 1.0
C      1  0.5706630000000  0.4825690000000  0.5265810000000 1.0
C      1  0.5352350000000  0.4769350000000  0.5605150000000 1.0
C      1  0.5327790000000  0.5056330000000  0.5639920000000 1.0
C      1  0.5035410000000  0.5660040000000  0.5380840000000 1.0
C      1  0.4571410000000  0.5688240000000  0.4709090000000 1.0
C      1  0.5749030000000  0.5065330000000  0.4604600000000 1.0
C      1  0.5482990000000  0.4696020000000  0.5372700000000 1.0
C      1  0.4786230000000  0.4890410000000  0.5353310000000 1.0
C      1  0.5254470000000  0.4664880000000  0.5177840000000 1.0
C      1  0.5690600000000  0.4557910000000  0.4829150000000 1.0
C      1  0.4923520000000  0.4457340000000  0.5494800000000 1.0
C      1  0.5805580000000  0.5209560000000  0.5048870000000 1.0
C      1  0.5481880000000  0.5563340000000  0.5032710000000 1.0
C      1  0.5479890000000  0.5246840000000  0.5446680000000 1.0
C      1  0.5346660000000  0.4890910000000  0.4249760000000 1.0
C      1  0.4719620000000  0.5320430000000  0.4932630000000 1.0
C      1  0.4893520000000  0.5399640000000  0.5434440000000 1.0
C      1  0.5325800000000  0.4384110000000  0.5115940000000 1.0
C      1  0.5026250000000  0.4118580000000  0.4857740000000 1.0
C      1  0.4892010000000  0.4795200000000  0.4827180000000 1.0
C      1  0.5017870000000  0.5733510000000  0.4924670000000 1.0
C      1  0.5020620000000  0.5155540000000  0.4593670000000 1.0
C      1  0.5147160000000  0.5128080000000  0.5088970000000 1.0
C      1  0.4245110000000  0.5460280000000  0.4985690000000 1.0
C      1  0.4658330000000  0.4528740000000  0.5601440000000 1.0
C      1  0.4348190000000  0.5303400000000  0.4481040000000 1.0
C      1  0.4359840000000  0.4999070000000  0.5025420000000 1.0
C      1  0.4240260000000  0.5320120000000  0.4741560000000 1.0
C      1  0.5284550000000  0.4960450000000  0.4679430000000 1.0
C      1  0.5493040000000  0.5450880000000  0.4437090000000 1.0
C      1  0.4839050000000  0.4751190000000  0.4339360000000 1.0
C      1  0.4835570000000  0.5573980000000  0.4774000000000 1.0
C      1  0.4464840000000  0.4343880000000  0.5220050000000 1.0
C      1  0.4740770000000  0.4165650000000  0.4856770000000 1.0
C      1  0.5285910000000  0.5675760000000  0.4841250000000 1.0
C      1  0.5575420000000  0.4605850000000  0.4570800000000 1.0
C      1  0.5118660000000  0.4738180000000  0.4320280000000 1.0
C      1  0.4960260000000  0.5118240000000  0.5310570000000 1.0
C      1  0.4889880000000  0.5780370000000  0.5167290000000 1.0
C      1  0.4518370000000  0.5530530000000  0.4462340000000 1.0
C      1  0.5801940000000  0.4752870000000  0.4998030000000 1.0
C      1  0.5065790000000  0.5087710000000  0.5772540000000 1.0
C      1  0.4522930000000  0.5039800000000  0.4530930000000 1.0
C      1  0.4489280000000  0.4830080000000  0.5235240000000 1.0
C      1  0.5300920000000  0.5723770000000  0.5451630000000 1.0
C      1  0.4955290000000  0.4828500000000  0.5797110000000 1.0
C      1  0.4507990000000  0.4588250000000  0.5057270000000 1.0
C      1  0.4413760000000  0.4422180000000  0.5502020000000 1.0
C      1  0.5305420000000  0.4461680000000  0.4642660000000 1.0
C      1  0.4996870000000  0.5460060000000  0.4539170000000 1.0
C      1  0.5065680000000  0.4279580000000  0.4619720000000 1.0
C      1  0.5529630000000  0.4884410000000  0.4498230000000 1.0
C      1  0.4700240000000  0.4831760000000  0.5658300000000 1.0
C      1  0.5470640000000  0.5317080000000  0.4191400000000 1.0
C      1  0.5708970000000  0.5109520000000  0.5298670000000 1.0
C      1  0.5475450000000  0.4387050000000  0.4886050000000 1.0
C      1  0.4916760000000  0.4213530000000  0.5305440000000 1.0
C      1  0.4172520000000  0.4576870000000  0.5555370000000 1.0
C      1  0.5512420000000  0.5537150000000  0.5518160000000 1.0
C      1  0.4257520000000  0.4783070000000  0.5431900000000 1.0
C      1  0.5307070000000  0.4910730000000  0.4978790000000 1.0
C      1  0.5110890000000  0.4626610000000  0.5684410000000 1.0
C      1  0.4446370000000  0.4762190000000  0.4593780000000 1.0
C      1  0.4925710000000  0.5113700000000  0.4884920000000 1.0
C      1  0.4788760000000  0.5019890000000  0.4422210000000 1.0
C      1  0.4591650000000  0.5127100000000  0.5643700000000 1.0
C      1  0.5534730000000  0.5710200000000  0.5294560000000 1.0
C      1  0.5847530000000  0.4997600000000  0.4862170000000 1.0
C      1  0.5681650000000  0.5343120000000  0.4626290000000 1.0
C      1  0.4676550000000  0.4177430000000  0.5147330000000 1.0
END
