TITL C-2681602-3310-3 -0.028931355237574 125000 -170.69572477361 0 0 26 (C1) n - 1
REM
REM in /nfs/bkarasulu/CARBON/AIRSS/Generating-Clusters/GAP-ML-2020/Only-C1/SD-CG/HFTN-CG
REM
REM
REM
REM
REM
REM ./C.cell (11c1c37f851c82e70ff6c80c92926a4b)
REM
REM compiler GCC version 9.2.1 20190827 (Red Hat 9.2.1-1)
REM options -cpp -mtune=generic -march=x86-64 -g -O0 -fpre-include=/usr/include/finclude/math-vector-fortran.h
REM seed 624171832 1836381004 -1316397824 869969563 1389932801 -1573699297 437286470 -1368840344 -1377800287 1797939664 860333288 -184303860 -655332596 -1726693235 1070229956 2052237764 353791532 -285599183 1175736109 1048888493 168020223 245861312 -810704544 329879104 -1137119400 827433180 897931596 -2144428463 -1457147376 458887892 2111818884 1563942864 454925671
REM
CELL 1.54180   50.00000   50.00000   50.00000   90.00000   90.00000   90.00000
LATT -1
SFAC C  
C      1  0.5403830000000  0.5084320000000  0.5257820000000 1.0
C      1  0.5464880000000  0.4839140000000  0.4705830000000 1.0
C      1  0.4737680000000  0.4727750000000  0.4746280000000 1.0
C      1  0.5331280000000  0.5084680000000  0.4622500000000 1.0
C      1  0.5243580000000  0.4653600000000  0.4782730000000 1.0
C      1  0.4839180000000  0.5659970000000  0.5323040000000 1.0
C      1  0.4985990000000  0.4668810000000  0.5206220000000 1.0
C      1  0.5084870000000  0.5276860000000  0.4968180000000 1.0
C      1  0.4899680000000  0.5153200000000  0.4781920000000 1.0
C      1  0.4652080000000  0.5014180000000  0.4796760000000 1.0
C      1  0.5350650000000  0.5284150000000  0.4832400000000 1.0
C      1  0.4697660000000  0.5049900000000  0.5361000000000 1.0
C      1  0.5128340000000  0.5145640000000  0.5225830000000 1.0
C      1  0.4324610000000  0.5195360000000  0.5118840000000 1.0
C      1  0.5545770000000  0.5188210000000  0.5018680000000 1.0
C      1  0.4412400000000  0.5111330000000  0.4894590000000 1.0
C      1  0.5002380000000  0.4737430000000  0.4637070000000 1.0
C      1  0.4636690000000  0.4489480000000  0.4877360000000 1.0
C      1  0.4784280000000  0.4524370000000  0.5085780000000 1.0
C      1  0.5062250000000  0.5015580000000  0.4593450000000 1.0
C      1  0.5459460000000  0.4811820000000  0.5173540000000 1.0
C      1  0.5611130000000  0.4909750000000  0.4942970000000 1.0
C      1  0.4533440000000  0.5258450000000  0.5316180000000 1.0
C      1  0.4635360000000  0.5515950000000  0.5352610000000 1.0
C      1  0.5241890000000  0.4658970000000  0.5074020000000 1.0
C      1  0.4930670000000  0.4941110000000  0.5304420000000 1.0
END
