TITL C-2681602-3310-9 0.222720974135445 125000 -724.294663044812 0 0 104 (C1) n - 1
REM
REM in /nfs/bkarasulu/CARBON/AIRSS/Generating-Clusters/GAP-ML-2020/Only-C1/SD-CG/HFTN-CG
REM
REM
REM
REM
REM
REM ./C.cell (11c1c37f851c82e70ff6c80c92926a4b)
REM
REM compiler GCC version 9.2.1 20190827 (Red Hat 9.2.1-1)
REM options -cpp -mtune=generic -march=x86-64 -g -O0 -fpre-include=/usr/include/finclude/math-vector-fortran.h
REM seed -656833869 1592844018 1505019367 -1217735351 2105400679 1151878562 -661790582 -1364295333 -764519639 -1725007453 -1296537366 1485807394 1249042569 -1271542244 -850301951 -1033320230 -1972542722 106669573 1041996945 -1467890335 -1170813027 1382513094 -472435082 2081228364 -1790559806 -403920366 -1088628354 -1454374772 -1395873023 -2146586325 -27785615 -232679731 -1948382016
REM
CELL 1.54180   50.00000   50.00000   50.00000   90.00000   90.00000   90.00000
LATT -1
SFAC C  
C      1  0.5599390000000  0.5596790000000  0.5308140000000 1.0
C      1  0.4345940000000  0.4837810000000  0.4511000000000 1.0
C      1  0.4358650000000  0.4420000000000  0.4850300000000 1.0
C      1  0.5244680000000  0.4355980000000  0.5055780000000 1.0
C      1  0.5552190000000  0.5233880000000  0.5568590000000 1.0
C      1  0.4214900000000  0.5066800000000  0.4626010000000 1.0
C      1  0.5772380000000  0.5434250000000  0.4903920000000 1.0
C      1  0.5705560000000  0.4502900000000  0.4865450000000 1.0
C      1  0.4081850000000  0.5069760000000  0.4866470000000 1.0
C      1  0.5509240000000  0.5774010000000  0.5112380000000 1.0
C      1  0.5638760000000  0.5687190000000  0.4873330000000 1.0
C      1  0.4655680000000  0.5555900000000  0.5054940000000 1.0
C      1  0.4906160000000  0.5004470000000  0.4824780000000 1.0
C      1  0.5200170000000  0.4677980000000  0.4971700000000 1.0
C      1  0.4443060000000  0.5262030000000  0.4593830000000 1.0
C      1  0.4943870000000  0.5233490000000  0.5275390000000 1.0
C      1  0.4700160000000  0.5127240000000  0.5797160000000 1.0
C      1  0.4760080000000  0.5661470000000  0.5723920000000 1.0
C      1  0.5000280000000  0.4952030000000  0.5333920000000 1.0
C      1  0.4673980000000  0.5256810000000  0.4398900000000 1.0
C      1  0.5128510000000  0.4542770000000  0.5707830000000 1.0
C      1  0.5331360000000  0.4380960000000  0.4448630000000 1.0
C      1  0.4558010000000  0.4822230000000  0.4313120000000 1.0
C      1  0.4734130000000  0.4569200000000  0.4762590000000 1.0
C      1  0.4764430000000  0.4431690000000  0.5386160000000 1.0
C      1  0.4148630000000  0.4936730000000  0.5363860000000 1.0
C      1  0.5400080000000  0.4198290000000  0.4638560000000 1.0
C      1  0.4519830000000  0.5727900000000  0.4542840000000 1.0
C      1  0.4761090000000  0.5742660000000  0.5255710000000 1.0
C      1  0.4542180000000  0.4192350000000  0.4842330000000 1.0
C      1  0.5474670000000  0.4633830000000  0.4490150000000 1.0
C      1  0.4989710000000  0.5883020000000  0.4603680000000 1.0
C      1  0.5046140000000  0.5734800000000  0.5268130000000 1.0
C      1  0.4964900000000  0.5232890000000  0.5816680000000 1.0
C      1  0.4794630000000  0.5723880000000  0.4497570000000 1.0
C      1  0.4447000000000  0.5421230000000  0.5443350000000 1.0
C      1  0.4842740000000  0.4375820000000  0.4437770000000 1.0
C      1  0.5414700000000  0.5008810000000  0.5664430000000 1.0
C      1  0.4982660000000  0.4232470000000  0.4979550000000 1.0
C      1  0.4808640000000  0.4739090000000  0.5228130000000 1.0
C      1  0.5749670000000  0.4798640000000  0.5306360000000 1.0
C      1  0.4460410000000  0.5204860000000  0.5648590000000 1.0
C      1  0.5655020000000  0.5225100000000  0.4693600000000 1.0
C      1  0.4338520000000  0.4581260000000  0.5093660000000 1.0
C      1  0.4496710000000  0.4735930000000  0.5675570000000 1.0
C      1  0.5486370000000  0.4302430000000  0.4879830000000 1.0
C      1  0.5378160000000  0.5376320000000  0.4672380000000 1.0
C      1  0.5728050000000  0.4743130000000  0.5017290000000 1.0
C      1  0.4816540000000  0.4287150000000  0.4731940000000 1.0
C      1  0.4742790000000  0.5033060000000  0.4245560000000 1.0
C      1  0.4877840000000  0.5424570000000  0.4531770000000 1.0
C      1  0.4118490000000  0.4666740000000  0.5287530000000 1.0
C      1  0.4640630000000  0.5158010000000  0.4817320000000 1.0
C      1  0.4243450000000  0.5423360000000  0.5201660000000 1.0
C      1  0.5196950000000  0.5826800000000  0.4770720000000 1.0
C      1  0.5112410000000  0.4992030000000  0.4629800000000 1.0
C      1  0.5019260000000  0.5257410000000  0.4990060000000 1.0
C      1  0.4388760000000  0.5540140000000  0.4688660000000 1.0
C      1  0.4547780000000  0.4814040000000  0.5155540000000 1.0
C      1  0.5336980000000  0.4812310000000  0.4730890000000 1.0
C      1  0.5944160000000  0.4958200000000  0.5412900000000 1.0
C      1  0.5162330000000  0.5018210000000  0.5801220000000 1.0
C      1  0.4192860000000  0.5136230000000  0.5129180000000 1.0
C      1  0.4982290000000  0.5495320000000  0.5709080000000 1.0
C      1  0.5249100000000  0.4339940000000  0.5355400000000 1.0
C      1  0.5220880000000  0.5176830000000  0.4232500000000 1.0
C      1  0.4613940000000  0.5667140000000  0.5495730000000 1.0
C      1  0.5921890000000  0.4769940000000  0.4488180000000 1.0
C      1  0.5574530000000  0.4963770000000  0.4868580000000 1.0
C      1  0.5010770000000  0.4356610000000  0.5512230000000 1.0
C      1  0.4776860000000  0.4209040000000  0.5179890000000 1.0
C      1  0.5423470000000  0.5474360000000  0.5488800000000 1.0
C      1  0.5778810000000  0.5399480000000  0.5190700000000 1.0
C      1  0.5722760000000  0.5129300000000  0.4409710000000 1.0
C      1  0.4376280000000  0.5549880000000  0.4981370000000 1.0
C      1  0.5788070000000  0.5186800000000  0.5396710000000 1.0
C      1  0.4329710000000  0.4962990000000  0.5585120000000 1.0
C      1  0.5291490000000  0.5310850000000  0.4959510000000 1.0
C      1  0.5364660000000  0.4529780000000  0.5545310000000 1.0
C      1  0.5417190000000  0.5090320000000  0.5077930000000 1.0
C      1  0.5966820000000  0.4988200000000  0.4357840000000 1.0
C      1  0.5416960000000  0.4782450000000  0.4244180000000 1.0
C      1  0.4287340000000  0.4466250000000  0.5360050000000 1.0
C      1  0.5482450000000  0.5060630000000  0.4242150000000 1.0
C      1  0.5006340000000  0.4772310000000  0.5814030000000 1.0
C      1  0.5149780000000  0.5283580000000  0.4497720000000 1.0
C      1  0.5268940000000  0.4877860000000  0.5214100000000 1.0
C      1  0.5229670000000  0.5824960000000  0.5071950000000 1.0
C      1  0.4505840000000  0.4494540000000  0.5532810000000 1.0
C      1  0.5131970000000  0.5500980000000  0.5449550000000 1.0
C      1  0.4566440000000  0.4060330000000  0.5074390000000 1.0
C      1  0.5748210000000  0.4588770000000  0.4589670000000 1.0
C      1  0.4898400000000  0.4735670000000  0.4947870000000 1.0
C      1  0.4724440000000  0.4845430000000  0.5806580000000 1.0
C      1  0.5087580000000  0.4459300000000  0.4317810000000 1.0
C      1  0.5466180000000  0.4787490000000  0.5453160000000 1.0
C      1  0.5426340000000  0.5667080000000  0.4688380000000 1.0
C      1  0.5145290000000  0.4721240000000  0.4187660000000 1.0
C      1  0.4515780000000  0.5092170000000  0.5080710000000 1.0
C      1  0.4441120000000  0.4586290000000  0.4631420000000 1.0
C      1  0.4613910000000  0.4543130000000  0.4390150000000 1.0
C      1  0.4652820000000  0.5303000000000  0.5248830000000 1.0
C      1  0.5013620000000  0.4979720000000  0.4162630000000 1.0
C      1  0.4815910000000  0.5408950000000  0.4840590000000 1.0
END
