TITL C-26380-9847-5 0.0636038418669013 125000 -666.564911204629 0 0 95 (C1) n - 1
REM
REM in /rds/project/t2_vol4/rds-t2-cs072/BORA/CARBON/from-Arr/AIRSS/Generating-Clusters/GAP-ML-2020/Only-C1/SD-CG/HFTN-CG
REM
REM
REM
REM
REM
REM ./C.cell (11c1c37f851c82e70ff6c80c92926a4b)
REM AIRSS Version 0.9.1 bugfix July 2018 build 013d7b7c2542+ Fri, 06 Jul 2018 19:26:36 +0100
REM compiler GCC version 9.3.0
REM options -cpp -mtune=generic -march=x86-64 -g -O0
REM seed -1824492640 -1064062851 -237833671 -1694099087 505459664 1214886785 1635901895 -151203430 1718900745 816859637 15139800 -1673456883 -1171566809 1305181064 540934160 896590719 696868963 159481678 -632874179 2090768592 -160228199 918414650 1929314429 -587315648 -1187620929 1326899581 -2038638972 -1980327801 605198987 996129822 -1886751892 1693534905 1326856395
REM
CELL 1.54180   50.00000   50.00000   50.00000   90.00000   90.00000   90.00000
LATT -1
SFAC C  
C      1  0.5053330000000  0.5321680000000  0.4903100000000 1.0
C      1  0.4969050000000  0.4775170000000  0.4232920000000 1.0
C      1  0.5755860000000  0.4897830000000  0.4948310000000 1.0
C      1  0.5159180000000  0.5639370000000  0.4784480000000 1.0
C      1  0.5668640000000  0.5548990000000  0.5311300000000 1.0
C      1  0.5041230000000  0.4776860000000  0.5731870000000 1.0
C      1  0.4750720000000  0.5006460000000  0.5465910000000 1.0
C      1  0.5482440000000  0.5717590000000  0.5169400000000 1.0
C      1  0.5048150000000  0.4380320000000  0.5491780000000 1.0
C      1  0.5994320000000  0.4807770000000  0.5398190000000 1.0
C      1  0.5161190000000  0.4630080000000  0.4383270000000 1.0
C      1  0.4731470000000  0.5208350000000  0.5700520000000 1.0
C      1  0.4941810000000  0.4138250000000  0.4814020000000 1.0
C      1  0.5082590000000  0.5035580000000  0.4185830000000 1.0
C      1  0.4280660000000  0.4905730000000  0.5271390000000 1.0
C      1  0.4807210000000  0.4504050000000  0.5445600000000 1.0
C      1  0.5426680000000  0.4384440000000  0.5063420000000 1.0
C      1  0.5353150000000  0.4149840000000  0.5214660000000 1.0
C      1  0.4527450000000  0.4342340000000  0.4660990000000 1.0
C      1  0.4853320000000  0.5865860000000  0.5113270000000 1.0
C      1  0.5476140000000  0.4812820000000  0.5043710000000 1.0
C      1  0.5170830000000  0.4243010000000  0.4687310000000 1.0
C      1  0.4574470000000  0.4623780000000  0.4510500000000 1.0
C      1  0.5098120000000  0.4189910000000  0.5289560000000 1.0
C      1  0.5273680000000  0.5776080000000  0.5367740000000 1.0
C      1  0.5849840000000  0.4722230000000  0.5198930000000 1.0
C      1  0.5023640000000  0.5248930000000  0.5783730000000 1.0
C      1  0.4690960000000  0.4782430000000  0.4279280000000 1.0
C      1  0.4610410000000  0.5765810000000  0.4998810000000 1.0
C      1  0.4921600000000  0.4972400000000  0.4672560000000 1.0
C      1  0.5081690000000  0.5516840000000  0.5712820000000 1.0
C      1  0.5190790000000  0.5018420000000  0.5749170000000 1.0
C      1  0.5447340000000  0.4691340000000  0.5508630000000 1.0
C      1  0.4517440000000  0.5040420000000  0.5832280000000 1.0
C      1  0.5413100000000  0.4751300000000  0.4343780000000 1.0
C      1  0.4980050000000  0.5014970000000  0.5223180000000 1.0
C      1  0.5590580000000  0.5532870000000  0.4703790000000 1.0
C      1  0.4127750000000  0.5075750000000  0.4821460000000 1.0
C      1  0.4765810000000  0.4741560000000  0.5605550000000 1.0
C      1  0.4873660000000  0.5227170000000  0.4240250000000 1.0
C      1  0.4717130000000  0.4999040000000  0.5049780000000 1.0
C      1  0.4631960000000  0.5064220000000  0.4277080000000 1.0
C      1  0.4445250000000  0.5557370000000  0.5087200000000 1.0
C      1  0.4319920000000  0.5436300000000  0.4855350000000 1.0
C      1  0.4290620000000  0.4718280000000  0.5495830000000 1.0
C      1  0.4414030000000  0.4383900000000  0.5157500000000 1.0
C      1  0.4653130000000  0.5461110000000  0.5545390000000 1.0
C      1  0.5803730000000  0.5183010000000  0.5001880000000 1.0
C      1  0.4063390000000  0.5338520000000  0.4858480000000 1.0
C      1  0.4705820000000  0.4455190000000  0.5172950000000 1.0
C      1  0.5536700000000  0.5214010000000  0.4362930000000 1.0
C      1  0.5771710000000  0.4871700000000  0.4647710000000 1.0
C      1  0.4819090000000  0.4685220000000  0.4709310000000 1.0
C      1  0.5624790000000  0.5183740000000  0.5517760000000 1.0
C      1  0.4965520000000  0.5845250000000  0.4842600000000 1.0
C      1  0.4984150000000  0.5813350000000  0.5355100000000 1.0
C      1  0.4867650000000  0.5642900000000  0.5563640000000 1.0
C      1  0.5634200000000  0.4658170000000  0.4505990000000 1.0
C      1  0.4262440000000  0.4478370000000  0.5367730000000 1.0
C      1  0.4531250000000  0.5356460000000  0.4647640000000 1.0
C      1  0.5326580000000  0.5614600000000  0.5605880000000 1.0
C      1  0.5611270000000  0.4401310000000  0.4599450000000 1.0
C      1  0.5566430000000  0.4610570000000  0.5239440000000 1.0
C      1  0.4250340000000  0.4998560000000  0.4568350000000 1.0
C      1  0.4779650000000  0.5186780000000  0.4820170000000 1.0
C      1  0.4915640000000  0.5479970000000  0.4378520000000 1.0
C      1  0.4935660000000  0.4294430000000  0.5063730000000 1.0
C      1  0.4163210000000  0.4858790000000  0.5008240000000 1.0
C      1  0.5083960000000  0.5273420000000  0.5176750000000 1.0
C      1  0.4515400000000  0.5087040000000  0.5281210000000 1.0
C      1  0.5209790000000  0.4578400000000  0.5615710000000 1.0
C      1  0.5077650000000  0.4523120000000  0.4650460000000 1.0
C      1  0.4714500000000  0.4712160000000  0.4981210000000 1.0
C      1  0.4496190000000  0.5393330000000  0.5318200000000 1.0
C      1  0.5741790000000  0.5129850000000  0.4545500000000 1.0
C      1  0.5435980000000  0.5461700000000  0.4466020000000 1.0
C      1  0.5758830000000  0.5280730000000  0.5261750000000 1.0
C      1  0.5453900000000  0.4969690000000  0.5606060000000 1.0
C      1  0.4342790000000  0.4398420000000  0.4880680000000 1.0
C      1  0.4701780000000  0.4139130000000  0.4676150000000 1.0
C      1  0.5446080000000  0.4280900000000  0.4775070000000 1.0
C      1  0.5562350000000  0.5466790000000  0.5569980000000 1.0
C      1  0.5151750000000  0.4547670000000  0.4973360000000 1.0
C      1  0.4435610000000  0.5167160000000  0.4447180000000 1.0
C      1  0.4712850000000  0.5783150000000  0.4721270000000 1.0
C      1  0.5171100000000  0.5561500000000  0.4488820000000 1.0
C      1  0.5768240000000  0.5320980000000  0.4759070000000 1.0
C      1  0.5192410000000  0.4857740000000  0.5026930000000 1.0
C      1  0.5364960000000  0.5018730000000  0.4250290000000 1.0
C      1  0.5170220000000  0.5049820000000  0.4801050000000 1.0
C      1  0.4476810000000  0.4796500000000  0.5717210000000 1.0
C      1  0.4215120000000  0.4639490000000  0.4830920000000 1.0
C      1  0.4315550000000  0.4732320000000  0.4584110000000 1.0
C      1  0.5434870000000  0.5678730000000  0.4889100000000 1.0
C      1  0.4691920000000  0.5575800000000  0.4537040000000 1.0
END
