TITL C-2681601-4444-3 -6.20108799210259 125000 -728.402378451098 0 0 102 (C1) n - 1
REM
REM in /nfs/bkarasulu/CARBON/AIRSS/Generating-Clusters/GAP-ML-2020/Only-C1/SD-CG/HFTN-CG
REM
REM
REM
REM
REM
REM ./C.cell (11c1c37f851c82e70ff6c80c92926a4b)
REM
REM compiler GCC version 9.2.1 20190827 (Red Hat 9.2.1-1)
REM options -cpp -mtune=generic -march=x86-64 -g -O0 -fpre-include=/usr/include/finclude/math-vector-fortran.h
REM seed 1686886435 -538566826 -1759546653 1338694581 -130822759 608322367 -1192433529 -352365996 1422774364 -1882963041 1570146053 725371429 -707195178 -151505269 -1626035813 -623145224 384147338 1118209056 541864741 -1676391541 -483531130 -1007589736 1251473149 1815625784 -1498630200 2055352027 -243985237 2093830964 1852253979 612782451 -770068091 -33716420 -472964053
REM
CELL 1.54180   50.00000   50.00000   50.00000   90.00000   90.00000   90.00000
LATT -1
SFAC C  
C      1  0.5065150000000  0.4728450000000  0.5835590000000 1.0
C      1  0.4992350000000  0.5594010000000  0.4266810000000 1.0
C      1  0.5325730000000  0.4357470000000  0.5626560000000 1.0
C      1  0.5740660000000  0.4910760000000  0.5561540000000 1.0
C      1  0.4319490000000  0.4533120000000  0.4672180000000 1.0
C      1  0.5474130000000  0.4225880000000  0.5204470000000 1.0
C      1  0.4390040000000  0.4874450000000  0.4366800000000 1.0
C      1  0.4895490000000  0.5734920000000  0.5432330000000 1.0
C      1  0.5723100000000  0.5016590000000  0.4767960000000 1.0
C      1  0.5453120000000  0.5470800000000  0.4328830000000 1.0
C      1  0.5411140000000  0.5258240000000  0.5109430000000 1.0
C      1  0.4632960000000  0.5680360000000  0.5313580000000 1.0
C      1  0.5375180000000  0.4167920000000  0.4944050000000 1.0
C      1  0.4560460000000  0.4454920000000  0.4529650000000 1.0
C      1  0.4858840000000  0.5273870000000  0.5254320000000 1.0
C      1  0.5360760000000  0.5714190000000  0.5267790000000 1.0
C      1  0.4798040000000  0.5775040000000  0.4366840000000 1.0
C      1  0.5205750000000  0.4273960000000  0.4539730000000 1.0
C      1  0.4790670000000  0.5336060000000  0.4783810000000 1.0
C      1  0.5020250000000  0.4666480000000  0.4699280000000 1.0
C      1  0.4329070000000  0.5242420000000  0.5246720000000 1.0
C      1  0.5214520000000  0.5363030000000  0.4917570000000 1.0
C      1  0.5265260000000  0.5664150000000  0.4371180000000 1.0
C      1  0.4794330000000  0.5142480000000  0.5784260000000 1.0
C      1  0.5084720000000  0.4574270000000  0.4963780000000 1.0
C      1  0.4627590000000  0.4451650000000  0.5588490000000 1.0
C      1  0.5060400000000  0.5390440000000  0.5447840000000 1.0
C      1  0.4587370000000  0.4721000000000  0.5683250000000 1.0
C      1  0.5744970000000  0.4726920000000  0.4854790000000 1.0
C      1  0.4388450000000  0.5596900000000  0.4616130000000 1.0
C      1  0.4807610000000  0.4864310000000  0.4752350000000 1.0
C      1  0.5277520000000  0.4692260000000  0.4303540000000 1.0
C      1  0.4153430000000  0.4945990000000  0.4793470000000 1.0
C      1  0.4879480000000  0.4326620000000  0.5591720000000 1.0
C      1  0.4954310000000  0.5318250000000  0.4183260000000 1.0
C      1  0.5348000000000  0.5431030000000  0.5370050000000 1.0
C      1  0.4982810000000  0.4154380000000  0.4671630000000 1.0
C      1  0.5113200000000  0.4522600000000  0.4451210000000 1.0
C      1  0.4555980000000  0.5383920000000  0.5386070000000 1.0
C      1  0.5303620000000  0.5852980000000  0.4573660000000 1.0
C      1  0.4450160000000  0.5153560000000  0.4326020000000 1.0
C      1  0.4260340000000  0.4533450000000  0.4956450000000 1.0
C      1  0.4182030000000  0.4806220000000  0.5039900000000 1.0
C      1  0.4408180000000  0.4367180000000  0.5126980000000 1.0
C      1  0.5089860000000  0.4074960000000  0.4922650000000 1.0
C      1  0.4939550000000  0.5391650000000  0.5004300000000 1.0
C      1  0.4800940000000  0.4857970000000  0.5819690000000 1.0
C      1  0.5443340000000  0.4309800000000  0.4700390000000 1.0
C      1  0.4383370000000  0.5617660000000  0.4906270000000 1.0
C      1  0.4816400000000  0.4552460000000  0.5075780000000 1.0
C      1  0.5300220000000  0.5167030000000  0.5774520000000 1.0
C      1  0.4786590000000  0.5914110000000  0.4900630000000 1.0
C      1  0.4982390000000  0.5578040000000  0.5647970000000 1.0
C      1  0.4227910000000  0.4782410000000  0.4574780000000 1.0
C      1  0.5305680000000  0.5886980000000  0.4840210000000 1.0
C      1  0.5703960000000  0.5270480000000  0.5001780000000 1.0
C      1  0.4994150000000  0.4165480000000  0.5379580000000 1.0
C      1  0.4604860000000  0.4687830000000  0.4321740000000 1.0
C      1  0.5705650000000  0.5562160000000  0.4967190000000 1.0
C      1  0.4720440000000  0.4825400000000  0.5025640000000 1.0
C      1  0.4891160000000  0.4110940000000  0.5121410000000 1.0
C      1  0.5517960000000  0.4743930000000  0.4449450000000 1.0
C      1  0.4271900000000  0.5369930000000  0.5000330000000 1.0
C      1  0.5102240000000  0.4879330000000  0.4190370000000 1.0
C      1  0.5275770000000  0.4184590000000  0.5408570000000 1.0
C      1  0.5222600000000  0.4765970000000  0.5133870000000 1.0
C      1  0.5832000000000  0.5147230000000  0.5240750000000 1.0
C      1  0.4855160000000  0.4985680000000  0.5231180000000 1.0
C      1  0.5039520000000  0.5293140000000  0.5751200000000 1.0
C      1  0.5311350000000  0.4882250000000  0.5811110000000 1.0
C      1  0.5507610000000  0.5749250000000  0.5020370000000 1.0
C      1  0.5188030000000  0.5145640000000  0.4195170000000 1.0
C      1  0.4572820000000  0.5776380000000  0.5054510000000 1.0
C      1  0.4672170000000  0.4284170000000  0.4998310000000 1.0
C      1  0.5788670000000  0.4646770000000  0.5134490000000 1.0
C      1  0.4718700000000  0.5140390000000  0.4198920000000 1.0
C      1  0.4544470000000  0.5782850000000  0.4481970000000 1.0
C      1  0.4715580000000  0.4269330000000  0.4691630000000 1.0
C      1  0.5452770000000  0.5204690000000  0.4324760000000 1.0
C      1  0.5647040000000  0.4442310000000  0.5294560000000 1.0
C      1  0.4423710000000  0.4485330000000  0.5385470000000 1.0
C      1  0.5335210000000  0.4982290000000  0.5000320000000 1.0
C      1  0.4917750000000  0.5108560000000  0.4699950000000 1.0
C      1  0.5724720000000  0.5188870000000  0.5513120000000 1.0
C      1  0.4266780000000  0.4953190000000  0.5280930000000 1.0
C      1  0.5485130000000  0.5301340000000  0.5599770000000 1.0
C      1  0.5597220000000  0.4563010000000  0.4661930000000 1.0
C      1  0.5106240000000  0.5847360000000  0.5264340000000 1.0
C      1  0.4375480000000  0.4761530000000  0.5471040000000 1.0
C      1  0.5068390000000  0.4854380000000  0.5334270000000 1.0
C      1  0.4602990000000  0.5275950000000  0.5642630000000 1.0
C      1  0.5553660000000  0.4506250000000  0.5568450000000 1.0
C      1  0.5056000000000  0.5935210000000  0.4999250000000 1.0
C      1  0.4210420000000  0.5215790000000  0.4764830000000 1.0
C      1  0.5194770000000  0.5105900000000  0.4770920000000 1.0
C      1  0.4758430000000  0.5899460000000  0.4623990000000 1.0
C      1  0.4326460000000  0.5328140000000  0.4528220000000 1.0
C      1  0.5545310000000  0.4761400000000  0.5689420000000 1.0
C      1  0.5601670000000  0.5010760000000  0.4497650000000 1.0
C      1  0.4809830000000  0.4866000000000  0.4204560000000 1.0
C      1  0.5853920000000  0.4867930000000  0.5292510000000 1.0
C      1  0.5086480000000  0.4458720000000  0.5738490000000 1.0
END
