TITL C-260540-2328-5 441.321871068579 125000 -748.908194293567 0 0 110 (C1) n - 1
REM
REM in /rds/project/t2_vol4/rds-t2-cs072/BORA/CARBON/from-Arr/AIRSS/Generating-Clusters/GAP-ML-2020/Only-C1/SD-CG/HFTN-CG
REM
REM
REM
REM
REM
REM ./C.cell (11c1c37f851c82e70ff6c80c92926a4b)
REM AIRSS Version 0.9.1 bugfix July 2018 build 013d7b7c2542+ Fri, 06 Jul 2018 19:26:36 +0100
REM compiler GCC version 9.3.0
REM options -cpp -mtune=generic -march=x86-64 -g -O0
REM seed 69592049 -238872593 1896776631 262042930 1847806771 310030784 -2063198117 -1359431816 -1200241951 -377479084 110219320 -1511338702 -1206459419 -1395124577 -1043450991 806392507 -1621032209 177527242 107309211 1036036418 -891747052 -1047233827 2088388258 1195160616 -1545297544 1225640877 -1981317732 -1051556826 1367620474 -1246160235 -66448615 1937851238 1238840854
REM
CELL 1.54180   50.00000   50.00000   50.00000   90.00000   90.00000   90.00000
LATT -1
SFAC C  
C      1  0.5099010000000  0.5186810000000  0.5829130000000 1.0
C      1  0.5103400000000  0.4452350000000  0.4452410000000 1.0
C      1  0.5568780000000  0.4913790000000  0.5589700000000 1.0
C      1  0.5055450000000  0.4152510000000  0.4907860000000 1.0
C      1  0.5328700000000  0.4492990000000  0.5537320000000 1.0
C      1  0.5234700000000  0.5562610000000  0.5596020000000 1.0
C      1  0.5153690000000  0.5074820000000  0.5082460000000 1.0
C      1  0.4368660000000  0.4620820000000  0.5416180000000 1.0
C      1  0.5259830000000  0.4584020000000  0.4266170000000 1.0
C      1  0.5798060000000  0.5384190000000  0.5165630000000 1.0
C      1  0.5333110000000  0.5335740000000  0.5739950000000 1.0
C      1  0.5066820000000  0.5395960000000  0.4754730000000 1.0
C      1  0.4836290000000  0.5794060000000  0.5520700000000 1.0
C      1  0.5309160000000  0.4796120000000  0.5523690000000 1.0
C      1  0.5170240000000  0.5107660000000  0.4776470000000 1.0
C      1  0.4749030000000  0.5326420000000  0.4811020000000 1.0
C      1  0.4245210000000  0.5451830000000  0.4802230000000 1.0
C      1  0.5838550000000  0.4547950000000  0.4911670000000 1.0
C      1  0.5174180000000  0.4854120000000  0.4168630000000 1.0
C      1  0.5521220000000  0.5560290000000  0.4777220000000 1.0
C      1  0.5456840000000  0.5473200000000  0.4516120000000 1.0
C      1  0.5504370000000  0.4286620000000  0.4626940000000 1.0
C      1  0.5587630000000  0.4973910000000  0.5160110000000 1.0
C      1  0.4512240000000  0.4766040000000  0.5031670000000 1.0
C      1  0.4809560000000  0.5284660000000  0.5738750000000 1.0
C      1  0.4804650000000  0.4567660000000  0.4794650000000 1.0
C      1  0.4307570000000  0.4969830000000  0.5116880000000 1.0
C      1  0.4430770000000  0.5227560000000  0.5167160000000 1.0
C      1  0.4372070000000  0.4635980000000  0.4552640000000 1.0
C      1  0.5129710000000  0.5820590000000  0.5556230000000 1.0
C      1  0.4417530000000  0.4696040000000  0.4272270000000 1.0
C      1  0.4752360000000  0.4788500000000  0.5208500000000 1.0
C      1  0.4842810000000  0.4514180000000  0.5796270000000 1.0
C      1  0.5776160000000  0.4824640000000  0.5347270000000 1.0
C      1  0.5110870000000  0.4190210000000  0.5183110000000 1.0
C      1  0.5489170000000  0.4523730000000  0.4428780000000 1.0
C      1  0.4222090000000  0.5412100000000  0.5256120000000 1.0
C      1  0.4875190000000  0.5058100000000  0.5213830000000 1.0
C      1  0.5306440000000  0.5109180000000  0.4231420000000 1.0
C      1  0.5049560000000  0.4391370000000  0.5939530000000 1.0
C      1  0.4618700000000  0.5054740000000  0.5755550000000 1.0
C      1  0.5495010000000  0.4728990000000  0.4646490000000 1.0
C      1  0.4406270000000  0.4491440000000  0.5136180000000 1.0
C      1  0.5094380000000  0.5415190000000  0.5380360000000 1.0
C      1  0.4597110000000  0.5754690000000  0.4610800000000 1.0
C      1  0.5237890000000  0.5931860000000  0.5324460000000 1.0
C      1  0.5283050000000  0.5343380000000  0.5170210000000 1.0
C      1  0.5924410000000  0.4888760000000  0.4498690000000 1.0
C      1  0.4514180000000  0.5545910000000  0.4772280000000 1.0
C      1  0.5178420000000  0.5827250000000  0.5077830000000 1.0
C      1  0.5564410000000  0.5252720000000  0.5292710000000 1.0
C      1  0.5453150000000  0.5033690000000  0.4677290000000 1.0
C      1  0.4649840000000  0.4308020000000  0.4724800000000 1.0
C      1  0.5759250000000  0.5514280000000  0.4921250000000 1.0
C      1  0.4981830000000  0.4961510000000  0.4609560000000 1.0
C      1  0.5225140000000  0.4296600000000  0.4693690000000 1.0
C      1  0.4705570000000  0.5050690000000  0.4658460000000 1.0
C      1  0.5336420000000  0.4364450000000  0.5264960000000 1.0
C      1  0.4280510000000  0.4885020000000  0.5408770000000 1.0
C      1  0.4163770000000  0.4977200000000  0.4839930000000 1.0
C      1  0.5257850000000  0.4395170000000  0.5780850000000 1.0
C      1  0.5277800000000  0.4600380000000  0.4806180000000 1.0
C      1  0.4381600000000  0.4368430000000  0.4687510000000 1.0
C      1  0.4645420000000  0.4678850000000  0.5477340000000 1.0
C      1  0.5528380000000  0.5187480000000  0.4422390000000 1.0
C      1  0.4431960000000  0.5546140000000  0.5685980000000 1.0
C      1  0.4629480000000  0.4832450000000  0.4122650000000 1.0
C      1  0.4246990000000  0.5199820000000  0.4664660000000 1.0
C      1  0.5170100000000  0.5503610000000  0.4461450000000 1.0
C      1  0.5067450000000  0.4939880000000  0.5664630000000 1.0
C      1  0.4893290000000  0.4946860000000  0.4121780000000 1.0
C      1  0.4852730000000  0.4312420000000  0.5288740000000 1.0
C      1  0.4652500000000  0.5369360000000  0.4291790000000 1.0
C      1  0.4423840000000  0.4974340000000  0.4238900000000 1.0
C      1  0.4849640000000  0.5857050000000  0.4717240000000 1.0
C      1  0.4717360000000  0.5632430000000  0.4373690000000 1.0
C      1  0.4715100000000  0.5287790000000  0.5105000000000 1.0
C      1  0.4476260000000  0.5170930000000  0.4446360000000 1.0
C      1  0.4148050000000  0.4713830000000  0.4735060000000 1.0
C      1  0.4596040000000  0.4775950000000  0.4751730000000 1.0
C      1  0.5025800000000  0.4666850000000  0.4643570000000 1.0
C      1  0.6031370000000  0.4941590000000  0.5331720000000 1.0
C      1  0.4786150000000  0.5790360000000  0.5230230000000 1.0
C      1  0.4623280000000  0.4248160000000  0.5129970000000 1.0
C      1  0.5667760000000  0.4315070000000  0.4865690000000 1.0
C      1  0.5528680000000  0.5191440000000  0.5585000000000 1.0
C      1  0.4871270000000  0.5233130000000  0.4163410000000 1.0
C      1  0.4789110000000  0.4811850000000  0.5716500000000 1.0
C      1  0.4764240000000  0.4128910000000  0.4896770000000 1.0
C      1  0.5605020000000  0.4330160000000  0.5151440000000 1.0
C      1  0.5127930000000  0.5323030000000  0.4231290000000 1.0
C      1  0.5686910000000  0.5024400000000  0.4886020000000 1.0
C      1  0.5268990000000  0.5558140000000  0.4946740000000 1.0
C      1  0.4363230000000  0.5079270000000  0.5607200000000 1.0
C      1  0.4702440000000  0.5569980000000  0.5691130000000 1.0
C      1  0.4846250000000  0.5512540000000  0.5244200000000 1.0
C      1  0.4957530000000  0.5167280000000  0.5480540000000 1.0
C      1  0.4973100000000  0.5723280000000  0.4479150000000 1.0
C      1  0.5811820000000  0.5080610000000  0.4378080000000 1.0
C      1  0.5784510000000  0.4776900000000  0.4746810000000 1.0
C      1  0.5861720000000  0.5257250000000  0.4926710000000 1.0
C      1  0.5312570000000  0.4858760000000  0.5205960000000 1.0
C      1  0.5786840000000  0.4555720000000  0.5195860000000 1.0
C      1  0.4910860000000  0.5895830000000  0.4989420000000 1.0
C      1  0.4914710000000  0.4576580000000  0.5091990000000 1.0
C      1  0.4300990000000  0.5358000000000  0.5534300000000 1.0
C      1  0.5217970000000  0.4610160000000  0.5090560000000 1.0
C      1  0.4762800000000  0.4421250000000  0.5538820000000 1.0
C      1  0.4221840000000  0.4470720000000  0.4908180000000 1.0
C      1  0.4091480000000  0.5494080000000  0.5037110000000 1.0
END
