TITL C-2699-3823-14 -0.0531354508064383 125000 -75.0018931449242 0 0 12 (C1) n - 1
REM
REM in /rds/project/t2_vol4/rds-t2-cs072/BORA/CARBON/from-Arr/AIRSS/Generating-Clusters/GAP-ML-2020/Only-C1/SD-CG/HFTN-CG
REM
REM
REM
REM
REM
REM ./C.cell (11c1c37f851c82e70ff6c80c92926a4b)
REM AIRSS Version 0.9.1 bugfix July 2018 build 013d7b7c2542+ Fri, 06 Jul 2018 19:26:36 +0100
REM compiler GCC version 9.3.0
REM options -cpp -mtune=generic -march=x86-64 -g -O0
REM seed 1892185856 1734215149 380355641 -153222784 1160458163 256418434 -1571482469 -1869079651 794699334 -555350837 -383498000 1934777939 198510081 375989716 -104906798 -712528080 601831540 -2024922097 1971772814 2062631568 -436952368 -226834022 2031512405 1268811480 -544065745 2144310197 -1778798922 -134903566 868974113 2063938217 1658729241 -18581410 3397904
REM
CELL 1.54180   50.00000   50.00000   50.00000   90.00000   90.00000   90.00000
LATT -1
SFAC C  
C      1  0.4724990000000  0.5301960000000  0.5168790000000 1.0
C      1  0.5448250000000  0.4825120000000  0.4659920000000 1.0
C      1  0.4598700000000  0.5121230000000  0.5038760000000 1.0
C      1  0.5393840000000  0.5265400000000  0.4915370000000 1.0
C      1  0.5043120000000  0.4980960000000  0.5360720000000 1.0
C      1  0.5229180000000  0.4748620000000  0.4750840000000 1.0
C      1  0.4551750000000  0.4903490000000  0.4901690000000 1.0
C      1  0.4745230000000  0.4749290000000  0.4831940000000 1.0
C      1  0.5214190000000  0.5334010000000  0.5076580000000 1.0
C      1  0.5045070000000  0.4804720000000  0.5177800000000 1.0
C      1  0.5008690000000  0.4731760000000  0.4913340000000 1.0
C      1  0.4997000000000  0.5233440000000  0.5204250000000 1.0
END
