TITL C-26382-9725-1 -0.187150458977312 125000 -664.864289828311 0 0 95 (C1) n - 1
REM
REM in /rds/project/t2_vol4/rds-t2-cs072/BORA/CARBON/from-Arr/AIRSS/Generating-Clusters/GAP-ML-2020/Only-C1/SD-CG/HFTN-CG
REM
REM
REM
REM
REM
REM ./C.cell (11c1c37f851c82e70ff6c80c92926a4b)
REM AIRSS Version 0.9.1 bugfix July 2018 build 013d7b7c2542+ Fri, 06 Jul 2018 19:26:36 +0100
REM compiler GCC version 9.3.0
REM options -cpp -mtune=generic -march=x86-64 -g -O0
REM seed 1623887531 850521160 2032094902 -387110126 -1300215989 -960853160 -427137942 -485758522 1339995267 791941136 1681678616 1413978959 1266084268 -505923341 -730618570 1254594454 -1676646853 -2010422398 581445734 1637003088 -1425552220 40233562 -53739572 1398542569 -669440777 -1267567509 -1160381799 -1300333288 1821404663 228093818 1998296858 290523304 90152131
REM
CELL 1.54180   50.00000   50.00000   50.00000   90.00000   90.00000   90.00000
LATT -1
SFAC C  
C      1  0.5075790000000  0.5203620000000  0.4994390000000 1.0
C      1  0.5547000000000  0.5189140000000  0.5076150000000 1.0
C      1  0.5656140000000  0.4703640000000  0.4565630000000 1.0
C      1  0.4271430000000  0.4683510000000  0.4662340000000 1.0
C      1  0.4576880000000  0.5460280000000  0.4420150000000 1.0
C      1  0.5358680000000  0.4951190000000  0.4241560000000 1.0
C      1  0.4523560000000  0.4300200000000  0.4695490000000 1.0
C      1  0.5944300000000  0.5028530000000  0.5243260000000 1.0
C      1  0.5325060000000  0.4360330000000  0.5459620000000 1.0
C      1  0.4695240000000  0.4590100000000  0.5610680000000 1.0
C      1  0.5320640000000  0.5238550000000  0.5602390000000 1.0
C      1  0.4501430000000  0.4302340000000  0.5241160000000 1.0
C      1  0.4193400000000  0.4945410000000  0.5104330000000 1.0
C      1  0.4895570000000  0.5805420000000  0.4935840000000 1.0
C      1  0.4505060000000  0.4819860000000  0.5496500000000 1.0
C      1  0.4574060000000  0.5646910000000  0.4636840000000 1.0
C      1  0.5643620000000  0.5169000000000  0.4497350000000 1.0
C      1  0.4537410000000  0.5474270000000  0.5792510000000 1.0
C      1  0.4630410000000  0.5249540000000  0.5288430000000 1.0
C      1  0.4609900000000  0.4447670000000  0.4466020000000 1.0
C      1  0.5772130000000  0.4870800000000  0.4783080000000 1.0
C      1  0.5002200000000  0.5567610000000  0.5439170000000 1.0
C      1  0.5704350000000  0.4630300000000  0.5284090000000 1.0
C      1  0.4264820000000  0.5187450000000  0.4690520000000 1.0
C      1  0.5290430000000  0.4992670000000  0.5741910000000 1.0
C      1  0.4247120000000  0.4924330000000  0.4811580000000 1.0
C      1  0.5601810000000  0.5594830000000  0.5002010000000 1.0
C      1  0.4467220000000  0.5608470000000  0.4896070000000 1.0
C      1  0.4527000000000  0.4944250000000  0.4311610000000 1.0
C      1  0.5846690000000  0.4796150000000  0.5094010000000 1.0
C      1  0.5786750000000  0.5339010000000  0.4959120000000 1.0
C      1  0.5315470000000  0.4796110000000  0.4979720000000 1.0
C      1  0.5527700000000  0.4408220000000  0.5253560000000 1.0
C      1  0.5530950000000  0.5281880000000  0.5395090000000 1.0
C      1  0.5297700000000  0.4282480000000  0.4773260000000 1.0
C      1  0.5994580000000  0.5268380000000  0.5132940000000 1.0
C      1  0.4685660000000  0.4353060000000  0.5461010000000 1.0
C      1  0.4454570000000  0.4695890000000  0.4433040000000 1.0
C      1  0.4588720000000  0.5214520000000  0.5013360000000 1.0
C      1  0.5223750000000  0.4945950000000  0.4512220000000 1.0
C      1  0.4326040000000  0.4456140000000  0.4831220000000 1.0
C      1  0.5435800000000  0.4507180000000  0.4638310000000 1.0
C      1  0.5611250000000  0.4908370000000  0.4364560000000 1.0
C      1  0.4332070000000  0.4487090000000  0.5119810000000 1.0
C      1  0.4197330000000  0.5223480000000  0.5169980000000 1.0
C      1  0.4898350000000  0.4435540000000  0.4516130000000 1.0
C      1  0.5279820000000  0.5615440000000  0.4533160000000 1.0
C      1  0.5230730000000  0.4546760000000  0.5646480000000 1.0
C      1  0.4476030000000  0.5192630000000  0.4484540000000 1.0
C      1  0.4889380000000  0.4190900000000  0.5316340000000 1.0
C      1  0.5746130000000  0.5066820000000  0.5455490000000 1.0
C      1  0.5812610000000  0.5154050000000  0.4715370000000 1.0
C      1  0.4904240000000  0.4826180000000  0.5208700000000 1.0
C      1  0.4331490000000  0.5350980000000  0.4929740000000 1.0
C      1  0.5368880000000  0.5377930000000  0.4398370000000 1.0
C      1  0.4830730000000  0.5770410000000  0.4659230000000 1.0
C      1  0.5327290000000  0.5294310000000  0.4891260000000 1.0
C      1  0.4840150000000  0.5284510000000  0.4862000000000 1.0
C      1  0.4705100000000  0.4152680000000  0.5097100000000 1.0
C      1  0.4384720000000  0.5063620000000  0.5629410000000 1.0
C      1  0.5168220000000  0.4201110000000  0.5278800000000 1.0
C      1  0.5245690000000  0.5219040000000  0.4188990000000 1.0
C      1  0.5424570000000  0.4757640000000  0.5668790000000 1.0
C      1  0.4673830000000  0.5699040000000  0.5083930000000 1.0
C      1  0.5371810000000  0.5187900000000  0.4621050000000 1.0
C      1  0.4341190000000  0.5273560000000  0.5419250000000 1.0
C      1  0.5018760000000  0.4921830000000  0.5790000000000 1.0
C      1  0.5359230000000  0.4256050000000  0.5058820000000 1.0
C      1  0.5356400000000  0.5620840000000  0.4833190000000 1.0
C      1  0.4963230000000  0.4654810000000  0.5710410000000 1.0
C      1  0.4588900000000  0.5207750000000  0.5780750000000 1.0
C      1  0.5242120000000  0.4714180000000  0.4704500000000 1.0
C      1  0.5135070000000  0.4949330000000  0.5129120000000 1.0
C      1  0.4316100000000  0.4740500000000  0.5261470000000 1.0
C      1  0.5489670000000  0.5564830000000  0.5275340000000 1.0
C      1  0.5579780000000  0.4901680000000  0.5011620000000 1.0
C      1  0.4478750000000  0.5529800000000  0.5525880000000 1.0
C      1  0.4955030000000  0.5234480000000  0.4186060000000 1.0
C      1  0.4845520000000  0.5470720000000  0.4306050000000 1.0
C      1  0.4743640000000  0.5097330000000  0.4656400000000 1.0
C      1  0.4926640000000  0.4924220000000  0.4499000000000 1.0
C      1  0.4600360000000  0.4944260000000  0.4877310000000 1.0
C      1  0.4949040000000  0.4678880000000  0.4677260000000 1.0
C      1  0.5061220000000  0.5348900000000  0.5602240000000 1.0
C      1  0.4806160000000  0.4986940000000  0.4232810000000 1.0
C      1  0.4854400000000  0.5131390000000  0.5676420000000 1.0
C      1  0.4790720000000  0.4748880000000  0.4958230000000 1.0
C      1  0.5011010000000  0.4234740000000  0.4688250000000 1.0
C      1  0.5649000000000  0.4802030000000  0.5507280000000 1.0
C      1  0.4744260000000  0.5003690000000  0.5405660000000 1.0
C      1  0.5223480000000  0.5666920000000  0.5277920000000 1.0
C      1  0.5008100000000  0.5661360000000  0.4466730000000 1.0
C      1  0.5163540000000  0.5763800000000  0.5014960000000 1.0
C      1  0.4752490000000  0.4166780000000  0.4821770000000 1.0
C      1  0.4718740000000  0.5557860000000  0.5338510000000 1.0
END
