TITL C-260557-2419-6 -0.123366746825174 125000 -321.199362906004 0 0 47 (C1) n - 1
REM
REM in /rds/project/t2_vol4/rds-t2-cs072/BORA/CARBON/from-Arr/AIRSS/Generating-Clusters/GAP-ML-2020/Only-C1/SD-CG/HFTN-CG
REM
REM
REM
REM
REM
REM ./C.cell (11c1c37f851c82e70ff6c80c92926a4b)
REM AIRSS Version 0.9.1 bugfix July 2018 build 013d7b7c2542+ Fri, 06 Jul 2018 19:26:36 +0100
REM compiler GCC version 9.3.0
REM options -cpp -mtune=generic -march=x86-64 -g -O0
REM seed 1410962751 1689184910 1227269048 2128837314 -1998253313 -516245785 518630790 1826582686 1442563237 1776781105 166578400 473861739 359368844 -1543552904 -754262120 -1525641655 -1634560707 -454234863 -781913880 611284356 1899545232 -635848332 -429512758 1776618152 1584286605 1889053109 1168337150 1612933397 326872310 757981478 1295584181 -842838249 -2044296708
REM
CELL 1.54180   50.00000   50.00000   50.00000   90.00000   90.00000   90.00000
LATT -1
SFAC C  
C      1  0.4561050000000  0.4773680000000  0.5286380000000 1.0
C      1  0.4748100000000  0.5479640000000  0.5077330000000 1.0
C      1  0.5169680000000  0.4830630000000  0.5126620000000 1.0
C      1  0.5146730000000  0.5554330000000  0.5041470000000 1.0
C      1  0.4675540000000  0.5199730000000  0.5468450000000 1.0
C      1  0.4819750000000  0.4489940000000  0.5190680000000 1.0
C      1  0.5312970000000  0.5320150000000  0.5073100000000 1.0
C      1  0.4778820000000  0.4650270000000  0.5435190000000 1.0
C      1  0.4823850000000  0.5495350000000  0.4666440000000 1.0
C      1  0.4885420000000  0.5417790000000  0.5478710000000 1.0
C      1  0.5591500000000  0.4698320000000  0.5188070000000 1.0
C      1  0.4583840000000  0.4594850000000  0.5057650000000 1.0
C      1  0.5255790000000  0.4822780000000  0.5595820000000 1.0
C      1  0.5582910000000  0.5032550000000  0.4760140000000 1.0
C      1  0.4753060000000  0.5257560000000  0.4521160000000 1.0
C      1  0.4941310000000  0.5576670000000  0.5248190000000 1.0
C      1  0.5009790000000  0.5293970000000  0.5710170000000 1.0
C      1  0.5292330000000  0.5378510000000  0.4628810000000 1.0
C      1  0.5101730000000  0.4615380000000  0.4405970000000 1.0
C      1  0.5093040000000  0.5542510000000  0.4750250000000 1.0
C      1  0.4543170000000  0.4694410000000  0.4790330000000 1.0
C      1  0.5685580000000  0.4837170000000  0.4940460000000 1.0
C      1  0.4486460000000  0.5173170000000  0.4613130000000 1.0
C      1  0.4954720000000  0.5083550000000  0.4417040000000 1.0
C      1  0.4408300000000  0.5347580000000  0.4827700000000 1.0
C      1  0.5134220000000  0.4419690000000  0.4821170000000 1.0
C      1  0.5589620000000  0.4576730000000  0.4931690000000 1.0
C      1  0.4945380000000  0.4801940000000  0.5603020000000 1.0
C      1  0.4604940000000  0.5550050000000  0.4854150000000 1.0
C      1  0.5425660000000  0.4946660000000  0.4535000000000 1.0
C      1  0.5059030000000  0.4546140000000  0.5061770000000 1.0
C      1  0.4953420000000  0.4449390000000  0.4600530000000 1.0
C      1  0.5231620000000  0.5153420000000  0.4462940000000 1.0
C      1  0.5357560000000  0.4672190000000  0.4507910000000 1.0
C      1  0.4728050000000  0.4630940000000  0.4587070000000 1.0
C      1  0.4889670000000  0.4804050000000  0.4401480000000 1.0
C      1  0.5401040000000  0.4501440000000  0.4738450000000 1.0
C      1  0.4405910000000  0.4940660000000  0.4776460000000 1.0
C      1  0.5083100000000  0.5094430000000  0.5095090000000 1.0
C      1  0.4579670000000  0.5062310000000  0.5222570000000 1.0
C      1  0.5365680000000  0.4779180000000  0.5334540000000 1.0
C      1  0.4821230000000  0.5054310000000  0.5662530000000 1.0
C      1  0.5328690000000  0.5026020000000  0.5767200000000 1.0
C      1  0.5245270000000  0.5257110000000  0.5855540000000 1.0
C      1  0.5468670000000  0.5282740000000  0.4837620000000 1.0
C      1  0.4811540000000  0.5167430000000  0.5037390000000 1.0
C      1  0.4364580000000  0.5122700000000  0.5006580000000 1.0
END
