TITL C-2681593-4431-10 -33.6608473746119 125000 -854.294595323195 0 0 122 (C1) n - 1
REM
REM in /nfs/bkarasulu/CARBON/AIRSS/Generating-Clusters/GAP-ML-2020/Only-C1/SD-CG/HFTN-CG
REM
REM
REM
REM
REM
REM ./C.cell (11c1c37f851c82e70ff6c80c92926a4b)
REM
REM compiler GCC version 9.2.1 20190827 (Red Hat 9.2.1-1)
REM options -cpp -mtune=generic -march=x86-64 -g -O0 -fpre-include=/usr/include/finclude/math-vector-fortran.h
REM seed 683114040 -643755838 1283028440 -1496826368 -672259251 -1254096299 -527124589 640312405 -972357099 1714668193 2087732733 663287468 516169300 1661281447 -1738202657 677340224 -944212536 -1170837979 1388526541 1608432564 452039400 1383237615 -583482268 -1134992107 -567120899 -1958662448 914981218 -533461821 -1878544207 -518266628 125538671 1332624462 -1611609266
REM
CELL 1.54180   50.00000   50.00000   50.00000   90.00000   90.00000   90.00000
LATT -1
SFAC C  
C      1  0.5902330000000  0.4728820000000  0.5018760000000 1.0
C      1  0.4936350000000  0.4360140000000  0.5178240000000 1.0
C      1  0.5370420000000  0.5461680000000  0.4192470000000 1.0
C      1  0.5098000000000  0.4919640000000  0.4538350000000 1.0
C      1  0.5704310000000  0.5104260000000  0.4257280000000 1.0
C      1  0.4829070000000  0.4640820000000  0.5199780000000 1.0
C      1  0.4984350000000  0.4218850000000  0.4739890000000 1.0
C      1  0.4089900000000  0.4734560000000  0.5140140000000 1.0
C      1  0.4316060000000  0.4965460000000  0.5673900000000 1.0
C      1  0.5065940000000  0.5535190000000  0.4927290000000 1.0
C      1  0.4255480000000  0.5183790000000  0.4530060000000 1.0
C      1  0.5233630000000  0.5005410000000  0.5865650000000 1.0
C      1  0.5645870000000  0.5691980000000  0.5125480000000 1.0
C      1  0.4785030000000  0.4791470000000  0.5439290000000 1.0
C      1  0.4789450000000  0.4491270000000  0.5965700000000 1.0
C      1  0.5916700000000  0.5250480000000  0.4945790000000 1.0
C      1  0.5386480000000  0.4634880000000  0.5490900000000 1.0
C      1  0.4696460000000  0.4179560000000  0.4771900000000 1.0
C      1  0.5414540000000  0.5042440000000  0.5158440000000 1.0
C      1  0.5630040000000  0.4330630000000  0.5086930000000 1.0
C      1  0.5552470000000  0.4277400000000  0.4600230000000 1.0
C      1  0.5613020000000  0.5240350000000  0.5329210000000 1.0
C      1  0.5342700000000  0.5922890000000  0.4751680000000 1.0
C      1  0.4020180000000  0.5071370000000  0.4937320000000 1.0
C      1  0.4920680000000  0.5797140000000  0.4889060000000 1.0
C      1  0.5197340000000  0.4474850000000  0.4327660000000 1.0
C      1  0.4464880000000  0.5658590000000  0.4769650000000 1.0
C      1  0.5028710000000  0.5776530000000  0.4416700000000 1.0
C      1  0.5943440000000  0.5004610000000  0.5095930000000 1.0
C      1  0.5442730000000  0.5053760000000  0.4857620000000 1.0
C      1  0.4300210000000  0.4470590000000  0.5639340000000 1.0
C      1  0.5310970000000  0.4824370000000  0.4743320000000 1.0
C      1  0.5256780000000  0.4640840000000  0.4957010000000 1.0
C      1  0.4200220000000  0.4699830000000  0.4630080000000 1.0
C      1  0.4980210000000  0.5009330000000  0.5463960000000 1.0
C      1  0.4308160000000  0.4430380000000  0.4660040000000 1.0
C      1  0.5243460000000  0.4960770000000  0.4151230000000 1.0
C      1  0.5642070000000  0.5374500000000  0.4257200000000 1.0
C      1  0.4780480000000  0.4681190000000  0.4255800000000 1.0
C      1  0.4793240000000  0.4913640000000  0.4605450000000 1.0
C      1  0.4545950000000  0.5591640000000  0.4490470000000 1.0
C      1  0.5031130000000  0.4252490000000  0.5574520000000 1.0
C      1  0.4945310000000  0.4330990000000  0.5835160000000 1.0
C      1  0.5840680000000  0.4744500000000  0.4513840000000 1.0
C      1  0.4106180000000  0.5093440000000  0.5490490000000 1.0
C      1  0.4592820000000  0.5406000000000  0.5664910000000 1.0
C      1  0.5720460000000  0.4581190000000  0.5202300000000 1.0
C      1  0.4257330000000  0.5267900000000  0.5337320000000 1.0
C      1  0.5131820000000  0.5136340000000  0.5220450000000 1.0
C      1  0.4353540000000  0.4650280000000  0.5247990000000 1.0
C      1  0.5156660000000  0.5258310000000  0.4211030000000 1.0
C      1  0.4988930000000  0.5313890000000  0.4764930000000 1.0
C      1  0.4296850000000  0.4301550000000  0.4905110000000 1.0
C      1  0.4262470000000  0.5510060000000  0.4909790000000 1.0
C      1  0.4694960000000  0.5003450000000  0.5950590000000 1.0
C      1  0.5879760000000  0.5024610000000  0.4476710000000 1.0
C      1  0.4739730000000  0.5262340000000  0.5445960000000 1.0
C      1  0.4965160000000  0.5102210000000  0.5965880000000 1.0
C      1  0.4321280000000  0.4909090000000  0.4470110000000 1.0
C      1  0.5283240000000  0.5602790000000  0.5441100000000 1.0
C      1  0.5704620000000  0.4643700000000  0.5492890000000 1.0
C      1  0.5287930000000  0.4349760000000  0.5449100000000 1.0
C      1  0.5472280000000  0.4440570000000  0.4389520000000 1.0
C      1  0.4606860000000  0.4912060000000  0.4349050000000 1.0
C      1  0.4359620000000  0.4692670000000  0.5795170000000 1.0
C      1  0.4557040000000  0.4324900000000  0.4562910000000 1.0
C      1  0.5168870000000  0.5222760000000  0.4550920000000 1.0
C      1  0.5040190000000  0.5362330000000  0.5875540000000 1.0
C      1  0.4839130000000  0.4171090000000  0.5367990000000 1.0
C      1  0.4867200000000  0.5354060000000  0.4214800000000 1.0
C      1  0.4261830000000  0.5516470000000  0.5211380000000 1.0
C      1  0.5862970000000  0.4604930000000  0.4766180000000 1.0
C      1  0.4145410000000  0.5276080000000  0.4784040000000 1.0
C      1  0.4488120000000  0.4866100000000  0.5436970000000 1.0
C      1  0.5078950000000  0.4741700000000  0.4263200000000 1.0
C      1  0.5156450000000  0.4325210000000  0.4981140000000 1.0
C      1  0.5000310000000  0.4322980000000  0.4463180000000 1.0
C      1  0.4435420000000  0.5348970000000  0.4386990000000 1.0
C      1  0.4527710000000  0.5125380000000  0.5290540000000 1.0
C      1  0.4805470000000  0.5609540000000  0.4352210000000 1.0
C      1  0.4445190000000  0.5598290000000  0.5415740000000 1.0
C      1  0.5461170000000  0.5770170000000  0.4549010000000 1.0
C      1  0.4610260000000  0.4715330000000  0.5947060000000 1.0
C      1  0.5313310000000  0.5283660000000  0.5784600000000 1.0
C      1  0.4653780000000  0.5766150000000  0.4967820000000 1.0
C      1  0.4496210000000  0.5161260000000  0.5811350000000 1.0
C      1  0.4996580000000  0.4760740000000  0.4980680000000 1.0
C      1  0.5004080000000  0.5644550000000  0.5558120000000 1.0
C      1  0.5417700000000  0.5275010000000  0.4687070000000 1.0
C      1  0.4060030000000  0.4795640000000  0.4858330000000 1.0
C      1  0.4600710000000  0.5027770000000  0.5028990000000 1.0
C      1  0.5748100000000  0.5422360000000  0.5125940000000 1.0
C      1  0.4632370000000  0.5194220000000  0.4245370000000 1.0
C      1  0.5433090000000  0.5795440000000  0.5280260000000 1.0
C      1  0.5519440000000  0.4899790000000  0.4192310000000 1.0
C      1  0.5457760000000  0.5878620000000  0.5013770000000 1.0
C      1  0.4364870000000  0.4373370000000  0.5394310000000 1.0
C      1  0.5212230000000  0.4841640000000  0.5635640000000 1.0
C      1  0.4020990000000  0.5002900000000  0.5227870000000 1.0
C      1  0.4515060000000  0.4159200000000  0.5001420000000 1.0
C      1  0.5424650000000  0.4738660000000  0.5193650000000 1.0
C      1  0.4963220000000  0.5046230000000  0.5004730000000 1.0
C      1  0.4642840000000  0.5676560000000  0.5240690000000 1.0
C      1  0.5062820000000  0.5912780000000  0.4677500000000 1.0
C      1  0.4764340000000  0.5136140000000  0.4811830000000 1.0
C      1  0.5699690000000  0.4363950000000  0.4809530000000 1.0
C      1  0.5449400000000  0.5390210000000  0.5561600000000 1.0
C      1  0.4555280000000  0.4170020000000  0.5290830000000 1.0
C      1  0.5850050000000  0.5052030000000  0.5367950000000 1.0
C      1  0.5879920000000  0.4842710000000  0.5550860000000 1.0
C      1  0.5629890000000  0.4669210000000  0.4327980000000 1.0
C      1  0.4855610000000  0.5547420000000  0.5772430000000 1.0
C      1  0.4746810000000  0.4424730000000  0.4373310000000 1.0
C      1  0.5588660000000  0.5533990000000  0.4637900000000 1.0
C      1  0.4868690000000  0.5516140000000  0.5334460000000 1.0
C      1  0.5289250000000  0.5699870000000  0.4331800000000 1.0
C      1  0.4586130000000  0.4727770000000  0.5030860000000 1.0
C      1  0.5805750000000  0.5455390000000  0.4488020000000 1.0
C      1  0.5117990000000  0.5440760000000  0.5191830000000 1.0
C      1  0.5938100000000  0.5249010000000  0.4646460000000 1.0
C      1  0.5373420000000  0.4247120000000  0.5177340000000 1.0
C      1  0.4771540000000  0.4684600000000  0.4785640000000 1.0
END
