TITL C-2681592-4431-10 -0.00878677622935696 125000 -163.712812803934 0 0 25 (C1) n - 1
REM
REM in /nfs/bkarasulu/CARBON/AIRSS/Generating-Clusters/GAP-ML-2020/Only-C1/SD-CG/HFTN-CG
REM
REM
REM
REM
REM
REM ./C.cell (11c1c37f851c82e70ff6c80c92926a4b)
REM
REM compiler GCC version 9.2.1 20190827 (Red Hat 9.2.1-1)
REM options -cpp -mtune=generic -march=x86-64 -g -O0 -fpre-include=/usr/include/finclude/math-vector-fortran.h
REM seed -22280443 -2120421061 -918160134 -1888973118 -1245439884 -758976340 -1729220207 246351142 1807644158 -1057041866 1308214130 1980530525 1044740788 217707310 1891405786 -534310064 1289001140 -2121236880 -208241535 -163416150 -322820416 1853123159 718679495 1336373873 739222816 761819990 978642077 474541677 -1874225181 494267818 1734156550 1274969967 -656795280
REM
CELL 1.54180   50.00000   50.00000   50.00000   90.00000   90.00000   90.00000
LATT -1
SFAC C  
C      1  0.4286510000000  0.4765580000000  0.5299180000000 1.0
C      1  0.4801490000000  0.4807240000000  0.4607000000000 1.0
C      1  0.4221630000000  0.4875960000000  0.5069850000000 1.0
C      1  0.5539490000000  0.5182870000000  0.5272250000000 1.0
C      1  0.4552720000000  0.4675920000000  0.4618240000000 1.0
C      1  0.5296760000000  0.4763100000000  0.5402140000000 1.0
C      1  0.5019650000000  0.4746960000000  0.4784800000000 1.0
C      1  0.5608470000000  0.5470490000000  0.5699360000000 1.0
C      1  0.5362020000000  0.5509840000000  0.4923520000000 1.0
C      1  0.4779130000000  0.4621660000000  0.5268830000000 1.0
C      1  0.5497700000000  0.5285220000000  0.5006020000000 1.0
C      1  0.5159500000000  0.5547230000000  0.4777460000000 1.0
C      1  0.4952500000000  0.4646390000000  0.5041660000000 1.0
C      1  0.5488200000000  0.4897280000000  0.5261860000000 1.0
C      1  0.4413700000000  0.4940420000000  0.4657350000000 1.0
C      1  0.5069230000000  0.4675690000000  0.5292200000000 1.0
C      1  0.4760550000000  0.5321900000000  0.4559670000000 1.0
C      1  0.4949380000000  0.5471310000000  0.4643520000000 1.0
C      1  0.4658280000000  0.5074190000000  0.4565700000000 1.0
C      1  0.5572300000000  0.5329970000000  0.5494420000000 1.0
C      1  0.4209960000000  0.4984260000000  0.4835880000000 1.0
C      1  0.5475430000000  0.5057860000000  0.4833570000000 1.0
C      1  0.5503170000000  0.4820470000000  0.4977690000000 1.0
C      1  0.5293090000000  0.4848420000000  0.4790840000000 1.0
C      1  0.4529140000000  0.4679770000000  0.5317000000000 1.0
END
