TITL C-2681590-4462-9 745.948214249717 125000 -910.299581974305 0 0 128 (C1) n - 1
REM
REM in /nfs/bkarasulu/CARBON/AIRSS/Generating-Clusters/GAP-ML-2020/Only-C1/SD-CG/HFTN-CG
REM
REM
REM
REM
REM
REM ./C.cell (11c1c37f851c82e70ff6c80c92926a4b)
REM
REM compiler GCC version 9.2.1 20190827 (Red Hat 9.2.1-1)
REM options -cpp -mtune=generic -march=x86-64 -g -O0 -fpre-include=/usr/include/finclude/math-vector-fortran.h
REM seed -765298925 -859637393 -1389333417 -1343890152 1266209500 773257267 128380153 1745149016 2091418375 1545320750 -1487105268 -831031170 267636786 266449830 958415699 -790903502 -1928243971 -1989921889 152598018 -1581616912 -1491829664 -1838006137 237530864 2067318828 630607492 1641106740 -2113930373 141215923 -444636280 2079422017 730390471 -1871576924 1722886632
REM
CELL 1.54180   50.00000   50.00000   50.00000   90.00000   90.00000   90.00000
LATT -1
SFAC C  
C      1  0.5662800000000  0.4239510000000  0.4726410000000 1.0
C      1  0.5624340000000  0.5330070000000  0.4343770000000 1.0
C      1  0.5093090000000  0.5329360000000  0.5904570000000 1.0
C      1  0.5032630000000  0.4436800000000  0.5013540000000 1.0
C      1  0.4451400000000  0.4392150000000  0.4566300000000 1.0
C      1  0.4814400000000  0.5342600000000  0.5927130000000 1.0
C      1  0.5005780000000  0.4937140000000  0.4490250000000 1.0
C      1  0.4510170000000  0.4680660000000  0.5750640000000 1.0
C      1  0.4406970000000  0.5483270000000  0.5201260000000 1.0
C      1  0.5116990000000  0.4988440000000  0.5288230000000 1.0
C      1  0.5959110000000  0.4900060000000  0.5261390000000 1.0
C      1  0.4637630000000  0.5564020000000  0.4291590000000 1.0
C      1  0.4358040000000  0.4446860000000  0.5322570000000 1.0
C      1  0.5540500000000  0.5088000000000  0.4209240000000 1.0
C      1  0.5100350000000  0.4487310000000  0.5500150000000 1.0
C      1  0.5196670000000  0.4070290000000  0.5311040000000 1.0
C      1  0.5346450000000  0.5833940000000  0.4820290000000 1.0
C      1  0.4597850000000  0.5864660000000  0.5143300000000 1.0
C      1  0.4377280000000  0.5072310000000  0.4429860000000 1.0
C      1  0.5183930000000  0.5217280000000  0.4819970000000 1.0
C      1  0.4351680000000  0.4468500000000  0.4817210000000 1.0
C      1  0.5506590000000  0.5277130000000  0.5690760000000 1.0
C      1  0.6035930000000  0.4855820000000  0.4977490000000 1.0
C      1  0.4396930000000  0.5549160000000  0.4473070000000 1.0
C      1  0.4667730000000  0.5915520000000  0.4600430000000 1.0
C      1  0.4793550000000  0.4578180000000  0.5098700000000 1.0
C      1  0.4112570000000  0.4865950000000  0.4713370000000 1.0
C      1  0.5428520000000  0.5029790000000  0.5827020000000 1.0
C      1  0.5248580000000  0.5019270000000  0.4630630000000 1.0
C      1  0.5065440000000  0.5960870000000  0.5223080000000 1.0
C      1  0.5901600000000  0.5310630000000  0.5019610000000 1.0
C      1  0.4681820000000  0.4217710000000  0.4571350000000 1.0
C      1  0.4163730000000  0.4657760000000  0.4913070000000 1.0
C      1  0.4888020000000  0.5340770000000  0.5157820000000 1.0
C      1  0.5063690000000  0.5807740000000  0.4398900000000 1.0
C      1  0.5102180000000  0.5357010000000  0.4169690000000 1.0
C      1  0.4175210000000  0.4644200000000  0.5213180000000 1.0
C      1  0.5253810000000  0.5110180000000  0.4135940000000 1.0
C      1  0.6043270000000  0.5116540000000  0.4869720000000 1.0
C      1  0.4503830000000  0.5723270000000  0.5367900000000 1.0
C      1  0.4833370000000  0.6004300000000  0.5061490000000 1.0
C      1  0.5404610000000  0.4243830000000  0.5193170000000 1.0
C      1  0.5953840000000  0.4674940000000  0.4742400000000 1.0
C      1  0.4647340000000  0.5100030000000  0.5949740000000 1.0
C      1  0.4718440000000  0.4832120000000  0.5900040000000 1.0
C      1  0.4908690000000  0.4743600000000  0.4680830000000 1.0
C      1  0.5866730000000  0.4418470000000  0.4738580000000 1.0
C      1  0.4134630000000  0.4842350000000  0.5411740000000 1.0
C      1  0.5523630000000  0.5649470000000  0.4690570000000 1.0
C      1  0.5679700000000  0.4839880000000  0.4301690000000 1.0
C      1  0.4868850000000  0.4905940000000  0.5429550000000 1.0
C      1  0.5220380000000  0.5596810000000  0.4289020000000 1.0
C      1  0.4532920000000  0.5639040000000  0.4955100000000 1.0
C      1  0.5269260000000  0.4516620000000  0.5226600000000 1.0
C      1  0.5083220000000  0.3934840000000  0.5095500000000 1.0
C      1  0.4594840000000  0.5492580000000  0.5804800000000 1.0
C      1  0.4278900000000  0.4832260000000  0.5673380000000 1.0
C      1  0.5537920000000  0.4419050000000  0.4536140000000 1.0
C      1  0.5703460000000  0.4670780000000  0.5636780000000 1.0
C      1  0.4963850000000  0.5380050000000  0.4720450000000 1.0
C      1  0.5852420000000  0.5186610000000  0.5278070000000 1.0
C      1  0.5681930000000  0.5415210000000  0.4820620000000 1.0
C      1  0.5126650000000  0.5929270000000  0.4656580000000 1.0
C      1  0.4082160000000  0.5173270000000  0.4736020000000 1.0
C      1  0.5465820000000  0.4751110000000  0.5756180000000 1.0
C      1  0.4591500000000  0.5048710000000  0.4924360000000 1.0
C      1  0.4635990000000  0.4051510000000  0.5259000000000 1.0
C      1  0.5468720000000  0.5558110000000  0.4418570000000 1.0
C      1  0.5012030000000  0.4814930000000  0.5892530000000 1.0
C      1  0.4118400000000  0.5138720000000  0.5425920000000 1.0
C      1  0.4578930000000  0.5128390000000  0.4638860000000 1.0
C      1  0.4604960000000  0.4637790000000  0.4175300000000 1.0
C      1  0.5630530000000  0.5283150000000  0.5431910000000 1.0
C      1  0.5396070000000  0.5666960000000  0.5305860000000 1.0
C      1  0.4821300000000  0.5343580000000  0.4251820000000 1.0
C      1  0.4022090000000  0.5298410000000  0.4969830000000 1.0
C      1  0.5271610000000  0.5697670000000  0.5558670000000 1.0
C      1  0.5053900000000  0.4417970000000  0.4239810000000 1.0
C      1  0.5358410000000  0.4567880000000  0.4701620000000 1.0
C      1  0.4410840000000  0.4599450000000  0.4370740000000 1.0
C      1  0.4610330000000  0.5235590000000  0.5203030000000 1.0
C      1  0.5052390000000  0.5881440000000  0.5505170000000 1.0
C      1  0.5077380000000  0.4502880000000  0.4724560000000 1.0
C      1  0.4780410000000  0.5805480000000  0.4364860000000 1.0
C      1  0.5131630000000  0.5280730000000  0.5332940000000 1.0
C      1  0.5895110000000  0.4851910000000  0.4502780000000 1.0
C      1  0.4610020000000  0.5726030000000  0.5637600000000 1.0
C      1  0.4826180000000  0.5188940000000  0.4509580000000 1.0
C      1  0.5196560000000  0.4640260000000  0.5744410000000 1.0
C      1  0.5168090000000  0.5055100000000  0.5933630000000 1.0
C      1  0.4801970000000  0.3946180000000  0.5042670000000 1.0
C      1  0.4235790000000  0.5120870000000  0.5690810000000 1.0
C      1  0.5050120000000  0.4031070000000  0.4645400000000 1.0
C      1  0.4802060000000  0.4850300000000  0.4933740000000 1.0
C      1  0.4830540000000  0.5906610000000  0.5665800000000 1.0
C      1  0.5472540000000  0.4138570000000  0.4925520000000 1.0
C      1  0.4865550000000  0.4623670000000  0.4139550000000 1.0
C      1  0.5880700000000  0.4722050000000  0.5458740000000 1.0
C      1  0.5416800000000  0.5378420000000  0.5246500000000 1.0
C      1  0.5970780000000  0.5107330000000  0.4595480000000 1.0
C      1  0.4580640000000  0.4484450000000  0.5529500000000 1.0
C      1  0.5795460000000  0.5314080000000  0.4561790000000 1.0
C      1  0.4539960000000  0.4417140000000  0.5021240000000 1.0
C      1  0.4126440000000  0.5348620000000  0.5219070000000 1.0
C      1  0.4777470000000  0.4012690000000  0.4755730000000 1.0
C      1  0.4647940000000  0.5064420000000  0.5420600000000 1.0
C      1  0.5488960000000  0.4939340000000  0.5003550000000 1.0
C      1  0.4825350000000  0.4618950000000  0.5403770000000 1.0
C      1  0.4254070000000  0.4821940000000  0.4466760000000 1.0
C      1  0.5296870000000  0.5470170000000  0.5739620000000 1.0
C      1  0.5005590000000  0.5079020000000  0.5023780000000 1.0
C      1  0.5024150000000  0.4201380000000  0.5492580000000 1.0
C      1  0.5429740000000  0.4836860000000  0.4749620000000 1.0
C      1  0.4459280000000  0.5740420000000  0.4683390000000 1.0
C      1  0.4828800000000  0.5509410000000  0.4930520000000 1.0
C      1  0.4875760000000  0.6001980000000  0.4778290000000 1.0
C      1  0.4739160000000  0.4190590000000  0.5482480000000 1.0
C      1  0.5299700000000  0.5848010000000  0.5106520000000 1.0
C      1  0.5545550000000  0.4586000000000  0.4298960000000 1.0
C      1  0.4242140000000  0.5304230000000  0.4516410000000 1.0
C      1  0.4424740000000  0.4215920000000  0.5179520000000 1.0
C      1  0.4427050000000  0.5255620000000  0.5836770000000 1.0
C      1  0.5236420000000  0.3994450000000  0.4855740000000 1.0
C      1  0.5335980000000  0.4808880000000  0.5206100000000 1.0
C      1  0.4978880000000  0.4283970000000  0.4499660000000 1.0
C      1  0.5449630000000  0.5257740000000  0.4973000000000 1.0
C      1  0.5102490000000  0.4845530000000  0.4207170000000 1.0
C      1  0.5276920000000  0.4598330000000  0.4214800000000 1.0
END
