TITL C-260517-6877-2 -70.5755704258821 125000 -446.339778621661 0 0 66 (C1) n - 1
REM
REM in /rds/project/t2_vol4/rds-t2-cs072/BORA/CARBON/from-Arr/AIRSS/Generating-Clusters/GAP-ML-2020/Only-C1/SD-CG/HFTN-CG
REM
REM
REM
REM
REM
REM ./C.cell (11c1c37f851c82e70ff6c80c92926a4b)
REM AIRSS Version 0.9.1 bugfix July 2018 build 013d7b7c2542+ Fri, 06 Jul 2018 19:26:36 +0100
REM compiler GCC version 9.3.0
REM options -cpp -mtune=generic -march=x86-64 -g -O0
REM seed -924560941 -1258347423 -1747295083 -1545120909 -535056264 -1506591433 531525448 -501802848 -12491171 -1191450303 -1246649069 259670381 2005874487 1405944947 839867116 826617236 -383031422 1265259940 531109721 -1486742449 1207546576 -2114833788 844144071 -1089777985 -291846728 1090707170 832117981 -137313833 -232467579 -710515066 -696571679 1296765383 -1351952481
REM
CELL 1.54180   50.00000   50.00000   50.00000   90.00000   90.00000   90.00000
LATT -1
SFAC C  
C      1  0.5666680000000  0.4815600000000  0.5025480000000 1.0
C      1  0.5276640000000  0.4837340000000  0.4295340000000 1.0
C      1  0.4351510000000  0.4861670000000  0.5022800000000 1.0
C      1  0.5219350000000  0.4692590000000  0.5235370000000 1.0
C      1  0.4390560000000  0.5291560000000  0.4862070000000 1.0
C      1  0.4870140000000  0.5154850000000  0.5120650000000 1.0
C      1  0.5095420000000  0.5757800000000  0.5081480000000 1.0
C      1  0.4924620000000  0.5624240000000  0.5257580000000 1.0
C      1  0.5258550000000  0.4747550000000  0.4751920000000 1.0
C      1  0.5641220000000  0.4596160000000  0.4571140000000 1.0
C      1  0.5433190000000  0.4992960000000  0.4676880000000 1.0
C      1  0.4435300000000  0.5395220000000  0.5133900000000 1.0
C      1  0.4631670000000  0.4833980000000  0.5676980000000 1.0
C      1  0.5225740000000  0.5673540000000  0.4679520000000 1.0
C      1  0.4847900000000  0.4653380000000  0.5614600000000 1.0
C      1  0.4266010000000  0.5390770000000  0.5355730000000 1.0
C      1  0.4975520000000  0.5745950000000  0.4805080000000 1.0
C      1  0.5553550000000  0.5478880000000  0.5108290000000 1.0
C      1  0.4585590000000  0.4512900000000  0.4804120000000 1.0
C      1  0.5222880000000  0.4391720000000  0.5172650000000 1.0
C      1  0.4477700000000  0.4962960000000  0.4546360000000 1.0
C      1  0.4867810000000  0.4946510000000  0.4917040000000 1.0
C      1  0.5534680000000  0.4827920000000  0.4436880000000 1.0
C      1  0.4920040000000  0.4510370000000  0.4528530000000 1.0
C      1  0.4761770000000  0.4335330000000  0.4936950000000 1.0
C      1  0.5240220000000  0.5445220000000  0.4511800000000 1.0
C      1  0.5222500000000  0.5092890000000  0.4231820000000 1.0
C      1  0.4682310000000  0.4490240000000  0.5433590000000 1.0
C      1  0.5058940000000  0.4229400000000  0.5314410000000 1.0
C      1  0.4903340000000  0.5271070000000  0.5636070000000 1.0
C      1  0.5204140000000  0.5203340000000  0.4689420000000 1.0
C      1  0.5241450000000  0.4328950000000  0.4889900000000 1.0
C      1  0.4350170000000  0.4892780000000  0.5303100000000 1.0
C      1  0.5505620000000  0.5376090000000  0.5372960000000 1.0
C      1  0.4479350000000  0.4696390000000  0.5472360000000 1.0
C      1  0.5073250000000  0.4766400000000  0.4514700000000 1.0
C      1  0.4634470000000  0.4532910000000  0.4521200000000 1.0
C      1  0.4405900000000  0.5159540000000  0.5417290000000 1.0
C      1  0.4597480000000  0.4768020000000  0.4928350000000 1.0
C      1  0.5253650000000  0.5347160000000  0.4251830000000 1.0
C      1  0.4320100000000  0.5024800000000  0.4793430000000 1.0
C      1  0.4602020000000  0.5380030000000  0.4688140000000 1.0
C      1  0.5423760000000  0.4502690000000  0.4757510000000 1.0
C      1  0.4663740000000  0.5108150000000  0.5573140000000 1.0
C      1  0.5696810000000  0.5312870000000  0.4948200000000 1.0
C      1  0.4948590000000  0.5032530000000  0.4627900000000 1.0
C      1  0.4805970000000  0.4324670000000  0.5233210000000 1.0
C      1  0.5136010000000  0.5229670000000  0.5218600000000 1.0
C      1  0.4732560000000  0.5457190000000  0.5107660000000 1.0
C      1  0.5055670000000  0.5444580000000  0.5444280000000 1.0
C      1  0.5320540000000  0.5513810000000  0.5514000000000 1.0
C      1  0.4754500000000  0.5567080000000  0.4836480000000 1.0
C      1  0.5655570000000  0.5058060000000  0.4870430000000 1.0
C      1  0.4986540000000  0.4333380000000  0.4762510000000 1.0
C      1  0.4849470000000  0.5010430000000  0.5362470000000 1.0
C      1  0.5329960000000  0.5616130000000  0.4971090000000 1.0
C      1  0.5685310000000  0.4594740000000  0.4846740000000 1.0
C      1  0.5097600000000  0.4786200000000  0.4982850000000 1.0
C      1  0.5211700000000  0.5332620000000  0.4962830000000 1.0
C      1  0.5092950000000  0.5124120000000  0.5775790000000 1.0
C      1  0.4689570000000  0.5156360000000  0.4538100000000 1.0
C      1  0.5470250000000  0.4845220000000  0.5232970000000 1.0
C      1  0.5056170000000  0.4802320000000  0.5465150000000 1.0
C      1  0.5240780000000  0.4980260000000  0.5604120000000 1.0
C      1  0.5391380000000  0.5089970000000  0.5374690000000 1.0
C      1  0.4495630000000  0.4739970000000  0.4401590000000 1.0
END
