TITL C-2681599-4493-16 -0.234826784170545 125000 -605.050485153181 0 0 88 (C1) n - 1
REM
REM in /nfs/bkarasulu/CARBON/AIRSS/Generating-Clusters/GAP-ML-2020/Only-C1/SD-CG/HFTN-CG
REM
REM
REM
REM
REM
REM ./C.cell (11c1c37f851c82e70ff6c80c92926a4b)
REM
REM compiler GCC version 9.2.1 20190827 (Red Hat 9.2.1-1)
REM options -cpp -mtune=generic -march=x86-64 -g -O0 -fpre-include=/usr/include/finclude/math-vector-fortran.h
REM seed -437219493 -207107395 964424281 649557154 -984716932 -1742694621 -1065549741 -833249403 989408687 -1617622018 16440773 -1711166460 -124241347 -893580556 2115721138 -735495916 2052119501 2146099117 551809745 1353776302 -1963893684 1449931198 1245639547 956890841 1308063590 922394718 777166664 569065385 2053001568 -1130001118 1159069045 578680521 664041537
REM
CELL 1.54180   50.00000   50.00000   50.00000   90.00000   90.00000   90.00000
LATT -1
SFAC C  
C      1  0.5153710000000  0.4812380000000  0.5574840000000 1.0
C      1  0.4853370000000  0.5423510000000  0.4260610000000 1.0
C      1  0.5039360000000  0.5571230000000  0.4384260000000 1.0
C      1  0.5283470000000  0.5425690000000  0.4300690000000 1.0
C      1  0.5858870000000  0.5063440000000  0.4946690000000 1.0
C      1  0.4377000000000  0.4796230000000  0.5422560000000 1.0
C      1  0.5455560000000  0.5404000000000  0.5486260000000 1.0
C      1  0.4485090000000  0.4454360000000  0.5062910000000 1.0
C      1  0.5274210000000  0.5061680000000  0.4855440000000 1.0
C      1  0.4574860000000  0.5125670000000  0.4990180000000 1.0
C      1  0.5023730000000  0.5014290000000  0.5756440000000 1.0
C      1  0.4200000000000  0.4865500000000  0.5096900000000 1.0
C      1  0.5204810000000  0.4142770000000  0.5010690000000 1.0
C      1  0.4750780000000  0.4745050000000  0.4390440000000 1.0
C      1  0.5646660000000  0.4678020000000  0.4636530000000 1.0
C      1  0.5436800000000  0.4510500000000  0.4770250000000 1.0
C      1  0.5097730000000  0.5692640000000  0.5131420000000 1.0
C      1  0.4511290000000  0.5064680000000  0.5488990000000 1.0
C      1  0.5346850000000  0.4627940000000  0.5066760000000 1.0
C      1  0.4629450000000  0.5125370000000  0.5763440000000 1.0
C      1  0.5284260000000  0.4688230000000  0.4335990000000 1.0
C      1  0.4330970000000  0.5008190000000  0.4571610000000 1.0
C      1  0.4109490000000  0.4772360000000  0.5344310000000 1.0
C      1  0.5354450000000  0.5351670000000  0.4986720000000 1.0
C      1  0.4982600000000  0.5204780000000  0.5307930000000 1.0
C      1  0.4579250000000  0.4584430000000  0.5320920000000 1.0
C      1  0.5549980000000  0.4778330000000  0.4386370000000 1.0
C      1  0.4785930000000  0.4761870000000  0.5152620000000 1.0
C      1  0.4765370000000  0.4446570000000  0.5481230000000 1.0
C      1  0.5556570000000  0.5224630000000  0.5672290000000 1.0
C      1  0.5199570000000  0.5525810000000  0.5557970000000 1.0
C      1  0.5220920000000  0.4507260000000  0.4555790000000 1.0
C      1  0.5341550000000  0.4167750000000  0.5264300000000 1.0
C      1  0.4605140000000  0.5530510000000  0.5520120000000 1.0
C      1  0.5497210000000  0.4515750000000  0.5529100000000 1.0
C      1  0.5606840000000  0.4963700000000  0.5620480000000 1.0
C      1  0.4859020000000  0.4925160000000  0.4198060000000 1.0
C      1  0.4686690000000  0.5739210000000  0.5081520000000 1.0
C      1  0.5466240000000  0.4224200000000  0.4877700000000 1.0
C      1  0.4332500000000  0.4723170000000  0.4627690000000 1.0
C      1  0.4358580000000  0.4684220000000  0.4914880000000 1.0
C      1  0.4926250000000  0.5360590000000  0.4810630000000 1.0
C      1  0.4676360000000  0.4320850000000  0.4911110000000 1.0
C      1  0.4805240000000  0.4914040000000  0.4652460000000 1.0
C      1  0.5548930000000  0.5339840000000  0.5215160000000 1.0
C      1  0.5143660000000  0.4910250000000  0.4200700000000 1.0
C      1  0.4656740000000  0.4842930000000  0.4900500000000 1.0
C      1  0.4808050000000  0.4988260000000  0.5923310000000 1.0
C      1  0.5679570000000  0.5246050000000  0.4483580000000 1.0
C      1  0.4746880000000  0.5386520000000  0.5710020000000 1.0
C      1  0.4762510000000  0.5706200000000  0.5363020000000 1.0
C      1  0.4413050000000  0.5349180000000  0.5425180000000 1.0
C      1  0.5483950000000  0.5462110000000  0.4507350000000 1.0
C      1  0.5853080000000  0.5133170000000  0.4675420000000 1.0
C      1  0.5182150000000  0.4992700000000  0.5327540000000 1.0
C      1  0.4934020000000  0.5779250000000  0.4918380000000 1.0
C      1  0.4403750000000  0.5526050000000  0.4756560000000 1.0
C      1  0.4320870000000  0.5395940000000  0.5174190000000 1.0
C      1  0.5011420000000  0.5311000000000  0.5628630000000 1.0
C      1  0.5585720000000  0.4199210000000  0.5131550000000 1.0
C      1  0.4162230000000  0.5457230000000  0.4658930000000 1.0
C      1  0.5062040000000  0.5611770000000  0.4689130000000 1.0
C      1  0.5034140000000  0.5096620000000  0.4710280000000 1.0
C      1  0.5567720000000  0.5053240000000  0.4307670000000 1.0
C      1  0.4441890000000  0.5608950000000  0.5020870000000 1.0
C      1  0.5279880000000  0.4328650000000  0.5484510000000 1.0
C      1  0.5746720000000  0.5125440000000  0.5194720000000 1.0
C      1  0.5425920000000  0.4745510000000  0.5674380000000 1.0
C      1  0.4740000000000  0.5183080000000  0.4268990000000 1.0
C      1  0.4186700000000  0.5197230000000  0.4736100000000 1.0
C      1  0.5049630000000  0.5719510000000  0.5405190000000 1.0
C      1  0.5044890000000  0.4562390000000  0.5148980000000 1.0
C      1  0.5833720000000  0.4856310000000  0.4751850000000 1.0
C      1  0.5352230000000  0.5540610000000  0.4746240000000 1.0
C      1  0.4989940000000  0.4392460000000  0.4658770000000 1.0
C      1  0.5712470000000  0.4898450000000  0.5365710000000 1.0
C      1  0.4268870000000  0.5144550000000  0.5015330000000 1.0
C      1  0.4733570000000  0.5061970000000  0.5251510000000 1.0
C      1  0.4702800000000  0.4396710000000  0.4638930000000 1.0
C      1  0.4600970000000  0.5127870000000  0.4533050000000 1.0
C      1  0.4546190000000  0.4579180000000  0.4489860000000 1.0
C      1  0.5253200000000  0.4891390000000  0.5073760000000 1.0
C      1  0.4634240000000  0.5322560000000  0.4766060000000 1.0
C      1  0.5594950000000  0.4632890000000  0.5283950000000 1.0
C      1  0.5042260000000  0.4503390000000  0.5459490000000 1.0
C      1  0.5069810000000  0.5388870000000  0.5080950000000 1.0
C      1  0.5316920000000  0.5144760000000  0.4206010000000 1.0
C      1  0.4987210000000  0.4331540000000  0.4959590000000 1.0
END
