TITL C-2681977-3223-5 -142.830839976915 125000 -593.754561929299 0 0 84 (C1) n - 1
REM
REM in /nfs/bkarasulu/CARBON/AIRSS/Generating-Clusters/GAP-ML-2020/Only-C1/SD-CG/HFTN-CG
REM
REM
REM
REM
REM
REM ./C.cell (11c1c37f851c82e70ff6c80c92926a4b)
REM
REM compiler GCC version 9.2.1 20190827 (Red Hat 9.2.1-1)
REM options -cpp -mtune=generic -march=x86-64 -g -O0 -fpre-include=/usr/include/finclude/math-vector-fortran.h
REM seed -2082239704 1141279720 -1201165486 1632639923 351488149 -1937754999 -778018233 361425819 2093429492 -1672363492 412376571 763688087 -577084675 392898133 1783663874 -350634052 574535699 1072462508 501654698 -270691548 -2048352025 -601612367 -1627482710 850294144 1640232605 -792407065 1312704071 -561561619 1100588303 1540693122 294108431 -1659073306 -1924652793
REM
CELL 1.54180   50.00000   50.00000   50.00000   90.00000   90.00000   90.00000
LATT -1
SFAC C  
C      1  0.4230510000000  0.5015310000000  0.4901230000000 1.0
C      1  0.5261780000000  0.4736090000000  0.4333090000000 1.0
C      1  0.4671260000000  0.5419680000000  0.4476310000000 1.0
C      1  0.5627080000000  0.5096890000000  0.4618650000000 1.0
C      1  0.5018830000000  0.4852220000000  0.5746540000000 1.0
C      1  0.5093360000000  0.4205930000000  0.4919650000000 1.0
C      1  0.5151790000000  0.5121750000000  0.5224970000000 1.0
C      1  0.4501740000000  0.5463950000000  0.5475820000000 1.0
C      1  0.4648160000000  0.5261440000000  0.5629230000000 1.0
C      1  0.5002980000000  0.5900920000000  0.5153030000000 1.0
C      1  0.4229560000000  0.5067710000000  0.5188650000000 1.0
C      1  0.5561090000000  0.5421530000000  0.5302060000000 1.0
C      1  0.4944730000000  0.5210750000000  0.4816140000000 1.0
C      1  0.4991240000000  0.4651550000000  0.4352210000000 1.0
C      1  0.5099260000000  0.5398210000000  0.5350460000000 1.0
C      1  0.4183290000000  0.4580220000000  0.5244150000000 1.0
C      1  0.5136780000000  0.5634670000000  0.4709720000000 1.0
C      1  0.5459740000000  0.5167510000000  0.4373170000000 1.0
C      1  0.4505990000000  0.4825650000000  0.5501700000000 1.0
C      1  0.4727580000000  0.5859790000000  0.5130490000000 1.0
C      1  0.5638220000000  0.5569550000000  0.4498510000000 1.0
C      1  0.4380090000000  0.5293940000000  0.5267220000000 1.0
C      1  0.4352720000000  0.4346840000000  0.5276700000000 1.0
C      1  0.5111040000000  0.5311760000000  0.5638530000000 1.0
C      1  0.4615910000000  0.4274920000000  0.4868460000000 1.0
C      1  0.4912140000000  0.4428450000000  0.4508770000000 1.0
C      1  0.5149440000000  0.5523330000000  0.4452290000000 1.0
C      1  0.5565130000000  0.5205820000000  0.5480830000000 1.0
C      1  0.5296570000000  0.4367920000000  0.5342850000000 1.0
C      1  0.5481150000000  0.5188870000000  0.4869110000000 1.0
C      1  0.5659680000000  0.4653580000000  0.4928470000000 1.0
C      1  0.4187490000000  0.4537950000000  0.4954680000000 1.0
C      1  0.4892640000000  0.5142730000000  0.5719780000000 1.0
C      1  0.4368580000000  0.4307550000000  0.4990140000000 1.0
C      1  0.5610160000000  0.5726520000000  0.4740240000000 1.0
C      1  0.4656820000000  0.4433090000000  0.4632430000000 1.0
C      1  0.4677120000000  0.5654360000000  0.5325850000000 1.0
C      1  0.5255560000000  0.5798960000000  0.5120830000000 1.0
C      1  0.5355730000000  0.5181500000000  0.5679270000000 1.0
C      1  0.4847970000000  0.5455940000000  0.5189530000000 1.0
C      1  0.5346370000000  0.5766400000000  0.4839410000000 1.0
C      1  0.5790250000000  0.5518020000000  0.4863350000000 1.0
C      1  0.4828890000000  0.4251720000000  0.5324620000000 1.0
C      1  0.5663080000000  0.4714920000000  0.5211420000000 1.0
C      1  0.5391970000000  0.4405080000000  0.4637020000000 1.0
C      1  0.4989500000000  0.5110780000000  0.4260960000000 1.0
C      1  0.5301730000000  0.4906620000000  0.5738900000000 1.0
C      1  0.4263280000000  0.4826410000000  0.5352470000000 1.0
C      1  0.4581970000000  0.4913320000000  0.4443050000000 1.0
C      1  0.4682160000000  0.5597420000000  0.4720110000000 1.0
C      1  0.4619720000000  0.5821130000000  0.4860080000000 1.0
C      1  0.4922890000000  0.4746220000000  0.5055040000000 1.0
C      1  0.5512200000000  0.4406090000000  0.4894720000000 1.0
C      1  0.4660320000000  0.5222860000000  0.5177170000000 1.0
C      1  0.5256780000000  0.5011960000000  0.4273860000000 1.0
C      1  0.5651800000000  0.4934830000000  0.5413280000000 1.0
C      1  0.4825330000000  0.4883140000000  0.4309510000000 1.0
C      1  0.5410520000000  0.5448500000000  0.4383530000000 1.0
C      1  0.4916990000000  0.4596740000000  0.5641610000000 1.0
C      1  0.4261180000000  0.4744860000000  0.4791880000000 1.0
C      1  0.4582280000000  0.4353290000000  0.5427450000000 1.0
C      1  0.5470530000000  0.4636820000000  0.4496840000000 1.0
C      1  0.5129960000000  0.4300690000000  0.4649110000000 1.0
C      1  0.5800620000000  0.5366200000000  0.4618320000000 1.0
C      1  0.5643580000000  0.4803840000000  0.4669330000000 1.0
C      1  0.5039400000000  0.4379620000000  0.5472170000000 1.0
C      1  0.4914480000000  0.5498260000000  0.4873970000000 1.0
C      1  0.4700620000000  0.5042130000000  0.5421770000000 1.0
C      1  0.5323090000000  0.4279630000000  0.5073410000000 1.0
C      1  0.5127940000000  0.4815990000000  0.4887340000000 1.0
C      1  0.4840490000000  0.4191010000000  0.5040210000000 1.0
C      1  0.5645660000000  0.5352440000000  0.5043000000000 1.0
C      1  0.5200790000000  0.5091840000000  0.4925570000000 1.0
C      1  0.4501510000000  0.5188620000000  0.4498730000000 1.0
C      1  0.4681200000000  0.5100930000000  0.4917320000000 1.0
C      1  0.5500460000000  0.4553700000000  0.5397220000000 1.0
C      1  0.4678940000000  0.4812610000000  0.4938670000000 1.0
C      1  0.4523230000000  0.4704020000000  0.4644500000000 1.0
C      1  0.4925010000000  0.5375150000000  0.4352750000000 1.0
C      1  0.5496300000000  0.4764070000000  0.5593360000000 1.0
C      1  0.4413530000000  0.5177230000000  0.4763560000000 1.0
C      1  0.4637920000000  0.4587430000000  0.5580480000000 1.0
C      1  0.4962860000000  0.4925010000000  0.5297690000000 1.0
C      1  0.5321750000000  0.5577110000000  0.5293490000000 1.0
END
