TITL C-260538-3486-1 74.4027788220804 125000 -984.076737226041 0 0 140 (C1) n - 1
REM
REM in /rds/project/t2_vol4/rds-t2-cs072/BORA/CARBON/from-Arr/AIRSS/Generating-Clusters/GAP-ML-2020/Only-C1/SD-CG/HFTN-CG
REM
REM
REM
REM
REM
REM ./C.cell (11c1c37f851c82e70ff6c80c92926a4b)
REM AIRSS Version 0.9.1 bugfix July 2018 build 013d7b7c2542+ Fri, 06 Jul 2018 19:26:36 +0100
REM compiler GCC version 9.3.0
REM options -cpp -mtune=generic -march=x86-64 -g -O0
REM seed -1610471440 1410051268 1092701534 2080829815 330208941 -206197387 1211055156 -390851872 1715316580 -1299739398 416145184 -2046509331 492834964 1733039832 657697442 -573742631 -272738543 -541257325 456153616 1632175881 -774884281 -1889932341 -341241741 -1683878307 1598326849 636062932 1050219335 -254948492 -1620095228 -497349158 -2144973710 502720643 -1077582987
REM
CELL 1.54180   50.00000   50.00000   50.00000   90.00000   90.00000   90.00000
LATT -1
SFAC C  
C      1  0.5625190000000  0.5614500000000  0.4567680000000 1.0
C      1  0.5318120000000  0.5282680000000  0.5596410000000 1.0
C      1  0.5362160000000  0.5704380000000  0.4666160000000 1.0
C      1  0.4643590000000  0.4238930000000  0.5507640000000 1.0
C      1  0.4603420000000  0.4465130000000  0.4841410000000 1.0
C      1  0.5254870000000  0.4993600000000  0.4085260000000 1.0
C      1  0.5078650000000  0.5150860000000  0.6002730000000 1.0
C      1  0.4826020000000  0.5013700000000  0.5985360000000 1.0
C      1  0.4304680000000  0.5698750000000  0.4639630000000 1.0
C      1  0.4667960000000  0.5427840000000  0.5754870000000 1.0
C      1  0.4119320000000  0.5286250000000  0.4388230000000 1.0
C      1  0.4368980000000  0.4677130000000  0.4258430000000 1.0
C      1  0.4907630000000  0.4077450000000  0.4647230000000 1.0
C      1  0.4022810000000  0.4883030000000  0.5054380000000 1.0
C      1  0.5096180000000  0.4744010000000  0.4116000000000 1.0
C      1  0.4715110000000  0.4914670000000  0.4608100000000 1.0
C      1  0.5387380000000  0.4910390000000  0.5299950000000 1.0
C      1  0.5529590000000  0.5053370000000  0.4853530000000 1.0
C      1  0.4464000000000  0.4326780000000  0.5295840000000 1.0
C      1  0.4870740000000  0.5127620000000  0.4509600000000 1.0
C      1  0.4893480000000  0.5640700000000  0.4510350000000 1.0
C      1  0.4889200000000  0.4134730000000  0.5398540000000 1.0
C      1  0.4002320000000  0.5391620000000  0.4951010000000 1.0
C      1  0.4805560000000  0.5814780000000  0.4760020000000 1.0
C      1  0.5721140000000  0.4499830000000  0.4453820000000 1.0
C      1  0.4912640000000  0.4468710000000  0.5858280000000 1.0
C      1  0.5861260000000  0.4965760000000  0.5215900000000 1.0
C      1  0.4455200000000  0.5489310000000  0.5579270000000 1.0
C      1  0.4272200000000  0.5271510000000  0.5600030000000 1.0
C      1  0.5173750000000  0.5848400000000  0.5325290000000 1.0
C      1  0.4182890000000  0.5623120000000  0.4886820000000 1.0
C      1  0.5010760000000  0.5970340000000  0.4908920000000 1.0
C      1  0.4759360000000  0.5622820000000  0.4983240000000 1.0
C      1  0.4474460000000  0.5662170000000  0.5351960000000 1.0
C      1  0.5546740000000  0.4340610000000  0.4935620000000 1.0
C      1  0.4372830000000  0.5155270000000  0.4828460000000 1.0
C      1  0.4243230000000  0.4512210000000  0.5290810000000 1.0
C      1  0.4562070000000  0.5179000000000  0.5043710000000 1.0
C      1  0.5731510000000  0.4437110000000  0.5153990000000 1.0
C      1  0.5341950000000  0.4149540000000  0.5054880000000 1.0
C      1  0.4489240000000  0.5087810000000  0.4069570000000 1.0
C      1  0.4446090000000  0.4909880000000  0.4690760000000 1.0
C      1  0.5794070000000  0.4722950000000  0.5647100000000 1.0
C      1  0.4246440000000  0.5638210000000  0.5175600000000 1.0
C      1  0.5370090000000  0.4180960000000  0.5336890000000 1.0
C      1  0.5399510000000  0.5844660000000  0.5147940000000 1.0
C      1  0.4783150000000  0.4728230000000  0.5944400000000 1.0
C      1  0.5418440000000  0.4171490000000  0.4500260000000 1.0
C      1  0.5854010000000  0.5535980000000  0.5030800000000 1.0
C      1  0.5560300000000  0.4636920000000  0.4251890000000 1.0
C      1  0.5262080000000  0.4984140000000  0.5558440000000 1.0
C      1  0.5333980000000  0.5459690000000  0.4874660000000 1.0
C      1  0.5128820000000  0.5356770000000  0.5816650000000 1.0
C      1  0.5221030000000  0.4720260000000  0.5149910000000 1.0
C      1  0.5792620000000  0.5476620000000  0.4752480000000 1.0
C      1  0.5446340000000  0.5419300000000  0.5148590000000 1.0
C      1  0.4947940000000  0.5941460000000  0.5186050000000 1.0
C      1  0.5309150000000  0.4996990000000  0.6055890000000 1.0
C      1  0.4377240000000  0.5070930000000  0.5767790000000 1.0
C      1  0.5963560000000  0.5183230000000  0.5404410000000 1.0
C      1  0.5009600000000  0.4613340000000  0.5320440000000 1.0
C      1  0.4618420000000  0.4276560000000  0.5063100000000 1.0
C      1  0.4660970000000  0.4387780000000  0.5741810000000 1.0
C      1  0.4387280000000  0.4380870000000  0.4633330000000 1.0
C      1  0.4044460000000  0.4937370000000  0.5328010000000 1.0
C      1  0.5728480000000  0.5200320000000  0.4665150000000 1.0
C      1  0.4824830000000  0.4841510000000  0.5317690000000 1.0
C      1  0.5007220000000  0.5599830000000  0.5424380000000 1.0
C      1  0.4795680000000  0.5364390000000  0.4629050000000 1.0
C      1  0.5569160000000  0.5095680000000  0.5149370000000 1.0
C      1  0.5333820000000  0.4838930000000  0.4501180000000 1.0
C      1  0.5142580000000  0.4180570000000  0.5517210000000 1.0
C      1  0.4076500000000  0.5213790000000  0.5408510000000 1.0
C      1  0.4547910000000  0.5851840000000  0.4598660000000 1.0
C      1  0.4615810000000  0.5172840000000  0.5881820000000 1.0
C      1  0.5619490000000  0.4292790000000  0.4630760000000 1.0
C      1  0.5120380000000  0.4424760000000  0.4760020000000 1.0
C      1  0.4465260000000  0.4434090000000  0.4363200000000 1.0
C      1  0.5558980000000  0.4966230000000  0.5963620000000 1.0
C      1  0.4758310000000  0.5713220000000  0.5257360000000 1.0
C      1  0.5293670000000  0.5478550000000  0.4249330000000 1.0
C      1  0.4567110000000  0.4802950000000  0.4090720000000 1.0
C      1  0.4032640000000  0.5076090000000  0.4567950000000 1.0
C      1  0.5054910000000  0.5202290000000  0.5060600000000 1.0
C      1  0.5769410000000  0.4965770000000  0.5776230000000 1.0
C      1  0.5626740000000  0.5657410000000  0.5222300000000 1.0
C      1  0.4930190000000  0.5514030000000  0.5705630000000 1.0
C      1  0.5607830000000  0.4343010000000  0.5390760000000 1.0
C      1  0.6198010000000  0.4924730000000  0.4855570000000 1.0
C      1  0.5502820000000  0.4948920000000  0.4260880000000 1.0
C      1  0.4817200000000  0.4641760000000  0.4104620000000 1.0
C      1  0.4987280000000  0.4913470000000  0.5066440000000 1.0
C      1  0.5563170000000  0.5442170000000  0.4341930000000 1.0
C      1  0.4461060000000  0.4722540000000  0.4938210000000 1.0
C      1  0.4176750000000  0.4724620000000  0.5473200000000 1.0
C      1  0.5154700000000  0.4368390000000  0.5740980000000 1.0
C      1  0.6000020000000  0.4720430000000  0.4841390000000 1.0
C      1  0.5292200000000  0.5899640000000  0.4883170000000 1.0
C      1  0.5071170000000  0.4156190000000  0.4910560000000 1.0
C      1  0.5347550000000  0.4579710000000  0.4897720000000 1.0
C      1  0.5175720000000  0.5653620000000  0.4438500000000 1.0
C      1  0.5831860000000  0.5214590000000  0.5646990000000 1.0
C      1  0.5190420000000  0.5371480000000  0.5313710000000 1.0
C      1  0.4866800000000  0.4563220000000  0.4743490000000 1.0
C      1  0.4163620000000  0.4447390000000  0.4772360000000 1.0
C      1  0.5660580000000  0.5635450000000  0.5502390000000 1.0
C      1  0.5325340000000  0.4812800000000  0.5819030000000 1.0
C      1  0.6080660000000  0.5099460000000  0.5022050000000 1.0
C      1  0.4899410000000  0.5359460000000  0.4014330000000 1.0
C      1  0.6027160000000  0.5346520000000  0.5163830000000 1.0
C      1  0.5187580000000  0.4343610000000  0.4464010000000 1.0
C      1  0.4262190000000  0.5093520000000  0.4232930000000 1.0
C      1  0.4052200000000  0.5422600000000  0.5226600000000 1.0
C      1  0.4264680000000  0.5531460000000  0.4398700000000 1.0
C      1  0.4176220000000  0.4620500000000  0.5011510000000 1.0
C      1  0.4629820000000  0.5349550000000  0.4058820000000 1.0
C      1  0.5127170000000  0.5024460000000  0.4618780000000 1.0
C      1  0.4535990000000  0.4638740000000  0.5820190000000 1.0
C      1  0.4796240000000  0.5336580000000  0.4934600000000 1.0
C      1  0.4055260000000  0.5112460000000  0.4860290000000 1.0
C      1  0.5156430000000  0.5280040000000  0.4071590000000 1.0
C      1  0.5788940000000  0.4691200000000  0.4648450000000 1.0
C      1  0.5507670000000  0.4780990000000  0.4736490000000 1.0
C      1  0.4911820000000  0.4218830000000  0.4411320000000 1.0
C      1  0.4734680000000  0.4394420000000  0.4264710000000 1.0
C      1  0.4589420000000  0.4918970000000  0.5157890000000 1.0
C      1  0.5889850000000  0.4672450000000  0.5116580000000 1.0
C      1  0.4660590000000  0.5749400000000  0.4356470000000 1.0
C      1  0.5654050000000  0.5179020000000  0.4380170000000 1.0
C      1  0.5262770000000  0.4594850000000  0.4313560000000 1.0
C      1  0.4327100000000  0.4794150000000  0.5712260000000 1.0
C      1  0.4492520000000  0.5564000000000  0.4219710000000 1.0
C      1  0.4242680000000  0.4884020000000  0.4445590000000 1.0
C      1  0.5611880000000  0.5400830000000  0.5629640000000 1.0
C      1  0.5380520000000  0.4533810000000  0.5774270000000 1.0
C      1  0.4860780000000  0.4141860000000  0.5115200000000 1.0
C      1  0.4924860000000  0.4837390000000  0.4789370000000 1.0
C      1  0.5254900000000  0.5191710000000  0.4819490000000 1.0
C      1  0.5624050000000  0.4505980000000  0.5626940000000 1.0
C      1  0.4952980000000  0.4984150000000  0.5534860000000 1.0
END
