TITL C-26385-334-3 213.937626074895 125000 -565.832813780418 0 0 82 (C1) n - 1
REM
REM in /rds/project/t2_vol4/rds-t2-cs072/BORA/CARBON/from-Arr/AIRSS/Generating-Clusters/GAP-ML-2020/Only-C1/SD-CG/HFTN-CG
REM
REM
REM
REM
REM
REM ./C.cell (11c1c37f851c82e70ff6c80c92926a4b)
REM AIRSS Version 0.9.1 bugfix July 2018 build 013d7b7c2542+ Fri, 06 Jul 2018 19:26:36 +0100
REM compiler GCC version 9.3.0
REM options -cpp -mtune=generic -march=x86-64 -g -O0
REM seed -610285901 1361041360 667004827 -872817868 -1644617797 49784577 -139933734 413629653 -1847097862 478694030 -738734820 904464697 1097070899 -569996939 939319193 -26327928 278339282 1571087109 514674229 1974655571 657782575 276160151 -1946905604 1464636783 -1466141069 -1365534021 -1032784249 315624438 1631600164 -1714493992 1447330873 -323699761 1797258225
REM
CELL 1.54180   50.00000   50.00000   50.00000   90.00000   90.00000   90.00000
LATT -1
SFAC C  
C      1  0.4761260000000  0.4746780000000  0.5753330000000 1.0
C      1  0.4828970000000  0.5042520000000  0.5126360000000 1.0
C      1  0.4728220000000  0.5543580000000  0.5506660000000 1.0
C      1  0.4837850000000  0.5763580000000  0.4580240000000 1.0
C      1  0.5069620000000  0.5778550000000  0.5094500000000 1.0
C      1  0.4665360000000  0.5776690000000  0.4802490000000 1.0
C      1  0.5199320000000  0.5074290000000  0.4161350000000 1.0
C      1  0.5003010000000  0.5604000000000  0.5542670000000 1.0
C      1  0.4866380000000  0.4367900000000  0.5539530000000 1.0
C      1  0.4771740000000  0.5771550000000  0.5069640000000 1.0
C      1  0.5161600000000  0.4747870000000  0.5225170000000 1.0
C      1  0.5234050000000  0.4864530000000  0.5721730000000 1.0
C      1  0.4346150000000  0.5171810000000  0.5307200000000 1.0
C      1  0.4752690000000  0.4320880000000  0.4670090000000 1.0
C      1  0.5518030000000  0.4664560000000  0.4508220000000 1.0
C      1  0.5012310000000  0.4875800000000  0.4198100000000 1.0
C      1  0.5540080000000  0.4717300000000  0.4830720000000 1.0
C      1  0.5305200000000  0.4485670000000  0.5407610000000 1.0
C      1  0.4913390000000  0.5202570000000  0.5758860000000 1.0
C      1  0.4896190000000  0.4981350000000  0.4658190000000 1.0
C      1  0.5422480000000  0.4477270000000  0.4953420000000 1.0
C      1  0.4522030000000  0.4908970000000  0.4388910000000 1.0
C      1  0.5421110000000  0.5514910000000  0.5364620000000 1.0
C      1  0.5315450000000  0.5140180000000  0.4760720000000 1.0
C      1  0.5681850000000  0.5198780000000  0.4957240000000 1.0
C      1  0.5550660000000  0.5324030000000  0.4697900000000 1.0
C      1  0.4538710000000  0.4813590000000  0.5578000000000 1.0
C      1  0.5390080000000  0.4262750000000  0.4747210000000 1.0
C      1  0.4974680000000  0.4933360000000  0.5801030000000 1.0
C      1  0.4405110000000  0.5434100000000  0.5192330000000 1.0
C      1  0.5183180000000  0.5687900000000  0.5337490000000 1.0
C      1  0.5335860000000  0.4526870000000  0.4312350000000 1.0
C      1  0.4849390000000  0.4487440000000  0.5776490000000 1.0
C      1  0.5164330000000  0.4105960000000  0.4779250000000 1.0
C      1  0.5086220000000  0.4302400000000  0.5367720000000 1.0
C      1  0.5234650000000  0.5725640000000  0.4856550000000 1.0
C      1  0.4668440000000  0.5289520000000  0.5639090000000 1.0
C      1  0.5369240000000  0.5321710000000  0.5573840000000 1.0
C      1  0.5280760000000  0.5187440000000  0.5060520000000 1.0
C      1  0.4471230000000  0.5575590000000  0.4734960000000 1.0
C      1  0.4794570000000  0.4976370000000  0.4353870000000 1.0
C      1  0.5387870000000  0.4635040000000  0.5646910000000 1.0
C      1  0.4358910000000  0.5404990000000  0.4920270000000 1.0
C      1  0.4695610000000  0.4420900000000  0.5317250000000 1.0
C      1  0.4918640000000  0.4855490000000  0.5296890000000 1.0
C      1  0.4338250000000  0.4696090000000  0.5125160000000 1.0
C      1  0.5414390000000  0.5032780000000  0.5534680000000 1.0
C      1  0.5465750000000  0.4380920000000  0.4495060000000 1.0
C      1  0.5534070000000  0.4479150000000  0.5224500000000 1.0
C      1  0.5077330000000  0.5441810000000  0.4443380000000 1.0
C      1  0.4289610000000  0.4985160000000  0.5097450000000 1.0
C      1  0.4908940000000  0.5379730000000  0.4870750000000 1.0
C      1  0.5550560000000  0.5336600000000  0.4410890000000 1.0
C      1  0.4786370000000  0.5536470000000  0.4414580000000 1.0
C      1  0.4424580000000  0.5145810000000  0.4537260000000 1.0
C      1  0.4995830000000  0.5265260000000  0.5107410000000 1.0
C      1  0.5112270000000  0.5705520000000  0.4602050000000 1.0
C      1  0.4477660000000  0.5092300000000  0.5548350000000 1.0
C      1  0.5514890000000  0.5404980000000  0.5109850000000 1.0
C      1  0.5058110000000  0.4726070000000  0.4707760000000 1.0
C      1  0.4588350000000  0.4647770000000  0.4475230000000 1.0
C      1  0.5609940000000  0.4801650000000  0.5542290000000 1.0
C      1  0.5639770000000  0.4905300000000  0.5042850000000 1.0
C      1  0.4380510000000  0.5126400000000  0.4836770000000 1.0
C      1  0.4872930000000  0.4534100000000  0.4494360000000 1.0
C      1  0.5302730000000  0.5300820000000  0.4276700000000 1.0
C      1  0.4913100000000  0.4183410000000  0.4866190000000 1.0
C      1  0.5054060000000  0.5237730000000  0.4662770000000 1.0
C      1  0.4497380000000  0.4463970000000  0.4692900000000 1.0
C      1  0.4332870000000  0.4520350000000  0.4905890000000 1.0
C      1  0.4545700000000  0.5412700000000  0.4508940000000 1.0
C      1  0.5692290000000  0.4715290000000  0.5276420000000 1.0
C      1  0.5336540000000  0.4845920000000  0.4665040000000 1.0
C      1  0.5107610000000  0.4583520000000  0.4985590000000 1.0
C      1  0.4696510000000  0.4981150000000  0.4876070000000 1.0
C      1  0.5463870000000  0.5563650000000  0.4873420000000 1.0
C      1  0.5367240000000  0.4960710000000  0.5223130000000 1.0
C      1  0.4497250000000  0.4626180000000  0.5356060000000 1.0
C      1  0.5117960000000  0.5388140000000  0.5687890000000 1.0
C      1  0.5064810000000  0.4601210000000  0.4264680000000 1.0
C      1  0.4926980000000  0.4353510000000  0.5114900000000 1.0
C      1  0.4610490000000  0.5624870000000  0.5265290000000 1.0
END
