TITL C-2681980-5594-15 9.58658435461714 125000 -1000.71036691446 0 0 144 (C1) n - 1
REM
REM in /nfs/bkarasulu/CARBON/AIRSS/Generating-Clusters/GAP-ML-2020/Only-C1/SD-CG/HFTN-CG
REM
REM
REM
REM
REM
REM ./C.cell (11c1c37f851c82e70ff6c80c92926a4b)
REM
REM compiler GCC version 9.2.1 20190827 (Red Hat 9.2.1-1)
REM options -cpp -mtune=generic -march=x86-64 -g -O0 -fpre-include=/usr/include/finclude/math-vector-fortran.h
REM seed 1715846246 1927348276 412674881 1008975211 -466480993 -387921568 1711087611 -1982029119 701582983 1994593305 1481048792 -371646230 2060520029 1896439961 -89329618 1893132094 -264010357 -1815659338 129527807 -362372929 670376627 195575757 1126261855 -1318636686 109253508 -909286467 -1647448089 521385528 307347988 1400426523 2082338556 1745197490 944309488
REM
CELL 1.54180   50.00000   50.00000   50.00000   90.00000   90.00000   90.00000
LATT -1
SFAC C  
C      1  0.4247180000000  0.5032010000000  0.4350080000000 1.0
C      1  0.5133970000000  0.3991590000000  0.5074880000000 1.0
C      1  0.5164980000000  0.4383200000000  0.5737480000000 1.0
C      1  0.5654090000000  0.4616200000000  0.4319490000000 1.0
C      1  0.5774320000000  0.4462910000000  0.5289200000000 1.0
C      1  0.4827850000000  0.5970590000000  0.5473530000000 1.0
C      1  0.4653000000000  0.4324360000000  0.5206570000000 1.0
C      1  0.4397030000000  0.5234430000000  0.4874130000000 1.0
C      1  0.5470340000000  0.5833610000000  0.4605160000000 1.0
C      1  0.5525640000000  0.5581330000000  0.4759850000000 1.0
C      1  0.4233860000000  0.4482070000000  0.5404670000000 1.0
C      1  0.4705320000000  0.4347620000000  0.4283150000000 1.0
C      1  0.4810600000000  0.5007070000000  0.4594060000000 1.0
C      1  0.4298050000000  0.4309500000000  0.4557990000000 1.0
C      1  0.5226100000000  0.6070600000000  0.5205600000000 1.0
C      1  0.4497030000000  0.5686160000000  0.5328510000000 1.0
C      1  0.5075310000000  0.4236760000000  0.4920050000000 1.0
C      1  0.5095570000000  0.4600380000000  0.5904890000000 1.0
C      1  0.5018600000000  0.5497110000000  0.5288660000000 1.0
C      1  0.5572660000000  0.4039690000000  0.5337130000000 1.0
C      1  0.4168930000000  0.5024970000000  0.5489670000000 1.0
C      1  0.5264550000000  0.5832890000000  0.5639690000000 1.0
C      1  0.4486390000000  0.5707750000000  0.4672390000000 1.0
C      1  0.4664130000000  0.4459630000000  0.5716160000000 1.0
C      1  0.5523260000000  0.4727820000000  0.5614630000000 1.0
C      1  0.4350290000000  0.4289070000000  0.5230860000000 1.0
C      1  0.5664060000000  0.4882610000000  0.4189980000000 1.0
C      1  0.5540520000000  0.5036700000000  0.4973060000000 1.0
C      1  0.6013620000000  0.4789020000000  0.4924560000000 1.0
C      1  0.5318360000000  0.6151030000000  0.4958120000000 1.0
C      1  0.4985030000000  0.4353100000000  0.4344620000000 1.0
C      1  0.5425810000000  0.4024040000000  0.5108670000000 1.0
C      1  0.4889710000000  0.4273840000000  0.5627840000000 1.0
C      1  0.4122210000000  0.5081260000000  0.4987420000000 1.0
C      1  0.5613820000000  0.4290390000000  0.5452520000000 1.0
C      1  0.5359580000000  0.5130070000000  0.4489480000000 1.0
C      1  0.5266130000000  0.5518130000000  0.5121140000000 1.0
C      1  0.4036990000000  0.4518820000000  0.4982130000000 1.0
C      1  0.5865450000000  0.5454110000000  0.5177610000000 1.0
C      1  0.5376500000000  0.5904860000000  0.5386000000000 1.0
C      1  0.5033600000000  0.5054710000000  0.5863700000000 1.0
C      1  0.4359550000000  0.4849410000000  0.5625330000000 1.0
C      1  0.5241460000000  0.4702730000000  0.4223450000000 1.0
C      1  0.5544050000000  0.5394260000000  0.4503070000000 1.0
C      1  0.4429050000000  0.5925490000000  0.5157350000000 1.0
C      1  0.5485900000000  0.4933750000000  0.4696480000000 1.0
C      1  0.4574710000000  0.4365390000000  0.4522530000000 1.0
C      1  0.4553640000000  0.5866660000000  0.4905000000000 1.0
C      1  0.5338610000000  0.4880520000000  0.5414140000000 1.0
C      1  0.5294850000000  0.4198610000000  0.4705260000000 1.0
C      1  0.5127370000000  0.5648510000000  0.4333760000000 1.0
C      1  0.4994390000000  0.5240520000000  0.3957150000000 1.0
C      1  0.5191350000000  0.4439660000000  0.5114260000000 1.0
C      1  0.5994300000000  0.5214010000000  0.4680510000000 1.0
C      1  0.4888070000000  0.5567570000000  0.5804750000000 1.0
C      1  0.5314560000000  0.4731450000000  0.4797880000000 1.0
C      1  0.5045350000000  0.4844490000000  0.5398130000000 1.0
C      1  0.5834980000000  0.4987380000000  0.4398990000000 1.0
C      1  0.4849060000000  0.4900760000000  0.5694370000000 1.0
C      1  0.5034950000000  0.5315420000000  0.4789940000000 1.0
C      1  0.5066130000000  0.4822600000000  0.4904290000000 1.0
C      1  0.4886890000000  0.3937600000000  0.5193850000000 1.0
C      1  0.4182710000000  0.4274220000000  0.5001230000000 1.0
C      1  0.4316140000000  0.4733530000000  0.4319570000000 1.0
C      1  0.5432140000000  0.4572790000000  0.5020250000000 1.0
C      1  0.4038200000000  0.5065830000000  0.4520380000000 1.0
C      1  0.5087780000000  0.5333650000000  0.5788430000000 1.0
C      1  0.4327970000000  0.5449730000000  0.5323980000000 1.0
C      1  0.5971880000000  0.5184750000000  0.5175090000000 1.0
C      1  0.6034900000000  0.5064620000000  0.4915100000000 1.0
C      1  0.4693500000000  0.4533190000000  0.4748460000000 1.0
C      1  0.5280970000000  0.5999840000000  0.4741850000000 1.0
C      1  0.5225730000000  0.4858680000000  0.5940980000000 1.0
C      1  0.4016630000000  0.4659950000000  0.4735800000000 1.0
C      1  0.5855040000000  0.5033190000000  0.5392440000000 1.0
C      1  0.5349700000000  0.5216100000000  0.5103930000000 1.0
C      1  0.5382100000000  0.4977330000000  0.4211320000000 1.0
C      1  0.5102350000000  0.5298300000000  0.5473480000000 1.0
C      1  0.4531670000000  0.5320040000000  0.5132700000000 1.0
C      1  0.4398410000000  0.4568040000000  0.5623510000000 1.0
C      1  0.4077110000000  0.4940330000000  0.5237110000000 1.0
C      1  0.5857710000000  0.4606220000000  0.4814320000000 1.0
C      1  0.5493420000000  0.4915300000000  0.5850700000000 1.0
C      1  0.4797770000000  0.5344890000000  0.4107770000000 1.0
C      1  0.4006360000000  0.4946510000000  0.4760440000000 1.0
C      1  0.4480880000000  0.5279680000000  0.5710740000000 1.0
C      1  0.5005540000000  0.5392430000000  0.4301520000000 1.0
C      1  0.5207190000000  0.5558450000000  0.4839000000000 1.0
C      1  0.4801150000000  0.4757020000000  0.4165750000000 1.0
C      1  0.4370510000000  0.5303370000000  0.4373780000000 1.0
C      1  0.4063150000000  0.4648270000000  0.5234770000000 1.0
C      1  0.4651740000000  0.5777370000000  0.4442810000000 1.0
C      1  0.4532640000000  0.5435150000000  0.4169760000000 1.0
C      1  0.5166130000000  0.5034420000000  0.3982850000000 1.0
C      1  0.5731270000000  0.4756440000000  0.4577450000000 1.0
C      1  0.4451340000000  0.3913420000000  0.4851550000000 1.0
C      1  0.5410970000000  0.4475060000000  0.4276830000000 1.0
C      1  0.5528280000000  0.4175340000000  0.4880670000000 1.0
C      1  0.4584200000000  0.4813740000000  0.5142790000000 1.0
C      1  0.4915400000000  0.4738950000000  0.4656610000000 1.0
C      1  0.4770690000000  0.4282610000000  0.4923190000000 1.0
C      1  0.5815230000000  0.5259900000000  0.4479890000000 1.0
C      1  0.5035880000000  0.5805480000000  0.4765820000000 1.0
C      1  0.4563430000000  0.4618580000000  0.4207760000000 1.0
C      1  0.4832570000000  0.5826450000000  0.4996840000000 1.0
C      1  0.5662630000000  0.5227430000000  0.5526750000000 1.0
C      1  0.5564740000000  0.5187240000000  0.5805670000000 1.0
C      1  0.5378710000000  0.5402000000000  0.5856410000000 1.0
C      1  0.4944710000000  0.5107410000000  0.5285890000000 1.0
C      1  0.4268080000000  0.4125340000000  0.4779690000000 1.0
C      1  0.5505970000000  0.5668590000000  0.5251700000000 1.0
C      1  0.4541640000000  0.5715480000000  0.4200610000000 1.0
C      1  0.4823940000000  0.4651260000000  0.5839180000000 1.0
C      1  0.5407360000000  0.5662150000000  0.4390980000000 1.0
C      1  0.5704830000000  0.5497010000000  0.5409820000000 1.0
C      1  0.4525390000000  0.4759040000000  0.4874470000000 1.0
C      1  0.4646540000000  0.5075390000000  0.5277700000000 1.0
C      1  0.4933410000000  0.5787830000000  0.4492620000000 1.0
C      1  0.5079400000000  0.5114700000000  0.5009240000000 1.0
C      1  0.5417170000000  0.5654410000000  0.5781440000000 1.0
C      1  0.4165330000000  0.4558200000000  0.4510320000000 1.0
C      1  0.4810860000000  0.4142890000000  0.5384470000000 1.0
C      1  0.5738230000000  0.4748250000000  0.5383400000000 1.0
C      1  0.5005940000000  0.4653490000000  0.5171700000000 1.0
C      1  0.5517680000000  0.4807860000000  0.5173640000000 1.0
C      1  0.4636280000000  0.5476240000000  0.5802420000000 1.0
C      1  0.4244540000000  0.5294830000000  0.5542610000000 1.0
C      1  0.5693410000000  0.5622020000000  0.5016030000000 1.0
C      1  0.5029290000000  0.4786650000000  0.3998540000000 1.0
C      1  0.4683010000000  0.3975020000000  0.4958300000000 1.0
C      1  0.4733340000000  0.4604440000000  0.5243910000000 1.0
C      1  0.5041220000000  0.5196840000000  0.4529620000000 1.0
C      1  0.4947670000000  0.6001940000000  0.5218160000000 1.0
C      1  0.5439380000000  0.4440080000000  0.5637580000000 1.0
C      1  0.4751130000000  0.5566270000000  0.5173300000000 1.0
C      1  0.5001040000000  0.4645390000000  0.4382040000000 1.0
C      1  0.5250890000000  0.4274430000000  0.4428840000000 1.0
C      1  0.4378380000000  0.5433390000000  0.4644650000000 1.0
C      1  0.5374030000000  0.5167140000000  0.5402970000000 1.0
C      1  0.4974070000000  0.5822620000000  0.5681980000000 1.0
C      1  0.4547740000000  0.5962920000000  0.5400080000000 1.0
C      1  0.4562950000000  0.5012580000000  0.4751230000000 1.0
C      1  0.4595790000000  0.5023720000000  0.5596800000000 1.0
C      1  0.5695250000000  0.4419600000000  0.4980250000000 1.0
END
