TITL C-2681978-5050-9 0.0801946120664788 125000 -153.969001574584 0 0 24 (C1) n - 1
REM
REM in /nfs/bkarasulu/CARBON/AIRSS/Generating-Clusters/GAP-ML-2020/Only-C1/SD-CG/HFTN-CG
REM
REM
REM
REM
REM
REM ./C.cell (11c1c37f851c82e70ff6c80c92926a4b)
REM
REM compiler GCC version 9.2.1 20190827 (Red Hat 9.2.1-1)
REM options -cpp -mtune=generic -march=x86-64 -g -O0 -fpre-include=/usr/include/finclude/math-vector-fortran.h
REM seed -1983871154 162299718 86690413 771051002 -1588065902 -797440875 2004506174 1197251243 5313119 -1093636840 -529798030 -150840532 -1478802758 42005326 -1036048379 1060028821 908286297 -1788057238 -109121677 -2027377636 2016990398 693280042 -1635246818 -1209812384 -765444766 266698196 -1234140686 -946206026 -1711159232 -842452132 483240613 -20803439 -104815670
REM
CELL 1.54180   50.00000   50.00000   50.00000   90.00000   90.00000   90.00000
LATT -1
SFAC C  
C      1  0.5163610000000  0.5130980000000  0.4414640000000 1.0
C      1  0.4660650000000  0.5029350000000  0.4810870000000 1.0
C      1  0.5373630000000  0.5358960000000  0.4870730000000 1.0
C      1  0.5407580000000  0.5041290000000  0.5171330000000 1.0
C      1  0.4904800000000  0.4570390000000  0.4978870000000 1.0
C      1  0.5041810000000  0.4907190000000  0.5423350000000 1.0
C      1  0.5233760000000  0.4826900000000  0.5226310000000 1.0
C      1  0.5416980000000  0.5076950000000  0.4889260000000 1.0
C      1  0.4451770000000  0.5099430000000  0.4981910000000 1.0
C      1  0.4895970000000  0.5171420000000  0.4924840000000 1.0
C      1  0.4566220000000  0.5119110000000  0.5234270000000 1.0
C      1  0.4789420000000  0.4776040000000  0.5387820000000 1.0
C      1  0.5165350000000  0.4685710000000  0.4983200000000 1.0
C      1  0.5364500000000  0.5487940000000  0.5119150000000 1.0
C      1  0.4838090000000  0.5240450000000  0.5187270000000 1.0
C      1  0.4682540000000  0.4798050000000  0.4653140000000 1.0
C      1  0.5298400000000  0.5280830000000  0.5290810000000 1.0
C      1  0.5189070000000  0.5378280000000  0.4364660000000 1.0
C      1  0.5151090000000  0.4892670000000  0.4527800000000 1.0
C      1  0.5041860000000  0.5207770000000  0.5396290000000 1.0
C      1  0.4787850000000  0.4554150000000  0.5227390000000 1.0
C      1  0.4558450000000  0.4933940000000  0.5430690000000 1.0
C      1  0.5257990000000  0.4861800000000  0.4769880000000 1.0
C      1  0.4758630000000  0.4570380000000  0.4735530000000 1.0
END
