TITL C-2681973-2297-5 264.346330259807 125000 -890.831725912545 0 0 129 (C1) n - 1
REM
REM in /nfs/bkarasulu/CARBON/AIRSS/Generating-Clusters/GAP-ML-2020/Only-C1/SD-CG/HFTN-CG
REM
REM
REM
REM
REM
REM ./C.cell (11c1c37f851c82e70ff6c80c92926a4b)
REM
REM compiler GCC version 9.2.1 20190827 (Red Hat 9.2.1-1)
REM options -cpp -mtune=generic -march=x86-64 -g -O0 -fpre-include=/usr/include/finclude/math-vector-fortran.h
REM seed -1831677736 -615553120 -1022367426 -1754229966 509128383 565097619 317464241 -1989984157 -2087889146 -1431400080 -1807965267 -1479716234 -1628788828 1250374862 -852643021 -2085090792 376873191 -1424471241 97217638 511595127 -2072047870 2108743972 2134035658 781729909 -1382186954 -425235586 1726332403 1542402265 1973718210 1252873676 -1933369840 -290138919 1182972793
REM
CELL 1.54180   50.00000   50.00000   50.00000   90.00000   90.00000   90.00000
LATT -1
SFAC C  
C      1  0.5093770000000  0.5928330000000  0.5230760000000 1.0
C      1  0.5227120000000  0.5326500000000  0.5843980000000 1.0
C      1  0.4652540000000  0.4390610000000  0.5782100000000 1.0
C      1  0.5625310000000  0.5645810000000  0.4620710000000 1.0
C      1  0.5375350000000  0.4384450000000  0.5627710000000 1.0
C      1  0.5051940000000  0.5399880000000  0.4476560000000 1.0
C      1  0.4315090000000  0.5322220000000  0.5481030000000 1.0
C      1  0.4091820000000  0.4861420000000  0.4876600000000 1.0
C      1  0.5192400000000  0.4492730000000  0.4943880000000 1.0
C      1  0.4310390000000  0.5064210000000  0.5314720000000 1.0
C      1  0.4511970000000  0.4713940000000  0.4257300000000 1.0
C      1  0.5245820000000  0.5530780000000  0.5631490000000 1.0
C      1  0.5438250000000  0.4095830000000  0.4922350000000 1.0
C      1  0.4075650000000  0.5407580000000  0.5059830000000 1.0
C      1  0.4373180000000  0.5727050000000  0.5187010000000 1.0
C      1  0.5589350000000  0.4198550000000  0.5148520000000 1.0
C      1  0.4113410000000  0.4603440000000  0.5015630000000 1.0
C      1  0.4577440000000  0.5575020000000  0.4496800000000 1.0
C      1  0.4270960000000  0.4419980000000  0.5500650000000 1.0
C      1  0.4892240000000  0.5062640000000  0.4038700000000 1.0
C      1  0.5100870000000  0.4533050000000  0.4465240000000 1.0
C      1  0.4503760000000  0.4263660000000  0.5551050000000 1.0
C      1  0.4288980000000  0.4656340000000  0.5668780000000 1.0
C      1  0.5589880000000  0.4807740000000  0.4250940000000 1.0
C      1  0.4741250000000  0.5817020000000  0.4413470000000 1.0
C      1  0.5376430000000  0.5495540000000  0.4200760000000 1.0
C      1  0.4872180000000  0.5021560000000  0.5919670000000 1.0
C      1  0.4497980000000  0.5361830000000  0.5708700000000 1.0
C      1  0.4895910000000  0.4951330000000  0.4401710000000 1.0
C      1  0.5287420000000  0.5668490000000  0.4949090000000 1.0
C      1  0.5590760000000  0.4549020000000  0.4380830000000 1.0
C      1  0.5741100000000  0.4831430000000  0.5585760000000 1.0
C      1  0.4610910000000  0.4906870000000  0.5914870000000 1.0
C      1  0.4806390000000  0.4763210000000  0.4812000000000 1.0
C      1  0.5165290000000  0.5945900000000  0.4679290000000 1.0
C      1  0.4818350000000  0.5242020000000  0.4817730000000 1.0
C      1  0.4160630000000  0.5636740000000  0.4856330000000 1.0
C      1  0.5291250000000  0.5257340000000  0.4637550000000 1.0
C      1  0.4473880000000  0.5123330000000  0.5832540000000 1.0
C      1  0.4479540000000  0.5111780000000  0.4543160000000 1.0
C      1  0.5804760000000  0.5549010000000  0.4816460000000 1.0
C      1  0.4867780000000  0.5235000000000  0.4293400000000 1.0
C      1  0.5546600000000  0.5408510000000  0.4454780000000 1.0
C      1  0.4659810000000  0.4137810000000  0.5338930000000 1.0
C      1  0.5307340000000  0.5323730000000  0.3999660000000 1.0
C      1  0.5490720000000  0.4662020000000  0.5586370000000 1.0
C      1  0.5042880000000  0.5856980000000  0.4941090000000 1.0
C      1  0.4863980000000  0.4624050000000  0.5424870000000 1.0
C      1  0.4197080000000  0.4824490000000  0.5450430000000 1.0
C      1  0.5015820000000  0.5866300000000  0.4439500000000 1.0
C      1  0.5525620000000  0.5848280000000  0.5035900000000 1.0
C      1  0.5327180000000  0.5055040000000  0.5838360000000 1.0
C      1  0.5797790000000  0.4945270000000  0.5334060000000 1.0
C      1  0.5963670000000  0.4791230000000  0.4536620000000 1.0
C      1  0.5247070000000  0.5343040000000  0.5391460000000 1.0
C      1  0.5452990000000  0.5274210000000  0.5188070000000 1.0
C      1  0.4855660000000  0.5079100000000  0.5348410000000 1.0
C      1  0.5105460000000  0.4772640000000  0.4880990000000 1.0
C      1  0.5374870000000  0.5879040000000  0.5285340000000 1.0
C      1  0.5146850000000  0.4050580000000  0.5275110000000 1.0
C      1  0.4452580000000  0.4460170000000  0.4398150000000 1.0
C      1  0.4221870000000  0.4515780000000  0.4568140000000 1.0
C      1  0.5350470000000  0.4516890000000  0.5188560000000 1.0
C      1  0.4679970000000  0.4311330000000  0.5079800000000 1.0
C      1  0.4912730000000  0.5807030000000  0.5403490000000 1.0
C      1  0.4749640000000  0.4996870000000  0.4649830000000 1.0
C      1  0.5521600000000  0.4881020000000  0.4887320000000 1.0
C      1  0.4903820000000  0.4043550000000  0.5388870000000 1.0
C      1  0.5357300000000  0.4407520000000  0.4479840000000 1.0
C      1  0.4328380000000  0.5526760000000  0.4667860000000 1.0
C      1  0.4942310000000  0.5298760000000  0.5911940000000 1.0
C      1  0.5088370000000  0.4906950000000  0.5774020000000 1.0
C      1  0.4983110000000  0.5320340000000  0.5275440000000 1.0
C      1  0.5794110000000  0.5237070000000  0.4477780000000 1.0
C      1  0.5370050000000  0.4315530000000  0.4745010000000 1.0
C      1  0.4363870000000  0.5253600000000  0.4787160000000 1.0
C      1  0.4958680000000  0.5661740000000  0.5642180000000 1.0
C      1  0.4801980000000  0.4039170000000  0.4582950000000 1.0
C      1  0.5186650000000  0.3984110000000  0.4989660000000 1.0
C      1  0.4748410000000  0.4836240000000  0.4155000000000 1.0
C      1  0.5736780000000  0.5660330000000  0.5072060000000 1.0
C      1  0.4208090000000  0.5509830000000  0.5300760000000 1.0
C      1  0.4942350000000  0.4324030000000  0.4902970000000 1.0
C      1  0.4162450000000  0.5129350000000  0.5002380000000 1.0
C      1  0.5992800000000  0.5047640000000  0.5184870000000 1.0
C      1  0.4139480000000  0.4586500000000  0.5293390000000 1.0
C      1  0.4811010000000  0.5570050000000  0.5281760000000 1.0
C      1  0.4604030000000  0.5045950000000  0.5188530000000 1.0
C      1  0.5652580000000  0.4475950000000  0.5099350000000 1.0
C      1  0.4232250000000  0.4409800000000  0.4833430000000 1.0
C      1  0.5456660000000  0.5666430000000  0.5461960000000 1.0
C      1  0.5323800000000  0.4882380000000  0.4184520000000 1.0
C      1  0.5441590000000  0.5845010000000  0.4743470000000 1.0
C      1  0.5331030000000  0.4770470000000  0.5344980000000 1.0
C      1  0.4774720000000  0.5484540000000  0.5773680000000 1.0
C      1  0.5641470000000  0.5506030000000  0.5292110000000 1.0
C      1  0.4920100000000  0.4324170000000  0.5854640000000 1.0
C      1  0.5188790000000  0.5071080000000  0.4007970000000 1.0
C      1  0.5512950000000  0.4974350000000  0.5179510000000 1.0
C      1  0.5152610000000  0.5628260000000  0.4330840000000 1.0
C      1  0.4336290000000  0.4902850000000  0.4409390000000 1.0
C      1  0.4629850000000  0.4284960000000  0.4579250000000 1.0
C      1  0.4626150000000  0.5587630000000  0.5079780000000 1.0
C      1  0.4645150000000  0.4791570000000  0.5049400000000 1.0
C      1  0.5548500000000  0.4898610000000  0.5770400000000 1.0
C      1  0.5736070000000  0.4641760000000  0.4871440000000 1.0
C      1  0.4516320000000  0.4645590000000  0.5836610000000 1.0
C      1  0.5292690000000  0.5362640000000  0.4918870000000 1.0
C      1  0.4807410000000  0.5701170000000  0.4887210000000 1.0
C      1  0.5292640000000  0.4939630000000  0.4705940000000 1.0
C      1  0.4483170000000  0.4283950000000  0.4851320000000 1.0
C      1  0.5156700000000  0.4819910000000  0.4422250000000 1.0
C      1  0.5987960000000  0.4828500000000  0.4817040000000 1.0
C      1  0.4219870000000  0.5863140000000  0.5002160000000 1.0
C      1  0.4828520000000  0.5489410000000  0.4664430000000 1.0
C      1  0.6021840000000  0.5088180000000  0.4913650000000 1.0
C      1  0.5037560000000  0.5263150000000  0.5000690000000 1.0
C      1  0.4859280000000  0.4480590000000  0.4656150000000 1.0
C      1  0.5032020000000  0.4848460000000  0.5458950000000 1.0
C      1  0.5365040000000  0.4252630000000  0.5357480000000 1.0
C      1  0.4598190000000  0.5318700000000  0.4371670000000 1.0
C      1  0.4158850000000  0.4788530000000  0.4598110000000 1.0
C      1  0.5925870000000  0.5303730000000  0.4726890000000 1.0
C      1  0.4971730000000  0.4041060000000  0.4792100000000 1.0
C      1  0.5794510000000  0.4560880000000  0.4575290000000 1.0
C      1  0.5172550000000  0.4325390000000  0.5812690000000 1.0
C      1  0.4587990000000  0.5285800000000  0.4987550000000 1.0
C      1  0.5814170000000  0.4969910000000  0.4374390000000 1.0
C      1  0.4700960000000  0.4577590000000  0.5217040000000 1.0
END
