TITL C-26367-8133-2 -216.416004784154 125000 -285.625117125328 0 0 43 (C1) n - 1
REM
REM in /rds/project/t2_vol4/rds-t2-cs072/BORA/CARBON/from-Arr/AIRSS/Generating-Clusters/GAP-ML-2020/Only-C1/SD-CG/HFTN-CG
REM
REM
REM
REM
REM
REM ./C.cell (11c1c37f851c82e70ff6c80c92926a4b)
REM AIRSS Version 0.9.1 bugfix July 2018 build 013d7b7c2542+ Fri, 06 Jul 2018 19:26:36 +0100
REM compiler GCC version 9.3.0
REM options -cpp -mtune=generic -march=x86-64 -g -O0
REM seed 641985516 2024909969 -488007459 1442753690 1049833180 -2022848220 -2065298840 82044723 276506527 77207567 1294119982 -1245762958 88235012 -1251473318 -986827938 1652984934 -682114952 485589532 170561154 2064859002 -1755134898 -1556073479 -1858467327 990496651 833649139 1240674415 2011593524 103901722 -412688892 -1947048373 -1568826307 1244935076 775006247
REM
CELL 1.54180   50.00000   50.00000   50.00000   90.00000   90.00000   90.00000
LATT -1
SFAC C  
C      1  0.5146150000000  0.5239570000000  0.5541330000000 1.0
C      1  0.4926940000000  0.4634120000000  0.4869660000000 1.0
C      1  0.4379630000000  0.4902110000000  0.4962880000000 1.0
C      1  0.4710250000000  0.5110370000000  0.4789310000000 1.0
C      1  0.4720570000000  0.4549040000000  0.5061960000000 1.0
C      1  0.5074010000000  0.5231730000000  0.4476090000000 1.0
C      1  0.5292030000000  0.4302080000000  0.5233360000000 1.0
C      1  0.4532630000000  0.4664790000000  0.4643820000000 1.0
C      1  0.5196960000000  0.4512920000000  0.4810110000000 1.0
C      1  0.5003980000000  0.4701880000000  0.4442800000000 1.0
C      1  0.5259230000000  0.4581770000000  0.4549940000000 1.0
C      1  0.5232360000000  0.5089080000000  0.5306710000000 1.0
C      1  0.5001720000000  0.5531940000000  0.5336190000000 1.0
C      1  0.5266040000000  0.5326480000000  0.5003240000000 1.0
C      1  0.5159610000000  0.4687460000000  0.5481760000000 1.0
C      1  0.4842380000000  0.5338120000000  0.4604950000000 1.0
C      1  0.4715450000000  0.5477730000000  0.5308840000000 1.0
C      1  0.5157670000000  0.5515050000000  0.5551270000000 1.0
C      1  0.4867490000000  0.5643240000000  0.4916300000000 1.0
C      1  0.4794290000000  0.4598520000000  0.4592510000000 1.0
C      1  0.4958760000000  0.4947460000000  0.4850580000000 1.0
C      1  0.5482300000000  0.5224910000000  0.4850750000000 1.0
C      1  0.5095060000000  0.4959800000000  0.4568570000000 1.0
C      1  0.5478010000000  0.4742050000000  0.5090040000000 1.0
C      1  0.4755730000000  0.5031570000000  0.5523140000000 1.0
C      1  0.4811860000000  0.4530160000000  0.5331790000000 1.0
C      1  0.5495860000000  0.4921650000000  0.4866530000000 1.0
C      1  0.5109710000000  0.5554810000000  0.5069260000000 1.0
C      1  0.4940080000000  0.5136330000000  0.5704380000000 1.0
C      1  0.4472560000000  0.4630880000000  0.4943460000000 1.0
C      1  0.5076960000000  0.5123400000000  0.5068980000000 1.0
C      1  0.4484890000000  0.4940310000000  0.4675910000000 1.0
C      1  0.5518900000000  0.5345190000000  0.4598490000000 1.0
C      1  0.5347990000000  0.4840270000000  0.5330120000000 1.0
C      1  0.4625970000000  0.5206050000000  0.5316070000000 1.0
C      1  0.5369670000000  0.4827250000000  0.4626850000000 1.0
C      1  0.4870000000000  0.4765600000000  0.5501170000000 1.0
C      1  0.5095440000000  0.4433580000000  0.5353860000000 1.0
C      1  0.4811310000000  0.5606570000000  0.4648410000000 1.0
C      1  0.5383780000000  0.4468580000000  0.5024560000000 1.0
C      1  0.4657010000000  0.5641600000000  0.5091550000000 1.0
C      1  0.5329290000000  0.5371520000000  0.4424590000000 1.0
C      1  0.4549470000000  0.5112490000000  0.5057890000000 1.0
END
