TITL C-260491-6834-2 -12.6710486247244 125000 -217.191875431348 0 0 34 (C1) n - 1
REM
REM in /rds/project/t2_vol4/rds-t2-cs072/BORA/CARBON/from-Arr/AIRSS/Generating-Clusters/GAP-ML-2020/Only-C1/SD-CG/HFTN-CG
REM
REM
REM
REM
REM
REM ./C.cell (11c1c37f851c82e70ff6c80c92926a4b)
REM AIRSS Version 0.9.1 bugfix July 2018 build 013d7b7c2542+ Fri, 06 Jul 2018 19:26:36 +0100
REM compiler GCC version 9.3.0
REM options -cpp -mtune=generic -march=x86-64 -g -O0
REM seed -1193517113 -823538417 -307728600 -307557743 1917095267 155362737 -586541872 1362332743 -516920696 1891201667 -1297401058 1614272191 1068155538 -1244098397 552509100 -2050095734 1071726896 1086848337 -1176007444 818009830 -1793618932 -501836179 -789232491 1813760961 -1145872499 741668736 -497957972 2003619354 -506693511 255188305 -931883675 -2080067817 -171141650
REM
CELL 1.54180   50.00000   50.00000   50.00000   90.00000   90.00000   90.00000
LATT -1
SFAC C  
C      1  0.4741820000000  0.4565710000000  0.4915870000000 1.0
C      1  0.5199010000000  0.4722470000000  0.4541830000000 1.0
C      1  0.4962940000000  0.4488730000000  0.5048230000000 1.0
C      1  0.4965890000000  0.4867560000000  0.4582140000000 1.0
C      1  0.5394910000000  0.4976930000000  0.4602140000000 1.0
C      1  0.5152440000000  0.5064940000000  0.4726660000000 1.0
C      1  0.4753370000000  0.4819030000000  0.4792290000000 1.0
C      1  0.4769150000000  0.4723380000000  0.5462720000000 1.0
C      1  0.5526640000000  0.4841180000000  0.4796520000000 1.0
C      1  0.4987350000000  0.4906160000000  0.5466110000000 1.0
C      1  0.5237840000000  0.4797900000000  0.5489850000000 1.0
C      1  0.4490530000000  0.5223410000000  0.4759160000000 1.0
C      1  0.4746420000000  0.5019620000000  0.4451890000000 1.0
C      1  0.4721120000000  0.5278560000000  0.4589040000000 1.0
C      1  0.5153380000000  0.5540460000000  0.5150170000000 1.0
C      1  0.4755700000000  0.4601260000000  0.5210030000000 1.0
C      1  0.4658070000000  0.5090180000000  0.5209220000000 1.0
C      1  0.4929320000000  0.5253500000000  0.4805920000000 1.0
C      1  0.4537620000000  0.4958480000000  0.4650540000000 1.0
C      1  0.4844080000000  0.5015890000000  0.4991290000000 1.0
C      1  0.5453330000000  0.4907000000000  0.5349120000000 1.0
C      1  0.5118880000000  0.5297540000000  0.5293260000000 1.0
C      1  0.4674430000000  0.5497060000000  0.5092810000000 1.0
C      1  0.5142910000000  0.4931270000000  0.5007330000000 1.0
C      1  0.5212060000000  0.4633480000000  0.5027050000000 1.0
C      1  0.4585240000000  0.4823350000000  0.5282850000000 1.0
C      1  0.5481690000000  0.5300720000000  0.5017470000000 1.0
C      1  0.5420360000000  0.5549370000000  0.5031020000000 1.0
C      1  0.5322400000000  0.5103630000000  0.5171140000000 1.0
C      1  0.5370590000000  0.4650570000000  0.5289060000000 1.0
C      1  0.4930890000000  0.5487120000000  0.4987270000000 1.0
C      1  0.5344740000000  0.4619460000000  0.4779140000000 1.0
C      1  0.4898230000000  0.5161930000000  0.5393140000000 1.0
C      1  0.4516640000000  0.5282160000000  0.5037720000000 1.0
END
