TITL C-260509-7927-1 -0.171528850887164 125000 -474.267401526297 0 0 70 (C1) n - 1
REM
REM in /rds/project/t2_vol4/rds-t2-cs072/BORA/CARBON/from-Arr/AIRSS/Generating-Clusters/GAP-ML-2020/Only-C1/SD-CG/HFTN-CG
REM
REM
REM
REM
REM
REM ./C.cell (11c1c37f851c82e70ff6c80c92926a4b)
REM AIRSS Version 0.9.1 bugfix July 2018 build 013d7b7c2542+ Fri, 06 Jul 2018 19:26:36 +0100
REM compiler GCC version 9.3.0
REM options -cpp -mtune=generic -march=x86-64 -g -O0
REM seed 2019594415 91664865 -543613592 634224061 -1980207342 -189074054 703656299 1657720646 -2024706334 -1350702037 -649754936 1172413389 377801288 -1390826407 271098380 -691051707 780581920 -301897026 680292428 -66960336 -204152284 -191625993 -73519060 1238384932 -552413512 -298390318 -1578563338 867624278 1715081192 450293397 -727763890 -1228310864 -1283274076
REM
CELL 1.54180   50.00000   50.00000   50.00000   90.00000   90.00000   90.00000
LATT -1
SFAC C  
C      1  0.5602600000000  0.5620470000000  0.5171600000000 1.0
C      1  0.4365290000000  0.5110460000000  0.5459060000000 1.0
C      1  0.5596640000000  0.4793810000000  0.4743220000000 1.0
C      1  0.4405360000000  0.4491740000000  0.5051160000000 1.0
C      1  0.4995240000000  0.4771280000000  0.5662490000000 1.0
C      1  0.5434580000000  0.5315310000000  0.5483710000000 1.0
C      1  0.4233600000000  0.4872070000000  0.5424270000000 1.0
C      1  0.4392310000000  0.5008230000000  0.4304070000000 1.0
C      1  0.5786520000000  0.5263620000000  0.4857550000000 1.0
C      1  0.4616630000000  0.4620520000000  0.5449700000000 1.0
C      1  0.4671250000000  0.5078590000000  0.5506730000000 1.0
C      1  0.5232260000000  0.5522710000000  0.5432350000000 1.0
C      1  0.5335090000000  0.4582160000000  0.5374270000000 1.0
C      1  0.4503400000000  0.5542430000000  0.4844570000000 1.0
C      1  0.4520210000000  0.5312550000000  0.4680290000000 1.0
C      1  0.4380310000000  0.5223940000000  0.5195240000000 1.0
C      1  0.5271560000000  0.5147260000000  0.4859330000000 1.0
C      1  0.4411670000000  0.5069670000000  0.4578900000000 1.0
C      1  0.5350330000000  0.4796510000000  0.4556180000000 1.0
C      1  0.4736730000000  0.5705720000000  0.4802070000000 1.0
C      1  0.5176270000000  0.4982610000000  0.4378280000000 1.0
C      1  0.4761520000000  0.5049870000000  0.5197830000000 1.0
C      1  0.4506010000000  0.4575570000000  0.4796590000000 1.0
C      1  0.4782840000000  0.5540800000000  0.5222090000000 1.0
C      1  0.5658930000000  0.4838440000000  0.5158540000000 1.0
C      1  0.5139200000000  0.4882630000000  0.4785210000000 1.0
C      1  0.5349330000000  0.4522050000000  0.4464510000000 1.0
C      1  0.4938900000000  0.5647470000000  0.4606960000000 1.0
C      1  0.5114040000000  0.5029720000000  0.5665670000000 1.0
C      1  0.4843350000000  0.4464860000000  0.5348340000000 1.0
C      1  0.5082440000000  0.4555580000000  0.5505440000000 1.0
C      1  0.5361180000000  0.5383540000000  0.4642050000000 1.0
C      1  0.5740430000000  0.4986620000000  0.4908360000000 1.0
C      1  0.4955310000000  0.5469750000000  0.5466840000000 1.0
C      1  0.4862800000000  0.5290000000000  0.5037340000000 1.0
C      1  0.4535470000000  0.4865630000000  0.4788410000000 1.0
C      1  0.5200260000000  0.4319420000000  0.4903630000000 1.0
C      1  0.4800250000000  0.5233060000000  0.4741680000000 1.0
C      1  0.5644040000000  0.5365610000000  0.4642690000000 1.0
C      1  0.5577510000000  0.4628540000000  0.4977880000000 1.0
C      1  0.5337080000000  0.4512260000000  0.5082440000000 1.0
C      1  0.5293170000000  0.4307540000000  0.4642320000000 1.0
C      1  0.4887650000000  0.4579620000000  0.5078130000000 1.0
C      1  0.5200200000000  0.5651850000000  0.4723440000000 1.0
C      1  0.5658390000000  0.5376690000000  0.5330860000000 1.0
C      1  0.4413710000000  0.4715630000000  0.5249120000000 1.0
C      1  0.5790510000000  0.5429620000000  0.5093690000000 1.0
C      1  0.4499140000000  0.5470660000000  0.5130180000000 1.0
C      1  0.5145530000000  0.5219320000000  0.5088950000000 1.0
C      1  0.4883790000000  0.4843340000000  0.4411100000000 1.0
C      1  0.4739680000000  0.4438100000000  0.4694150000000 1.0
C      1  0.4842080000000  0.4945040000000  0.4701400000000 1.0
C      1  0.4754880000000  0.4218230000000  0.5169930000000 1.0
C      1  0.5162040000000  0.5750980000000  0.4994660000000 1.0
C      1  0.4510330000000  0.4951320000000  0.5074050000000 1.0
C      1  0.4490300000000  0.4243820000000  0.5125990000000 1.0
C      1  0.5331250000000  0.5677810000000  0.5208940000000 1.0
C      1  0.4931660000000  0.5378550000000  0.4520720000000 1.0
C      1  0.4903970000000  0.4323590000000  0.4921950000000 1.0
C      1  0.5112310000000  0.4380250000000  0.4423070000000 1.0
C      1  0.4876870000000  0.5758320000000  0.5044160000000 1.0
C      1  0.5380130000000  0.5048330000000  0.5558450000000 1.0
C      1  0.4904650000000  0.5231070000000  0.5602980000000 1.0
C      1  0.4645640000000  0.4938320000000  0.4285170000000 1.0
C      1  0.5047320000000  0.4960390000000  0.5212440000000 1.0
C      1  0.4883540000000  0.4535900000000  0.4474410000000 1.0
C      1  0.5490050000000  0.4823780000000  0.5398370000000 1.0
C      1  0.4723050000000  0.4814490000000  0.5612720000000 1.0
C      1  0.5115810000000  0.4741440000000  0.5037420000000 1.0
C      1  0.5173630000000  0.5252910000000  0.4433690000000 1.0
END
