TITL C-2681592-4431-8 -0.0130420928819542 125000 -276.682633045434 0 0 42 (C1) n - 1
REM
REM in /nfs/bkarasulu/CARBON/AIRSS/Generating-Clusters/GAP-ML-2020/Only-C1/SD-CG/HFTN-CG
REM
REM
REM
REM
REM
REM ./C.cell (11c1c37f851c82e70ff6c80c92926a4b)
REM
REM compiler GCC version 9.2.1 20190827 (Red Hat 9.2.1-1)
REM options -cpp -mtune=generic -march=x86-64 -g -O0 -fpre-include=/usr/include/finclude/math-vector-fortran.h
REM seed 681341754 -2044904436 -1339071982 -1925839029 778798398 638137999 -588864367 -836616309 -837214003 1140528528 -987572025 -337404416 87780450 87709695 1237909530 -106203244 -1447562701 -21410466 -1862873803 -1093449829 438199209 1370942629 1134095839 -1346703516 -207190001 -209279616 -1322493899 -375376905 1333406200 -67074665 2010729828 -492306055 -342282170
REM
CELL 1.54180   50.00000   50.00000   50.00000   90.00000   90.00000   90.00000
LATT -1
SFAC C  
C      1  0.4241420000000  0.4912580000000  0.5140830000000 1.0
C      1  0.4838970000000  0.5284930000000  0.4585160000000 1.0
C      1  0.4886500000000  0.4663560000000  0.5515850000000 1.0
C      1  0.4700410000000  0.5064460000000  0.5122980000000 1.0
C      1  0.5162360000000  0.5339930000000  0.5231710000000 1.0
C      1  0.5549870000000  0.5082660000000  0.5206320000000 1.0
C      1  0.5183780000000  0.4473070000000  0.5031560000000 1.0
C      1  0.4867240000000  0.5512490000000  0.4947200000000 1.0
C      1  0.4510710000000  0.5031180000000  0.5543140000000 1.0
C      1  0.4955560000000  0.5086830000000  0.5661370000000 1.0
C      1  0.4836920000000  0.4845430000000  0.4404400000000 1.0
C      1  0.4429470000000  0.5098340000000  0.5285480000000 1.0
C      1  0.5337140000000  0.5172410000000  0.5386900000000 1.0
C      1  0.5165720000000  0.4719670000000  0.5503190000000 1.0
C      1  0.4801500000000  0.4991530000000  0.4650870000000 1.0
C      1  0.5246910000000  0.4811260000000  0.4341520000000 1.0
C      1  0.4958060000000  0.4369220000000  0.5128440000000 1.0
C      1  0.4744800000000  0.4910820000000  0.5611010000000 1.0
C      1  0.5309090000000  0.5394930000000  0.4996310000000 1.0
C      1  0.4880680000000  0.5323750000000  0.5167160000000 1.0
C      1  0.4454550000000  0.5324020000000  0.4863350000000 1.0
C      1  0.4353210000000  0.4834290000000  0.4925780000000 1.0
C      1  0.5752900000000  0.4899980000000  0.5278750000000 1.0
C      1  0.5487630000000  0.5181220000000  0.4940280000000 1.0
C      1  0.4551770000000  0.5033160000000  0.4835240000000 1.0
C      1  0.5290590000000  0.4663300000000  0.5237110000000 1.0
C      1  0.4393260000000  0.5357730000000  0.5134790000000 1.0
C      1  0.4854780000000  0.4829040000000  0.5153600000000 1.0
C      1  0.5574990000000  0.4718000000000  0.5252700000000 1.0
C      1  0.5444070000000  0.5053470000000  0.4684420000000 1.0
C      1  0.5181860000000  0.4625450000000  0.4778110000000 1.0
C      1  0.5117890000000  0.4890090000000  0.5094540000000 1.0
C      1  0.5106590000000  0.5376960000000  0.4561720000000 1.0
C      1  0.5125710000000  0.5495950000000  0.4815040000000 1.0
C      1  0.4674890000000  0.5455390000000  0.4751010000000 1.0
C      1  0.5013940000000  0.4852740000000  0.4826480000000 1.0
C      1  0.4816900000000  0.4560890000000  0.5264720000000 1.0
C      1  0.4994160000000  0.4718770000000  0.4248060000000 1.0
C      1  0.5329540000000  0.5053510000000  0.4249070000000 1.0
C      1  0.5196210000000  0.4997480000000  0.5560130000000 1.0
C      1  0.5326720000000  0.5216450000000  0.4473190000000 1.0
C      1  0.5350690000000  0.4773050000000  0.4610530000000 1.0
END
