TITL C-260540-2328-6 0.0140704570384196 125000 -225.659131118692 0 0 35 (C1) n - 1
REM
REM in /rds/project/t2_vol4/rds-t2-cs072/BORA/CARBON/from-Arr/AIRSS/Generating-Clusters/GAP-ML-2020/Only-C1/SD-CG/HFTN-CG
REM
REM
REM
REM
REM
REM ./C.cell (11c1c37f851c82e70ff6c80c92926a4b)
REM AIRSS Version 0.9.1 bugfix July 2018 build 013d7b7c2542+ Fri, 06 Jul 2018 19:26:36 +0100
REM compiler GCC version 9.3.0
REM options -cpp -mtune=generic -march=x86-64 -g -O0
REM seed -1560166995 -1832416019 1533562562 -218548149 -1956295201 258552669 -1535497253 -1651113564 318129379 515482269 -2061788120 1386377979 738409546 -742071827 501254794 -1785240175 -1334631642 1186705695 -1835867276 1274667981 1854366296 466527038 1567008207 547412571 -1969408217 -1196721356 -531363721 1061819887 1047477176 1475347957 620559182 -894665729 -944654604
REM
CELL 1.54180   50.00000   50.00000   50.00000   90.00000   90.00000   90.00000
LATT -1
SFAC C  
C      1  0.5042110000000  0.5151700000000  0.5481430000000 1.0
C      1  0.4693580000000  0.4825520000000  0.4853920000000 1.0
C      1  0.4767950000000  0.4826950000000  0.5328140000000 1.0
C      1  0.5237950000000  0.5300010000000  0.5315200000000 1.0
C      1  0.4498260000000  0.5037930000000  0.4863690000000 1.0
C      1  0.5126360000000  0.5385460000000  0.5073220000000 1.0
C      1  0.5358910000000  0.4607900000000  0.4944630000000 1.0
C      1  0.5588770000000  0.4923670000000  0.5222910000000 1.0
C      1  0.4778090000000  0.5085890000000  0.5432380000000 1.0
C      1  0.5125600000000  0.4462510000000  0.4899350000000 1.0
C      1  0.4767550000000  0.5443820000000  0.4591940000000 1.0
C      1  0.4944030000000  0.5188670000000  0.4927880000000 1.0
C      1  0.4941490000000  0.4595770000000  0.5344980000000 1.0
C      1  0.5453090000000  0.4642410000000  0.5227080000000 1.0
C      1  0.5104600000000  0.5151280000000  0.4447010000000 1.0
C      1  0.4869770000000  0.4969270000000  0.4377860000000 1.0
C      1  0.5333850000000  0.4914100000000  0.4868780000000 1.0
C      1  0.4934720000000  0.4539620000000  0.4691930000000 1.0
C      1  0.5123610000000  0.5611790000000  0.4912240000000 1.0
C      1  0.4417580000000  0.5064380000000  0.5118570000000 1.0
C      1  0.5111080000000  0.5036960000000  0.4717370000000 1.0
C      1  0.4895660000000  0.4827280000000  0.4628100000000 1.0
C      1  0.5452820000000  0.5106940000000  0.5384950000000 1.0
C      1  0.5152920000000  0.4892560000000  0.5107700000000 1.0
C      1  0.4979670000000  0.5593360000000  0.4703710000000 1.0
C      1  0.5245860000000  0.4953200000000  0.5534780000000 1.0
C      1  0.4915640000000  0.4461750000000  0.5102870000000 1.0
C      1  0.4853270000000  0.5253490000000  0.4401030000000 1.0
C      1  0.4722480000000  0.4542340000000  0.4903540000000 1.0
C      1  0.4630030000000  0.5421110000000  0.5089390000000 1.0
C      1  0.4871220000000  0.4937400000000  0.5069160000000 1.0
C      1  0.5589650000000  0.5008370000000  0.4966340000000 1.0
C      1  0.4581730000000  0.5227860000000  0.5273300000000 1.0
C      1  0.4677740000000  0.5295570000000  0.4820790000000 1.0
C      1  0.5212380000000  0.4713170000000  0.5373840000000 1.0
END
