TITL C-260512-6748-7 0.0270013290551706 125000 -649.937133902005 0 0 93 (C1) n - 1
REM
REM in /rds/project/t2_vol4/rds-t2-cs072/BORA/CARBON/from-Arr/AIRSS/Generating-Clusters/GAP-ML-2020/Only-C1/SD-CG/HFTN-CG
REM
REM
REM
REM
REM
REM ./C.cell (11c1c37f851c82e70ff6c80c92926a4b)
REM AIRSS Version 0.9.1 bugfix July 2018 build 013d7b7c2542+ Fri, 06 Jul 2018 19:26:36 +0100
REM compiler GCC version 9.3.0
REM options -cpp -mtune=generic -march=x86-64 -g -O0
REM seed -525170075 -1320553430 -501054848 1502925456 -585075551 1973164343 171776776 749119994 -1319805022 -167528545 -51456612 -328537259 -1615649756 1605512330 274442021 -1182847998 -166740488 1296236471 2064575571 501272619 354123565 -1346593658 -1964251349 1418891474 1307934196 1872901022 331540558 -462658809 1344804590 993669153 1270575676 840236301 -891577781
REM
CELL 1.54180   50.00000   50.00000   50.00000   90.00000   90.00000   90.00000
LATT -1
SFAC C  
C      1  0.5561130000000  0.4413300000000  0.4759920000000 1.0
C      1  0.5156590000000  0.4615650000000  0.5083150000000 1.0
C      1  0.5355690000000  0.5813150000000  0.4550570000000 1.0
C      1  0.4852830000000  0.3926840000000  0.5345200000000 1.0
C      1  0.5094500000000  0.5902360000000  0.4662470000000 1.0
C      1  0.5372220000000  0.4429930000000  0.5215050000000 1.0
C      1  0.5503240000000  0.4911420000000  0.5682330000000 1.0
C      1  0.5122370000000  0.5126840000000  0.5804760000000 1.0
C      1  0.4652930000000  0.4371400000000  0.5382510000000 1.0
C      1  0.4780320000000  0.5324270000000  0.5555270000000 1.0
C      1  0.4436330000000  0.5650320000000  0.4779530000000 1.0
C      1  0.4819610000000  0.4439660000000  0.5608280000000 1.0
C      1  0.4896510000000  0.4170520000000  0.4776610000000 1.0
C      1  0.4995650000000  0.5376550000000  0.5740220000000 1.0
C      1  0.4563900000000  0.5121310000000  0.5645670000000 1.0
C      1  0.4471360000000  0.4558160000000  0.4679060000000 1.0
C      1  0.5773620000000  0.5197730000000  0.4845620000000 1.0
C      1  0.4084970000000  0.4842040000000  0.5050800000000 1.0
C      1  0.5612610000000  0.4492710000000  0.5031600000000 1.0
C      1  0.4427950000000  0.4849690000000  0.4693690000000 1.0
C      1  0.4766670000000  0.4649790000000  0.4271230000000 1.0
C      1  0.4552670000000  0.5502210000000  0.5469080000000 1.0
C      1  0.5723090000000  0.4898160000000  0.5524410000000 1.0
C      1  0.5580820000000  0.4600660000000  0.4538660000000 1.0
C      1  0.5071380000000  0.4094800000000  0.5369020000000 1.0
C      1  0.4801000000000  0.4706640000000  0.5713980000000 1.0
C      1  0.5297370000000  0.4470960000000  0.5529000000000 1.0
C      1  0.4595090000000  0.5191060000000  0.4196540000000 1.0
C      1  0.5166490000000  0.4138560000000  0.4880200000000 1.0
C      1  0.4231110000000  0.5175030000000  0.5314560000000 1.0
C      1  0.4712120000000  0.4137490000000  0.5234250000000 1.0
C      1  0.4543450000000  0.5635780000000  0.5222510000000 1.0
C      1  0.4690480000000  0.5774920000000  0.4822740000000 1.0
C      1  0.5346170000000  0.4591980000000  0.4369520000000 1.0
C      1  0.5250080000000  0.5048850000000  0.4904510000000 1.0
C      1  0.5493010000000  0.5332350000000  0.4416090000000 1.0
C      1  0.5074260000000  0.5293710000000  0.4836000000000 1.0
C      1  0.5659510000000  0.4913990000000  0.5262880000000 1.0
C      1  0.5149380000000  0.4787430000000  0.4848520000000 1.0
C      1  0.5061970000000  0.5446980000000  0.4548780000000 1.0
C      1  0.4736440000000  0.4821590000000  0.5099650000000 1.0
C      1  0.5677930000000  0.5400140000000  0.5047780000000 1.0
C      1  0.5113470000000  0.5442190000000  0.5106530000000 1.0
C      1  0.4560580000000  0.4841170000000  0.5625030000000 1.0
C      1  0.5406800000000  0.5399830000000  0.5527330000000 1.0
C      1  0.5297100000000  0.4708870000000  0.5695380000000 1.0
C      1  0.4986670000000  0.4776450000000  0.5241550000000 1.0
C      1  0.5183730000000  0.5564090000000  0.5603930000000 1.0
C      1  0.5378270000000  0.5074600000000  0.5173600000000 1.0
C      1  0.4366160000000  0.5520930000000  0.5019200000000 1.0
C      1  0.4674100000000  0.4203420000000  0.4954470000000 1.0
C      1  0.5639580000000  0.5590970000000  0.4837200000000 1.0
C      1  0.5745150000000  0.4745030000000  0.5051010000000 1.0
C      1  0.5051950000000  0.4841060000000  0.5781410000000 1.0
C      1  0.5421190000000  0.5364030000000  0.5224480000000 1.0
C      1  0.4757810000000  0.5773270000000  0.5094090000000 1.0
C      1  0.5072770000000  0.4310230000000  0.5567710000000 1.0
C      1  0.5320870000000  0.5559160000000  0.4444870000000 1.0
C      1  0.5386890000000  0.5168040000000  0.5706820000000 1.0
C      1  0.5199850000000  0.5891000000000  0.4932160000000 1.0
C      1  0.4697220000000  0.4976690000000  0.4662420000000 1.0
C      1  0.5050530000000  0.5251660000000  0.4318680000000 1.0
C      1  0.4377150000000  0.4732650000000  0.5420070000000 1.0
C      1  0.5188400000000  0.4369450000000  0.4471790000000 1.0
C      1  0.4548760000000  0.5428280000000  0.4309830000000 1.0
C      1  0.5244690000000  0.4168490000000  0.5154830000000 1.0
C      1  0.5301040000000  0.5124230000000  0.4315010000000 1.0
C      1  0.4919280000000  0.5250350000000  0.5264950000000 1.0
C      1  0.4789960000000  0.5197250000000  0.4820440000000 1.0
C      1  0.5050310000000  0.5757610000000  0.5163200000000 1.0
C      1  0.5242660000000  0.4838450000000  0.4258770000000 1.0
C      1  0.4253000000000  0.4977870000000  0.4879640000000 1.0
C      1  0.4850850000000  0.5098450000000  0.4187940000000 1.0
C      1  0.4365820000000  0.5291190000000  0.5526670000000 1.0
C      1  0.4365570000000  0.5223810000000  0.5052930000000 1.0
C      1  0.4865870000000  0.4796920000000  0.4806910000000 1.0
C      1  0.5799750000000  0.4915390000000  0.4821110000000 1.0
C      1  0.4420290000000  0.5588180000000  0.4505880000000 1.0
C      1  0.5678530000000  0.5369970000000  0.4631610000000 1.0
C      1  0.4953910000000  0.4826480000000  0.4194800000000 1.0
C      1  0.5109820000000  0.5026400000000  0.5274610000000 1.0
C      1  0.4903810000000  0.4309260000000  0.4529220000000 1.0
C      1  0.4530870000000  0.4573540000000  0.5208200000000 1.0
C      1  0.4168510000000  0.4895320000000  0.5318530000000 1.0
C      1  0.5108010000000  0.5775500000000  0.5450540000000 1.0
C      1  0.4497680000000  0.4423320000000  0.4934070000000 1.0
C      1  0.4686810000000  0.5134670000000  0.5091230000000 1.0
C      1  0.4673530000000  0.4483980000000  0.4466690000000 1.0
C      1  0.5335170000000  0.4258800000000  0.4692440000000 1.0
C      1  0.4669950000000  0.5672580000000  0.4382950000000 1.0
C      1  0.4881730000000  0.5710370000000  0.4590590000000 1.0
C      1  0.5725910000000  0.4824260000000  0.4574870000000 1.0
C      1  0.5466870000000  0.5807350000000  0.4819620000000 1.0
END
