TITL C-260545-2423-14 10.6580953333985 125000 -133.636375414455 0 0 21 (C1) n - 1
REM
REM in /rds/project/t2_vol4/rds-t2-cs072/BORA/CARBON/from-Arr/AIRSS/Generating-Clusters/GAP-ML-2020/Only-C1/SD-CG/HFTN-CG
REM
REM
REM
REM
REM
REM ./C.cell (11c1c37f851c82e70ff6c80c92926a4b)
REM AIRSS Version 0.9.1 bugfix July 2018 build 013d7b7c2542+ Fri, 06 Jul 2018 19:26:36 +0100
REM compiler GCC version 9.3.0
REM options -cpp -mtune=generic -march=x86-64 -g -O0
REM seed -381062872 1418263249 -296473413 604887750 -1468466066 -925096219 -712124667 1817387278 2005278471 1783361951 -1789547053 595528717 572561492 -1815366055 -1580309360 1536636026 -377320215 1938962553 8439840 -103255573 -1980578804 -934677025 893444902 65847934 1235822283 -1071281937 1875270348 1334406706 39436756 816363834 -21397008 655329017 932359249
REM
CELL 1.54180   50.00000   50.00000   50.00000   90.00000   90.00000   90.00000
LATT -1
SFAC C  
C      1  0.4745000000000  0.5174700000000  0.4885720000000 1.0
C      1  0.5054480000000  0.4757300000000  0.5333910000000 1.0
C      1  0.5110630000000  0.5179800000000  0.5147300000000 1.0
C      1  0.4516750000000  0.5215430000000  0.4743240000000 1.0
C      1  0.5329000000000  0.4900830000000  0.4573360000000 1.0
C      1  0.5378750000000  0.4543040000000  0.5098200000000 1.0
C      1  0.4150300000000  0.5302790000000  0.4847850000000 1.0
C      1  0.5357460000000  0.4655830000000  0.4664460000000 1.0
C      1  0.5599320000000  0.4713250000000  0.5162360000000 1.0
C      1  0.4677760000000  0.5041210000000  0.5140360000000 1.0
C      1  0.5539990000000  0.4949400000000  0.5082560000000 1.0
C      1  0.4404000000000  0.4998400000000  0.5168460000000 1.0
C      1  0.5177120000000  0.4537920000000  0.5299450000000 1.0
C      1  0.5287460000000  0.5340490000000  0.5270630000000 1.0
C      1  0.5503390000000  0.5452250000000  0.5336410000000 1.0
C      1  0.5195740000000  0.5089490000000  0.4683890000000 1.0
C      1  0.5364550000000  0.4452100000000  0.4824500000000 1.0
C      1  0.4306840000000  0.5093130000000  0.4931950000000 1.0
C      1  0.5030600000000  0.5194610000000  0.4866170000000 1.0
C      1  0.4930310000000  0.4989690000000  0.5270940000000 1.0
C      1  0.4340560000000  0.5418360000000  0.4668300000000 1.0
END
