TITL C-26373-9433-7 6.24833250932435 125000 -704.333549372164 0 0 102 (C1) n - 1
REM
REM in /rds/project/t2_vol4/rds-t2-cs072/BORA/CARBON/from-Arr/AIRSS/Generating-Clusters/GAP-ML-2020/Only-C1/SD-CG/HFTN-CG
REM
REM
REM
REM
REM
REM ./C.cell (11c1c37f851c82e70ff6c80c92926a4b)
REM AIRSS Version 0.9.1 bugfix July 2018 build 013d7b7c2542+ Fri, 06 Jul 2018 19:26:36 +0100
REM compiler GCC version 9.3.0
REM options -cpp -mtune=generic -march=x86-64 -g -O0
REM seed -1504612796 -1123978608 -383537870 1551927091 -693031190 -147943586 430481214 784251124 -504600229 -1787667254 2047286637 -1577704988 1978943186 148254544 1193652701 1788219599 528951806 -1477152613 -612666062 -1476654466 -305963028 -1297827985 619110317 -130407582 -2127356037 1901278173 993326121 2128366880 -1637059569 -656098122 647713366 1823223325 -1729683427
REM
CELL 1.54180   50.00000   50.00000   50.00000   90.00000   90.00000   90.00000
LATT -1
SFAC C  
C      1  0.5046700000000  0.5473140000000  0.5239990000000 1.0
C      1  0.4333470000000  0.5662290000000  0.5108280000000 1.0
C      1  0.4637090000000  0.4393850000000  0.5532910000000 1.0
C      1  0.4510450000000  0.5506080000000  0.4629330000000 1.0
C      1  0.4312220000000  0.4780970000000  0.4575660000000 1.0
C      1  0.4719540000000  0.4946460000000  0.4423960000000 1.0
C      1  0.4219530000000  0.4467900000000  0.4936280000000 1.0
C      1  0.5043500000000  0.4623710000000  0.5592760000000 1.0
C      1  0.5050760000000  0.4066880000000  0.5092510000000 1.0
C      1  0.5141850000000  0.5658980000000  0.5477590000000 1.0
C      1  0.5865180000000  0.5219690000000  0.5001200000000 1.0
C      1  0.5133980000000  0.5603440000000  0.4333720000000 1.0
C      1  0.5443230000000  0.5420830000000  0.5637110000000 1.0
C      1  0.4588340000000  0.5515680000000  0.5470020000000 1.0
C      1  0.4623040000000  0.4836390000000  0.5750890000000 1.0
C      1  0.4583560000000  0.5101180000000  0.5648130000000 1.0
C      1  0.5160310000000  0.5734210000000  0.4588970000000 1.0
C      1  0.4700640000000  0.4699640000000  0.5045750000000 1.0
C      1  0.4225570000000  0.5215710000000  0.5226660000000 1.0
C      1  0.5083410000000  0.4528680000000  0.4927830000000 1.0
C      1  0.5176340000000  0.4328710000000  0.4496080000000 1.0
C      1  0.4479110000000  0.4308080000000  0.5311180000000 1.0
C      1  0.4937750000000  0.4370330000000  0.5516170000000 1.0
C      1  0.5016540000000  0.5126740000000  0.5575210000000 1.0
C      1  0.4470120000000  0.5044330000000  0.4547530000000 1.0
C      1  0.5202430000000  0.5222630000000  0.5155140000000 1.0
C      1  0.4325710000000  0.5528700000000  0.4853240000000 1.0
C      1  0.4661330000000  0.5367560000000  0.5721780000000 1.0
C      1  0.5754980000000  0.4759470000000  0.5158470000000 1.0
C      1  0.5542040000000  0.5658110000000  0.5171970000000 1.0
C      1  0.4906770000000  0.4802320000000  0.5779960000000 1.0
C      1  0.4927650000000  0.5155090000000  0.4570050000000 1.0
C      1  0.4481230000000  0.5320560000000  0.4423120000000 1.0
C      1  0.4942290000000  0.5329580000000  0.5810490000000 1.0
C      1  0.5099740000000  0.4120310000000  0.4677070000000 1.0
C      1  0.4625890000000  0.4221950000000  0.4881670000000 1.0
C      1  0.5501980000000  0.4987040000000  0.4829950000000 1.0
C      1  0.5169930000000  0.5490380000000  0.5723230000000 1.0
C      1  0.4705320000000  0.5333220000000  0.4216380000000 1.0
C      1  0.5595530000000  0.5403020000000  0.4470470000000 1.0
C      1  0.5657890000000  0.5444320000000  0.4979870000000 1.0
C      1  0.4463230000000  0.5886370000000  0.5209950000000 1.0
C      1  0.4773470000000  0.5099510000000  0.5408050000000 1.0
C      1  0.5814540000000  0.5072500000000  0.4748390000000 1.0
C      1  0.4486720000000  0.4631710000000  0.5609610000000 1.0
C      1  0.5169420000000  0.4721520000000  0.4235350000000 1.0
C      1  0.5431020000000  0.5229360000000  0.4979760000000 1.0
C      1  0.4947580000000  0.5846120000000  0.5324150000000 1.0
C      1  0.4273960000000  0.4692460000000  0.5405600000000 1.0
C      1  0.5192910000000  0.5144490000000  0.4393730000000 1.0
C      1  0.4410170000000  0.4349630000000  0.4746550000000 1.0
C      1  0.5004920000000  0.4522780000000  0.4354680000000 1.0
C      1  0.5542860000000  0.4460160000000  0.4810780000000 1.0
C      1  0.5135310000000  0.4780570000000  0.5348290000000 1.0
C      1  0.5270800000000  0.4627210000000  0.5128340000000 1.0
C      1  0.5020050000000  0.5042550000000  0.5845660000000 1.0
C      1  0.5464170000000  0.4250780000000  0.4990490000000 1.0
C      1  0.5680070000000  0.4708670000000  0.5437000000000 1.0
C      1  0.5402430000000  0.5753810000000  0.4735610000000 1.0
C      1  0.4324790000000  0.5457410000000  0.5336900000000 1.0
C      1  0.5614490000000  0.5566410000000  0.4706570000000 1.0
C      1  0.4867350000000  0.4880520000000  0.5219550000000 1.0
C      1  0.5693040000000  0.4873180000000  0.4399100000000 1.0
C      1  0.4886700000000  0.4690530000000  0.4798680000000 1.0
C      1  0.4763010000000  0.4644120000000  0.4499900000000 1.0
C      1  0.5108060000000  0.4227690000000  0.5327910000000 1.0
C      1  0.4262010000000  0.4458390000000  0.5227730000000 1.0
C      1  0.4979090000000  0.5077750000000  0.5016600000000 1.0
C      1  0.5725790000000  0.5001650000000  0.5481650000000 1.0
C      1  0.5249290000000  0.5058820000000  0.5414030000000 1.0
C      1  0.4669910000000  0.5804540000000  0.5371350000000 1.0
C      1  0.4801090000000  0.5057890000000  0.4163290000000 1.0
C      1  0.5865380000000  0.4823850000000  0.4615650000000 1.0
C      1  0.5375580000000  0.4360590000000  0.5262660000000 1.0
C      1  0.4890620000000  0.5528950000000  0.4222800000000 1.0
C      1  0.4473980000000  0.4549520000000  0.4538900000000 1.0
C      1  0.5061980000000  0.5733610000000  0.5059890000000 1.0
C      1  0.4217440000000  0.4732330000000  0.4842860000000 1.0
C      1  0.5845120000000  0.5027420000000  0.5207510000000 1.0
C      1  0.4863050000000  0.4078570000000  0.4861920000000 1.0
C      1  0.5077370000000  0.4979880000000  0.4172260000000 1.0
C      1  0.5530360000000  0.4718770000000  0.4970620000000 1.0
C      1  0.5497700000000  0.5148940000000  0.5561000000000 1.0
C      1  0.4278840000000  0.4935160000000  0.5258760000000 1.0
C      1  0.5441210000000  0.5637190000000  0.5435770000000 1.0
C      1  0.5553370000000  0.4474550000000  0.5458520000000 1.0
C      1  0.4433050000000  0.4861550000000  0.5013750000000 1.0
C      1  0.5308560000000  0.4943940000000  0.4609680000000 1.0
C      1  0.4963630000000  0.5675950000000  0.4781940000000 1.0
C      1  0.5346920000000  0.5790490000000  0.5012750000000 1.0
C      1  0.5423620000000  0.4466580000000  0.4553340000000 1.0
C      1  0.4767010000000  0.5360530000000  0.5264480000000 1.0
C      1  0.4742020000000  0.5261540000000  0.4970530000000 1.0
C      1  0.5741570000000  0.5165600000000  0.4472940000000 1.0
C      1  0.5040160000000  0.4945500000000  0.4760160000000 1.0
C      1  0.5274030000000  0.4077550000000  0.4904800000000 1.0
C      1  0.4796640000000  0.5430890000000  0.4726750000000 1.0
C      1  0.5331490000000  0.5395330000000  0.4346840000000 1.0
C      1  0.5422490000000  0.4726690000000  0.4417020000000 1.0
C      1  0.4261980000000  0.5270000000000  0.4943200000000 1.0
C      1  0.4492440000000  0.5101830000000  0.4862890000000 1.0
C      1  0.4651240000000  0.4399390000000  0.5105990000000 1.0
END
