TITL C-260496-6864-8 0.0264510879896942 125000 -396.967749831978 0 0 58 (C1) n - 1
REM
REM in /rds/project/t2_vol4/rds-t2-cs072/BORA/CARBON/from-Arr/AIRSS/Generating-Clusters/GAP-ML-2020/Only-C1/SD-CG/HFTN-CG
REM
REM
REM
REM
REM
REM ./C.cell (11c1c37f851c82e70ff6c80c92926a4b)
REM AIRSS Version 0.9.1 bugfix July 2018 build 013d7b7c2542+ Fri, 06 Jul 2018 19:26:36 +0100
REM compiler GCC version 9.3.0
REM options -cpp -mtune=generic -march=x86-64 -g -O0
REM seed 284999842 -916040558 -772941707 703596800 379570777 1068616427 -1994859839 29231442 -496749314 1693224417 -1842514364 898493222 -2128471655 512309620 -2131783208 1194126784 103275760 -1359438691 -1809826271 -271535648 1762998293 -821879254 1511254706 -871936085 1046906732 1296134240 1362014828 -769204833 -1226236762 1773262334 -1259580041 319166243 1020111907
REM
CELL 1.54180   50.00000   50.00000   50.00000   90.00000   90.00000   90.00000
LATT -1
SFAC C  
C      1  0.5685750000000  0.4761860000000  0.4977520000000 1.0
C      1  0.5636920000000  0.5209830000000  0.4909960000000 1.0
C      1  0.4401040000000  0.5319140000000  0.4843490000000 1.0
C      1  0.5675690000000  0.5058620000000  0.5341900000000 1.0
C      1  0.5079670000000  0.5026640000000  0.4869310000000 1.0
C      1  0.4644490000000  0.5458100000000  0.4834410000000 1.0
C      1  0.4950130000000  0.5338130000000  0.5213000000000 1.0
C      1  0.5118820000000  0.5042320000000  0.4519310000000 1.0
C      1  0.5382850000000  0.4639230000000  0.4598150000000 1.0
C      1  0.5503900000000  0.5295950000000  0.5342090000000 1.0
C      1  0.4839980000000  0.5417310000000  0.4643770000000 1.0
C      1  0.5199060000000  0.4846770000000  0.5046920000000 1.0
C      1  0.4918880000000  0.4617860000000  0.5625260000000 1.0
C      1  0.5308950000000  0.5467620000000  0.4569140000000 1.0
C      1  0.5437820000000  0.5340660000000  0.5067670000000 1.0
C      1  0.4925800000000  0.4325210000000  0.4452340000000 1.0
C      1  0.4899020000000  0.5787790000000  0.5096360000000 1.0
C      1  0.5162990000000  0.4763000000000  0.4451650000000 1.0
C      1  0.4493320000000  0.4634680000000  0.4775900000000 1.0
C      1  0.4856540000000  0.5056640000000  0.5316310000000 1.0
C      1  0.4842960000000  0.5069720000000  0.5619410000000 1.0
C      1  0.4916930000000  0.4604120000000  0.4467680000000 1.0
C      1  0.5569770000000  0.5085090000000  0.4660230000000 1.0
C      1  0.5022360000000  0.4324530000000  0.4710170000000 1.0
C      1  0.5023000000000  0.4860480000000  0.5706320000000 1.0
C      1  0.5072220000000  0.5769580000000  0.4913030000000 1.0
C      1  0.5294560000000  0.5255380000000  0.5528540000000 1.0
C      1  0.4379800000000  0.5080060000000  0.4407820000000 1.0
C      1  0.4642730000000  0.5008110000000  0.4458670000000 1.0
C      1  0.5270880000000  0.4532530000000  0.5057360000000 1.0
C      1  0.4325920000000  0.4856310000000  0.4854790000000 1.0
C      1  0.4711600000000  0.4759360000000  0.4619970000000 1.0
C      1  0.5099560000000  0.5514000000000  0.4753650000000 1.0
C      1  0.4734420000000  0.5530110000000  0.5114260000000 1.0
C      1  0.4820120000000  0.5343900000000  0.5665160000000 1.0
C      1  0.4386170000000  0.4973780000000  0.5105180000000 1.0
C      1  0.4825200000000  0.4898730000000  0.4888840000000 1.0
C      1  0.5524180000000  0.4836180000000  0.5413910000000 1.0
C      1  0.4643330000000  0.4605700000000  0.5226070000000 1.0
C      1  0.4345050000000  0.5089370000000  0.4679310000000 1.0
C      1  0.4856570000000  0.4498170000000  0.5392500000000 1.0
C      1  0.5115720000000  0.4929720000000  0.5297180000000 1.0
C      1  0.5767530000000  0.5018250000000  0.5075170000000 1.0
C      1  0.5360930000000  0.5210450000000  0.4516790000000 1.0
C      1  0.4350610000000  0.5259750000000  0.5117360000000 1.0
C      1  0.4505090000000  0.5439780000000  0.5290950000000 1.0
C      1  0.5525370000000  0.4644590000000  0.5182770000000 1.0
C      1  0.5146140000000  0.5307830000000  0.4984070000000 1.0
C      1  0.4857870000000  0.4328890000000  0.4949480000000 1.0
C      1  0.4580810000000  0.5424360000000  0.5545590000000 1.0
C      1  0.4862990000000  0.5188930000000  0.4481640000000 1.0
C      1  0.4610640000000  0.4469500000000  0.4975820000000 1.0
C      1  0.5579290000000  0.4804180000000  0.4706990000000 1.0
C      1  0.5026070000000  0.4396630000000  0.5168310000000 1.0
C      1  0.4672050000000  0.4888440000000  0.5151520000000 1.0
C      1  0.5274100000000  0.4952240000000  0.5544530000000 1.0
C      1  0.5052980000000  0.5394530000000  0.5493090000000 1.0
C      1  0.5282910000000  0.4439380000000  0.4781420000000 1.0
END
