TITL C-2681979-4830-14 -0.0853569710597248 125000 -654.766811202264 0 0 94 (C1) n - 1
REM
REM in /nfs/bkarasulu/CARBON/AIRSS/Generating-Clusters/GAP-ML-2020/Only-C1/SD-CG/HFTN-CG
REM
REM
REM
REM
REM
REM ./C.cell (11c1c37f851c82e70ff6c80c92926a4b)
REM
REM compiler GCC version 9.2.1 20190827 (Red Hat 9.2.1-1)
REM options -cpp -mtune=generic -march=x86-64 -g -O0 -fpre-include=/usr/include/finclude/math-vector-fortran.h
REM seed 150329528 236296664 1052267593 -878653116 -662637077 -1283277121 1775355718 -705554656 247619551 -996438981 -1313523066 -501815313 -819592339 2118704620 1495570057 748645296 -447539708 -2106948050 780794135 -1147725175 -1276501972 351636222 -1175037022 -1581518364 1983846117 -1172122350 943312052 862663838 1142244507 615914006 -1477167628 615184001 -1065620030
REM
CELL 1.54180   50.00000   50.00000   50.00000   90.00000   90.00000   90.00000
LATT -1
SFAC C  
C      1  0.4491400000000  0.4302210000000  0.4803650000000 1.0
C      1  0.4908090000000  0.4968360000000  0.5688340000000 1.0
C      1  0.5219750000000  0.5743960000000  0.4671080000000 1.0
C      1  0.4895760000000  0.5573570000000  0.5734980000000 1.0
C      1  0.4761020000000  0.5741450000000  0.4594900000000 1.0
C      1  0.4778250000000  0.4907590000000  0.4377200000000 1.0
C      1  0.4381890000000  0.4562020000000  0.4900110000000 1.0
C      1  0.5232040000000  0.4977730000000  0.5313490000000 1.0
C      1  0.4907390000000  0.4707140000000  0.4890830000000 1.0
C      1  0.5615730000000  0.5469020000000  0.4858910000000 1.0
C      1  0.5538000000000  0.4553840000000  0.4884130000000 1.0
C      1  0.4817020000000  0.5845190000000  0.4850660000000 1.0
C      1  0.5393070000000  0.5057760000000  0.5714680000000 1.0
C      1  0.5126680000000  0.4729880000000  0.4683340000000 1.0
C      1  0.5533610000000  0.4717150000000  0.4390960000000 1.0
C      1  0.4611670000000  0.4973270000000  0.4638040000000 1.0
C      1  0.4966290000000  0.4679470000000  0.5690850000000 1.0
C      1  0.5428950000000  0.5557840000000  0.4649750000000 1.0
C      1  0.4569530000000  0.4148740000000  0.5035510000000 1.0
C      1  0.4661660000000  0.5788070000000  0.5073350000000 1.0
C      1  0.4387450000000  0.5491390000000  0.4771770000000 1.0
C      1  0.5015810000000  0.5738680000000  0.4465220000000 1.0
C      1  0.5792920000000  0.4992770000000  0.5225960000000 1.0
C      1  0.4308580000000  0.4998840000000  0.4672980000000 1.0
C      1  0.4885510000000  0.4631370000000  0.4294990000000 1.0
C      1  0.4299060000000  0.4726150000000  0.5419850000000 1.0
C      1  0.4859220000000  0.5142760000000  0.4730450000000 1.0
C      1  0.5124780000000  0.5744280000000  0.5191780000000 1.0
C      1  0.5643330000000  0.4770430000000  0.5341700000000 1.0
C      1  0.5252850000000  0.5138160000000  0.4333760000000 1.0
C      1  0.5744210000000  0.5283680000000  0.5312930000000 1.0
C      1  0.5044020000000  0.5259360000000  0.4152210000000 1.0
C      1  0.4597760000000  0.4928530000000  0.5145510000000 1.0
C      1  0.5094390000000  0.5819120000000  0.4916690000000 1.0
C      1  0.4973030000000  0.4971100000000  0.4972580000000 1.0
C      1  0.5546330000000  0.5294590000000  0.5640740000000 1.0
C      1  0.5202680000000  0.4416440000000  0.4563880000000 1.0
C      1  0.5266200000000  0.5024410000000  0.5028150000000 1.0
C      1  0.4552460000000  0.5546760000000  0.4536170000000 1.0
C      1  0.4733570000000  0.4275380000000  0.5476160000000 1.0
C      1  0.4605970000000  0.5366590000000  0.4333470000000 1.0
C      1  0.5128970000000  0.5435960000000  0.5741300000000 1.0
C      1  0.5351420000000  0.4500910000000  0.4334500000000 1.0
C      1  0.4810590000000  0.5122190000000  0.5174790000000 1.0
C      1  0.5359860000000  0.4807520000000  0.4831230000000 1.0
C      1  0.5035210000000  0.4992640000000  0.4536360000000 1.0
C      1  0.4907500000000  0.4388970000000  0.4472720000000 1.0
C      1  0.5592080000000  0.4544140000000  0.5174320000000 1.0
C      1  0.5365420000000  0.4336060000000  0.4802440000000 1.0
C      1  0.4335790000000  0.5008880000000  0.5311550000000 1.0
C      1  0.4429710000000  0.5634110000000  0.5019640000000 1.0
C      1  0.5356710000000  0.4883120000000  0.4229560000000 1.0
C      1  0.5159300000000  0.4672250000000  0.4199240000000 1.0
C      1  0.4602660000000  0.4974280000000  0.5694300000000 1.0
C      1  0.5036170000000  0.4112080000000  0.5112250000000 1.0
C      1  0.5051790000000  0.5687530000000  0.4193960000000 1.0
C      1  0.4451740000000  0.5165030000000  0.5543930000000 1.0
C      1  0.4842230000000  0.5736900000000  0.5289060000000 1.0
C      1  0.5419190000000  0.4335310000000  0.5261230000000 1.0
C      1  0.5222380000000  0.4595420000000  0.5611510000000 1.0
C      1  0.5366780000000  0.5610280000000  0.5304430000000 1.0
C      1  0.4915430000000  0.4567830000000  0.5122680000000 1.0
C      1  0.5190420000000  0.5326190000000  0.4978780000000 1.0
C      1  0.4269200000000  0.5238340000000  0.4835650000000 1.0
C      1  0.5590370000000  0.5481390000000  0.5150190000000 1.0
C      1  0.4491560000000  0.4717850000000  0.5641090000000 1.0
C      1  0.5068860000000  0.5507430000000  0.4009770000000 1.0
C      1  0.4828750000000  0.4106140000000  0.4918260000000 1.0
C      1  0.4339090000000  0.5471460000000  0.5232590000000 1.0
C      1  0.5135290000000  0.5147660000000  0.5784250000000 1.0
C      1  0.4987200000000  0.5067080000000  0.5398040000000 1.0
C      1  0.4726000000000  0.4547960000000  0.5588010000000 1.0
C      1  0.4243210000000  0.5226010000000  0.5126490000000 1.0
C      1  0.4723990000000  0.5612610000000  0.5524230000000 1.0
C      1  0.5405990000000  0.4824160000000  0.5525580000000 1.0
C      1  0.5618210000000  0.4765820000000  0.4663070000000 1.0
C      1  0.4693080000000  0.4665560000000  0.5274890000000 1.0
C      1  0.4398320000000  0.4525130000000  0.5226580000000 1.0
C      1  0.4514830000000  0.4263890000000  0.5284040000000 1.0
C      1  0.5673780000000  0.5243510000000  0.4680160000000 1.0
C      1  0.5295570000000  0.4203760000000  0.5037940000000 1.0
C      1  0.4745590000000  0.4251570000000  0.4662340000000 1.0
C      1  0.4990900000000  0.4193870000000  0.5392270000000 1.0
C      1  0.4223890000000  0.4746170000000  0.4746160000000 1.0
C      1  0.5794240000000  0.4987670000000  0.4741330000000 1.0
C      1  0.5228420000000  0.4347760000000  0.5472760000000 1.0
C      1  0.5810410000000  0.5334700000000  0.5583620000000 1.0
C      1  0.5917410000000  0.4963780000000  0.4984160000000 1.0
C      1  0.4607040000000  0.4787860000000  0.4867660000000 1.0
C      1  0.5357450000000  0.5504140000000  0.5574680000000 1.0
C      1  0.4897880000000  0.5327790000000  0.4958370000000 1.0
C      1  0.4485050000000  0.5441470000000  0.5476070000000 1.0
C      1  0.5460760000000  0.5314330000000  0.4492240000000 1.0
C      1  0.4778340000000  0.5180500000000  0.4236050000000 1.0
END
