TITL C-260535-2428-4 -0.0276096101158776 125000 -580.249266821536 0 0 86 (C1) n - 1
REM
REM in /rds/project/t2_vol4/rds-t2-cs072/BORA/CARBON/from-Arr/AIRSS/Generating-Clusters/GAP-ML-2020/Only-C1/SD-CG/HFTN-CG
REM
REM
REM
REM
REM
REM ./C.cell (11c1c37f851c82e70ff6c80c92926a4b)
REM AIRSS Version 0.9.1 bugfix July 2018 build 013d7b7c2542+ Fri, 06 Jul 2018 19:26:36 +0100
REM compiler GCC version 9.3.0
REM options -cpp -mtune=generic -march=x86-64 -g -O0
REM seed 1839343307 917433485 1413869282 -1542712100 -1747821893 -1892402721 945049931 -178806738 1579006678 617604388 510037358 56849878 794191945 1221652487 -1055454674 -695714266 176754816 1047224852 749373528 -147097933 201038432 251634728 -573600162 -495260689 589895365 1670636786 -1362100475 905538278 353384934 811937807 -1679521135 826614182 -726500287
REM
CELL 1.54180   50.00000   50.00000   50.00000   90.00000   90.00000   90.00000
LATT -1
SFAC C  
C      1  0.5379360000000  0.5567340000000  0.4727030000000 1.0
C      1  0.4827150000000  0.4900220000000  0.4980060000000 1.0
C      1  0.4991640000000  0.4425580000000  0.5412100000000 1.0
C      1  0.5187650000000  0.5513890000000  0.5373850000000 1.0
C      1  0.5465770000000  0.5176010000000  0.5649000000000 1.0
C      1  0.4355380000000  0.4549780000000  0.4862890000000 1.0
C      1  0.4922060000000  0.5309980000000  0.4731120000000 1.0
C      1  0.5467300000000  0.4514740000000  0.4389420000000 1.0
C      1  0.5701390000000  0.5503530000000  0.5021400000000 1.0
C      1  0.4800540000000  0.5404890000000  0.4992240000000 1.0
C      1  0.5246720000000  0.4521850000000  0.5536080000000 1.0
C      1  0.5171660000000  0.5173950000000  0.5065180000000 1.0
C      1  0.4735420000000  0.5578570000000  0.5630760000000 1.0
C      1  0.4390810000000  0.5324120000000  0.5358440000000 1.0
C      1  0.4970090000000  0.4137040000000  0.4874830000000 1.0
C      1  0.5224710000000  0.4362140000000  0.4429520000000 1.0
C      1  0.5295670000000  0.4458670000000  0.4956570000000 1.0
C      1  0.5184790000000  0.5402040000000  0.4358160000000 1.0
C      1  0.4794500000000  0.5849980000000  0.5141390000000 1.0
C      1  0.4470050000000  0.4876840000000  0.5249080000000 1.0
C      1  0.4527590000000  0.5275810000000  0.5010200000000 1.0
C      1  0.5323430000000  0.4974920000000  0.5186050000000 1.0
C      1  0.5317440000000  0.5012070000000  0.4250420000000 1.0
C      1  0.4432220000000  0.5436250000000  0.4581500000000 1.0
C      1  0.4690030000000  0.5750510000000  0.5394540000000 1.0
C      1  0.5490830000000  0.4495930000000  0.5389060000000 1.0
C      1  0.5471560000000  0.5656930000000  0.4990290000000 1.0
C      1  0.5304290000000  0.5413460000000  0.5613280000000 1.0
C      1  0.4731630000000  0.4213050000000  0.5044010000000 1.0
C      1  0.5609780000000  0.4576330000000  0.4620280000000 1.0
C      1  0.5503230000000  0.4899090000000  0.4979010000000 1.0
C      1  0.5723850000000  0.5263280000000  0.4876980000000 1.0
C      1  0.5064620000000  0.5166010000000  0.4233740000000 1.0
C      1  0.5058080000000  0.4834330000000  0.5203550000000 1.0
C      1  0.4661810000000  0.5595280000000  0.4453960000000 1.0
C      1  0.4710030000000  0.5681220000000  0.4904260000000 1.0
C      1  0.4906930000000  0.4173530000000  0.5289900000000 1.0
C      1  0.5063350000000  0.4550360000000  0.5126530000000 1.0
C      1  0.5780200000000  0.4513620000000  0.5027080000000 1.0
C      1  0.5397990000000  0.4702660000000  0.4805380000000 1.0
C      1  0.5452720000000  0.4951590000000  0.5461200000000 1.0
C      1  0.4357740000000  0.4817090000000  0.4775870000000 1.0
C      1  0.5157670000000  0.4811720000000  0.4688930000000 1.0
C      1  0.5764230000000  0.5003790000000  0.4975120000000 1.0
C      1  0.4771420000000  0.4619540000000  0.5489640000000 1.0
C      1  0.5030010000000  0.5051250000000  0.4823260000000 1.0
C      1  0.5531760000000  0.4390560000000  0.5127590000000 1.0
C      1  0.4948110000000  0.4574200000000  0.4672730000000 1.0
C      1  0.5065610000000  0.5895900000000  0.5144870000000 1.0
C      1  0.4301070000000  0.5170380000000  0.4542800000000 1.0
C      1  0.4444250000000  0.5520220000000  0.4850590000000 1.0
C      1  0.4155910000000  0.5061440000000  0.4774190000000 1.0
C      1  0.5822950000000  0.4494360000000  0.4759550000000 1.0
C      1  0.5427210000000  0.5249910000000  0.4394660000000 1.0
C      1  0.5798870000000  0.4770890000000  0.5153120000000 1.0
C      1  0.5653240000000  0.4739310000000  0.5405870000000 1.0
C      1  0.4061740000000  0.5212500000000  0.4975370000000 1.0
C      1  0.4951650000000  0.4870510000000  0.5474110000000 1.0
C      1  0.5276530000000  0.5729970000000  0.5194350000000 1.0
C      1  0.4678380000000  0.4865680000000  0.4353030000000 1.0
C      1  0.4519540000000  0.5073320000000  0.5454520000000 1.0
C      1  0.4508130000000  0.5558790000000  0.5465360000000 1.0
C      1  0.4725450000000  0.5326700000000  0.4492710000000 1.0
C      1  0.5107800000000  0.5540040000000  0.4615510000000 1.0
C      1  0.4254370000000  0.5356810000000  0.5107570000000 1.0
C      1  0.5209200000000  0.4811390000000  0.5619920000000 1.0
C      1  0.5247980000000  0.5036640000000  0.5812210000000 1.0
C      1  0.4824050000000  0.5144700000000  0.5472140000000 1.0
C      1  0.4434810000000  0.4915050000000  0.4496990000000 1.0
C      1  0.4538230000000  0.4978170000000  0.4988830000000 1.0
C      1  0.4797730000000  0.5119330000000  0.4301330000000 1.0
C      1  0.4846180000000  0.4638090000000  0.4397160000000 1.0
C      1  0.4560500000000  0.4619390000000  0.5287180000000 1.0
C      1  0.5329360000000  0.4728650000000  0.4232420000000 1.0
C      1  0.5540850000000  0.5347930000000  0.4638620000000 1.0
C      1  0.5113160000000  0.5288810000000  0.5800930000000 1.0
C      1  0.5080380000000  0.4567300000000  0.4258020000000 1.0
C      1  0.4830570000000  0.4603080000000  0.4941200000000 1.0
C      1  0.5123300000000  0.4333630000000  0.4704450000000 1.0
C      1  0.4575530000000  0.4465700000000  0.5032820000000 1.0
C      1  0.4576500000000  0.4669710000000  0.5725330000000 1.0
C      1  0.4983270000000  0.5323350000000  0.5237550000000 1.0
C      1  0.5105830000000  0.4079610000000  0.5108690000000 1.0
C      1  0.4462160000000  0.4895370000000  0.5710680000000 1.0
C      1  0.4857500000000  0.5332650000000  0.5702600000000 1.0
C      1  0.4845000000000  0.5709240000000  0.4639270000000 1.0
END
