TITL C-26364-7887-9 0.0296802422394837 125000 -379.873737323815 0 0 55 (C1) n - 1
REM
REM in /rds/project/t2_vol4/rds-t2-cs072/BORA/CARBON/from-Arr/AIRSS/Generating-Clusters/GAP-ML-2020/Only-C1/SD-CG/HFTN-CG
REM
REM
REM
REM
REM
REM ./C.cell (11c1c37f851c82e70ff6c80c92926a4b)
REM AIRSS Version 0.9.1 bugfix July 2018 build 013d7b7c2542+ Fri, 06 Jul 2018 19:26:36 +0100
REM compiler GCC version 9.3.0
REM options -cpp -mtune=generic -march=x86-64 -g -O0
REM seed -1912949084 585063703 -1481142882 565180663 1116556492 919828827 -931664195 227514361 -91059903 194860268 890719657 -2009091273 -1374064293 337228344 1386194423 1883485436 -864790163 1006867558 1510582073 -795615183 -882886071 1302083169 -1291835590 -1090468110 -1867489832 729525390 1513468411 111649198 908232265 -1560497596 283835809 -1105157053 -1036628045
REM
CELL 1.54180   50.00000   50.00000   50.00000   90.00000   90.00000   90.00000
LATT -1
SFAC C  
C      1  0.5232530000000  0.5228390000000  0.4434120000000 1.0
C      1  0.5660350000000  0.4672100000000  0.4627350000000 1.0
C      1  0.4971420000000  0.5343780000000  0.4414180000000 1.0
C      1  0.4942650000000  0.5563600000000  0.4576600000000 1.0
C      1  0.5698930000000  0.5144820000000  0.4925520000000 1.0
C      1  0.4672400000000  0.4941840000000  0.4948760000000 1.0
C      1  0.5467750000000  0.5177880000000  0.5425350000000 1.0
C      1  0.4878660000000  0.4427400000000  0.5419950000000 1.0
C      1  0.4849150000000  0.4668750000000  0.4545640000000 1.0
C      1  0.4684510000000  0.5456050000000  0.5267030000000 1.0
C      1  0.4486630000000  0.4536630000000  0.4839930000000 1.0
C      1  0.5105030000000  0.5141540000000  0.5007490000000 1.0
C      1  0.4588590000000  0.5003620000000  0.5519520000000 1.0
C      1  0.4740250000000  0.4613330000000  0.5582000000000 1.0
C      1  0.4935310000000  0.5618120000000  0.4843400000000 1.0
C      1  0.5513020000000  0.4910790000000  0.5325250000000 1.0
C      1  0.5139290000000  0.4432600000000  0.5036570000000 1.0
C      1  0.4819980000000  0.4793100000000  0.5138850000000 1.0
C      1  0.5109040000000  0.4939560000000  0.5594210000000 1.0
C      1  0.4741110000000  0.4470440000000  0.4729200000000 1.0
C      1  0.4684730000000  0.4879360000000  0.4424190000000 1.0
C      1  0.5255310000000  0.5560990000000  0.5249870000000 1.0
C      1  0.4542860000000  0.5204890000000  0.5318390000000 1.0
C      1  0.4476140000000  0.4447180000000  0.5113510000000 1.0
C      1  0.4346060000000  0.4615680000000  0.5288500000000 1.0
C      1  0.5083450000000  0.4797470000000  0.4645250000000 1.0
C      1  0.4519780000000  0.5335420000000  0.4848780000000 1.0
C      1  0.4488030000000  0.4732880000000  0.5478560000000 1.0
C      1  0.4435850000000  0.4942620000000  0.4559780000000 1.0
C      1  0.5141480000000  0.4488890000000  0.5327480000000 1.0
C      1  0.5269950000000  0.4943720000000  0.4461470000000 1.0
C      1  0.5635270000000  0.5148540000000  0.4646510000000 1.0
C      1  0.5639860000000  0.4901940000000  0.5069050000000 1.0
C      1  0.5438940000000  0.5351170000000  0.4590490000000 1.0
C      1  0.4837530000000  0.5559870000000  0.5468220000000 1.0
C      1  0.5255580000000  0.4763290000000  0.5392670000000 1.0
C      1  0.5535430000000  0.4703070000000  0.4874300000000 1.0
C      1  0.5215300000000  0.5205130000000  0.5552850000000 1.0
C      1  0.4930510000000  0.5067020000000  0.4802680000000 1.0
C      1  0.5602120000000  0.5392520000000  0.5014650000000 1.0
C      1  0.4479870000000  0.5132400000000  0.5051430000000 1.0
C      1  0.5093170000000  0.5461930000000  0.5462010000000 1.0
C      1  0.5420830000000  0.5515670000000  0.4825770000000 1.0
C      1  0.5195070000000  0.5622860000000  0.4973230000000 1.0
C      1  0.4887570000000  0.4344410000000  0.4947080000000 1.0
C      1  0.5236710000000  0.4669610000000  0.4896600000000 1.0
C      1  0.4439820000000  0.4817760000000  0.4803830000000 1.0
C      1  0.4722700000000  0.4326730000000  0.5187150000000 1.0
C      1  0.5551360000000  0.4900920000000  0.4535770000000 1.0
C      1  0.5497450000000  0.5410110000000  0.5267630000000 1.0
C      1  0.4838680000000  0.4879040000000  0.5633200000000 1.0
C      1  0.4519380000000  0.5224140000000  0.4587230000000 1.0
C      1  0.4740730000000  0.5171820000000  0.4407420000000 1.0
C      1  0.4697890000000  0.5517020000000  0.4979120000000 1.0
C      1  0.5108030000000  0.4879600000000  0.5114400000000 1.0
END
