TITL C-26360-8390-2 -5.36349360118935 125000 -158.95190143003 0 0 25 (C1) n - 1
REM
REM in /rds/project/t2_vol4/rds-t2-cs072/BORA/CARBON/from-Arr/AIRSS/Generating-Clusters/GAP-ML-2020/Only-C1/SD-CG/HFTN-CG
REM
REM
REM
REM
REM
REM ./C.cell (11c1c37f851c82e70ff6c80c92926a4b)
REM AIRSS Version 0.9.1 bugfix July 2018 build 013d7b7c2542+ Fri, 06 Jul 2018 19:26:36 +0100
REM compiler GCC version 9.3.0
REM options -cpp -mtune=generic -march=x86-64 -g -O0
REM seed 609286172 -1615019659 1392795367 -62116260 1539000270 2084094170 1553228281 1332110624 458620793 -935908833 682790958 -485345474 -123032431 -1200951919 -1425042015 -1173439534 -743928856 -1005712090 731020513 -1874146519 1708200436 391821476 982636614 998646250 1583447370 -337388837 1009788994 699841217 -1249287597 739047594 945141811 -1590389913 -638181840
REM
CELL 1.54180   50.00000   50.00000   50.00000   90.00000   90.00000   90.00000
LATT -1
SFAC C  
C      1  0.4775020000000  0.4698560000000  0.4684710000000 1.0
C      1  0.4993660000000  0.4709210000000  0.5408920000000 1.0
C      1  0.5051370000000  0.5352500000000  0.4599700000000 1.0
C      1  0.5356040000000  0.4808330000000  0.5428180000000 1.0
C      1  0.5401780000000  0.5055580000000  0.4927850000000 1.0
C      1  0.4414100000000  0.5070420000000  0.5212730000000 1.0
C      1  0.5323760000000  0.4943760000000  0.4672550000000 1.0
C      1  0.5308430000000  0.4998160000000  0.5639730000000 1.0
C      1  0.4913480000000  0.4489030000000  0.4618960000000 1.0
C      1  0.5275790000000  0.5224340000000  0.5281840000000 1.0
C      1  0.5350750000000  0.4672280000000  0.4599910000000 1.0
C      1  0.4506550000000  0.5294210000000  0.4837660000000 1.0
C      1  0.4876010000000  0.4959050000000  0.5406110000000 1.0
C      1  0.5182940000000  0.4479190000000  0.4587600000000 1.0
C      1  0.5425910000000  0.4979410000000  0.5198780000000 1.0
C      1  0.5208640000000  0.4562620000000  0.5406190000000 1.0
C      1  0.4540990000000  0.5434030000000  0.4616330000000 1.0
C      1  0.4848660000000  0.4965380000000  0.4722650000000 1.0
C      1  0.4303230000000  0.5189770000000  0.5009740000000 1.0
C      1  0.4693630000000  0.5053750000000  0.5219290000000 1.0
C      1  0.4779790000000  0.5175310000000  0.4939360000000 1.0
C      1  0.5261150000000  0.5307220000000  0.5015230000000 1.0
C      1  0.5109930000000  0.5139840000000  0.5500470000000 1.0
C      1  0.5021200000000  0.5360860000000  0.4874890000000 1.0
C      1  0.5077180000000  0.5077190000000  0.4590630000000 1.0
END
