TITL C-2681982-5927-7 88.5941278043383 125000 -271.746616211882 0 0 40 (C1) n - 1
REM
REM in /nfs/bkarasulu/CARBON/AIRSS/Generating-Clusters/GAP-ML-2020/Only-C1/SD-CG/HFTN-CG
REM
REM
REM
REM
REM
REM ./C.cell (11c1c37f851c82e70ff6c80c92926a4b)
REM
REM compiler GCC version 9.2.1 20190827 (Red Hat 9.2.1-1)
REM options -cpp -mtune=generic -march=x86-64 -g -O0 -fpre-include=/usr/include/finclude/math-vector-fortran.h
REM seed 1571074981 2001654183 -685007433 1313529234 -1741319431 -1671657076 -1433994316 293054772 -1446007048 -1996234115 1003725416 1717639812 1878017708 56769597 1889397500 -464506943 -877013446 -1489060630 945328580 -109876480 331958527 2003280236 500286766 1877808864 -1937527504 659038330 370776901 432412965 1866953597 -36166886 737642930 -18506557 -1227605054
REM
CELL 1.54180   50.00000   50.00000   50.00000   90.00000   90.00000   90.00000
LATT -1
SFAC C  
C      1  0.4481890000000  0.4791150000000  0.5519570000000 1.0
C      1  0.5697850000000  0.5183210000000  0.4832120000000 1.0
C      1  0.5240570000000  0.5438900000000  0.4716420000000 1.0
C      1  0.4456430000000  0.5152110000000  0.4961180000000 1.0
C      1  0.5066270000000  0.5462420000000  0.5230740000000 1.0
C      1  0.5250680000000  0.5241230000000  0.5250250000000 1.0
C      1  0.4983400000000  0.5262070000000  0.4482500000000 1.0
C      1  0.5321930000000  0.4943610000000  0.4637250000000 1.0
C      1  0.5148100000000  0.4525860000000  0.4862260000000 1.0
C      1  0.5555220000000  0.4742370000000  0.5010310000000 1.0
C      1  0.5369020000000  0.4705020000000  0.4802300000000 1.0
C      1  0.4734350000000  0.5338030000000  0.4619020000000 1.0
C      1  0.5074990000000  0.4977540000000  0.4489120000000 1.0
C      1  0.5047400000000  0.4491320000000  0.5146300000000 1.0
C      1  0.4746510000000  0.4504910000000  0.5139740000000 1.0
C      1  0.4683600000000  0.4508210000000  0.4860830000000 1.0
C      1  0.5199310000000  0.4633540000000  0.5353260000000 1.0
C      1  0.5119160000000  0.5074920000000  0.5036200000000 1.0
C      1  0.4540990000000  0.5142440000000  0.4677140000000 1.0
C      1  0.4537910000000  0.4696780000000  0.5263640000000 1.0
C      1  0.4916820000000  0.4553690000000  0.4697580000000 1.0
C      1  0.4868360000000  0.4787720000000  0.4529950000000 1.0
C      1  0.5735590000000  0.5129070000000  0.5196230000000 1.0
C      1  0.5433450000000  0.4780430000000  0.5272330000000 1.0
C      1  0.4526300000000  0.5032270000000  0.5599080000000 1.0
C      1  0.5046590000000  0.5536950000000  0.4941700000000 1.0
C      1  0.5443720000000  0.5198460000000  0.4726950000000 1.0
C      1  0.5482280000000  0.5089530000000  0.5317210000000 1.0
C      1  0.5154480000000  0.5478990000000  0.4459500000000 1.0
C      1  0.4594710000000  0.4875410000000  0.4593650000000 1.0
C      1  0.5048320000000  0.4775650000000  0.5544600000000 1.0
C      1  0.4421950000000  0.4859280000000  0.5033100000000 1.0
C      1  0.5755300000000  0.4954230000000  0.4982060000000 1.0
C      1  0.4788240000000  0.5390420000000  0.5320290000000 1.0
C      1  0.4611980000000  0.5377040000000  0.5081990000000 1.0
C      1  0.4901770000000  0.4959800000000  0.5023230000000 1.0
C      1  0.4494440000000  0.4708670000000  0.4802890000000 1.0
C      1  0.4759900000000  0.5186520000000  0.5532050000000 1.0
C      1  0.4987350000000  0.5016990000000  0.5590260000000 1.0
C      1  0.4772850000000  0.5493230000000  0.4865210000000 1.0
END
