TITL C-260492-6682-5 -0.0345764817965707 125000 -136.112911143615 0 0 21 (C1) n - 1
REM
REM in /rds/project/t2_vol4/rds-t2-cs072/BORA/CARBON/from-Arr/AIRSS/Generating-Clusters/GAP-ML-2020/Only-C1/SD-CG/HFTN-CG
REM
REM
REM
REM
REM
REM ./C.cell (11c1c37f851c82e70ff6c80c92926a4b)
REM AIRSS Version 0.9.1 bugfix July 2018 build 013d7b7c2542+ Fri, 06 Jul 2018 19:26:36 +0100
REM compiler GCC version 9.3.0
REM options -cpp -mtune=generic -march=x86-64 -g -O0
REM seed -563214482 -2008022495 -341762139 1305112175 -1921423777 919473304 1269332127 1111682544 1569817732 -1731870877 -239430756 1126731220 -1814246903 1554653190 -829230200 -1044637129 1019084008 721495837 1166075003 -727632345 -745931268 565051292 2069264381 666550038 1620045925 -804803265 -96914025 -2032670316 -1722010055 -281015948 1077531429 49456691 -1535789544
REM
CELL 1.54180   50.00000   50.00000   50.00000   90.00000   90.00000   90.00000
LATT -1
SFAC C  
C      1  0.5164610000000  0.4790230000000  0.4574580000000 1.0
C      1  0.5725100000000  0.5245230000000  0.4987520000000 1.0
C      1  0.5603930000000  0.5031090000000  0.5056810000000 1.0
C      1  0.5007310000000  0.4594040000000  0.4714570000000 1.0
C      1  0.5467930000000  0.4805280000000  0.5057150000000 1.0
C      1  0.4649530000000  0.4669460000000  0.5212780000000 1.0
C      1  0.4673410000000  0.5158370000000  0.5127440000000 1.0
C      1  0.4715180000000  0.5237250000000  0.5389870000000 1.0
C      1  0.5099510000000  0.5561540000000  0.5166060000000 1.0
C      1  0.4870610000000  0.5404040000000  0.5506160000000 1.0
C      1  0.4819390000000  0.5284450000000  0.4905060000000 1.0
C      1  0.5067120000000  0.5031760000000  0.4568610000000 1.0
C      1  0.4733580000000  0.4631120000000  0.4661900000000 1.0
C      1  0.4854570000000  0.4529360000000  0.5161040000000 1.0
C      1  0.5024560000000  0.5470690000000  0.4940010000000 1.0
C      1  0.4642740000000  0.4875060000000  0.4760220000000 1.0
C      1  0.4822420000000  0.5099920000000  0.4685980000000 1.0
C      1  0.5072140000000  0.5567010000000  0.5427770000000 1.0
C      1  0.4592900000000  0.4894110000000  0.5045730000000 1.0
C      1  0.5073380000000  0.4513900000000  0.4982460000000 1.0
C      1  0.5320060000000  0.4606090000000  0.5068260000000 1.0
END
