TITL C-26362-7933-7 -0.00138350680563648 125000 -191.994151591069 0 0 30 (C1) n - 1
REM
REM in /rds/project/t2_vol4/rds-t2-cs072/BORA/CARBON/from-Arr/AIRSS/Generating-Clusters/GAP-ML-2020/Only-C1/SD-CG/HFTN-CG
REM
REM
REM
REM
REM
REM ./C.cell (11c1c37f851c82e70ff6c80c92926a4b)
REM AIRSS Version 0.9.1 bugfix July 2018 build 013d7b7c2542+ Fri, 06 Jul 2018 19:26:36 +0100
REM compiler GCC version 9.3.0
REM options -cpp -mtune=generic -march=x86-64 -g -O0
REM seed -1042793239 1694781566 589473904 676888285 -47390691 905004098 1366370353 1723760662 -1240388054 -1929473134 526922383 -492654024 -300470235 862896455 -400380205 -905488787 -1884575345 -1249492576 -779301083 2118649876 -1425866812 -1303456600 -356086942 -687242705 -951413360 -171059901 -1024347060 1040757103 1177454565 -196415044 -2132457821 -225829308 -1519304293
REM
CELL 1.54180   50.00000   50.00000   50.00000   90.00000   90.00000   90.00000
LATT -1
SFAC C  
C      1  0.4841070000000  0.5329160000000  0.5077100000000 1.0
C      1  0.5511970000000  0.5143890000000  0.5444260000000 1.0
C      1  0.4779000000000  0.4805090000000  0.4366780000000 1.0
C      1  0.4899040000000  0.5746050000000  0.5379240000000 1.0
C      1  0.4860420000000  0.5238450000000  0.4474200000000 1.0
C      1  0.4831790000000  0.4843340000000  0.5339540000000 1.0
C      1  0.4646210000000  0.5033060000000  0.4436840000000 1.0
C      1  0.4594340000000  0.4816250000000  0.5173550000000 1.0
C      1  0.5498410000000  0.5022710000000  0.5204370000000 1.0
C      1  0.5057890000000  0.5144950000000  0.5052840000000 1.0
C      1  0.4897280000000  0.4924480000000  0.5592110000000 1.0
C      1  0.5053360000000  0.4862070000000  0.5157330000000 1.0
C      1  0.5115410000000  0.5001950000000  0.5712070000000 1.0
C      1  0.5222150000000  0.5155940000000  0.4832310000000 1.0
C      1  0.4486870000000  0.4988350000000  0.4663450000000 1.0
C      1  0.5364400000000  0.4578680000000  0.5026120000000 1.0
C      1  0.4391680000000  0.5214710000000  0.4800420000000 1.0
C      1  0.5146030000000  0.4642640000000  0.4678960000000 1.0
C      1  0.4333200000000  0.4762110000000  0.5161280000000 1.0
C      1  0.4667040000000  0.4937160000000  0.4905130000000 1.0
C      1  0.5062730000000  0.5103970000000  0.4604290000000 1.0
C      1  0.5354400000000  0.5097780000000  0.5650430000000 1.0
C      1  0.5432090000000  0.4652800000000  0.4750090000000 1.0
C      1  0.5586670000000  0.4887290000000  0.4735570000000 1.0
C      1  0.5474840000000  0.5079110000000  0.4907160000000 1.0
C      1  0.5079000000000  0.4595680000000  0.4955550000000 1.0
C      1  0.4856380000000  0.5553420000000  0.5221030000000 1.0
C      1  0.4613470000000  0.5236250000000  0.4962350000000 1.0
C      1  0.5011310000000  0.4819120000000  0.4518370000000 1.0
C      1  0.5331580000000  0.4783540000000  0.5217230000000 1.0
END
