TITL C-260533-2510-1 19.7364750889941 125000 -760.859138085766 0 0 109 (C1) n - 1
REM
REM in /rds/project/t2_vol4/rds-t2-cs072/BORA/CARBON/from-Arr/AIRSS/Generating-Clusters/GAP-ML-2020/Only-C1/SD-CG/HFTN-CG
REM
REM
REM
REM
REM
REM ./C.cell (11c1c37f851c82e70ff6c80c92926a4b)
REM AIRSS Version 0.9.1 bugfix July 2018 build 013d7b7c2542+ Fri, 06 Jul 2018 19:26:36 +0100
REM compiler GCC version 9.3.0
REM options -cpp -mtune=generic -march=x86-64 -g -O0
REM seed 1376502124 -312159348 998707195 -1679592383 1389798430 -166942821 1075601767 2095276074 -1539028248 1452594462 1930372043 -1589189844 -520844110 986746623 1852580614 1312377458 325557004 434859419 -871783551 -673844600 190042958 1496553323 -496180199 -451491818 -1858880272 -2064239797 771832763 -1960271940 -264584289 -1615067785 -296886107 1352289881 501674168
REM
CELL 1.54180   50.00000   50.00000   50.00000   90.00000   90.00000   90.00000
LATT -1
SFAC C  
C      1  0.5013790000000  0.4225830000000  0.5436870000000 1.0
C      1  0.5841640000000  0.4912330000000  0.5199190000000 1.0
C      1  0.5449480000000  0.4682850000000  0.5802530000000 1.0
C      1  0.4959200000000  0.4632650000000  0.4543430000000 1.0
C      1  0.5215530000000  0.5617050000000  0.4393720000000 1.0
C      1  0.5200820000000  0.4747600000000  0.5931530000000 1.0
C      1  0.6001150000000  0.4761130000000  0.4773220000000 1.0
C      1  0.4207630000000  0.4872630000000  0.5149100000000 1.0
C      1  0.5020040000000  0.4540790000000  0.5844060000000 1.0
C      1  0.5282720000000  0.5624840000000  0.5321870000000 1.0
C      1  0.4766470000000  0.5752690000000  0.5453770000000 1.0
C      1  0.5071190000000  0.5277270000000  0.4187200000000 1.0
C      1  0.4535350000000  0.4713380000000  0.4292140000000 1.0
C      1  0.4754670000000  0.4143740000000  0.5384600000000 1.0
C      1  0.5453470000000  0.4651540000000  0.4631780000000 1.0
C      1  0.4172430000000  0.5091080000000  0.4731350000000 1.0
C      1  0.4585520000000  0.4298750000000  0.4917060000000 1.0
C      1  0.5159440000000  0.5878710000000  0.5209480000000 1.0
C      1  0.5075130000000  0.4189370000000  0.4927320000000 1.0
C      1  0.5222780000000  0.4816420000000  0.4229250000000 1.0
C      1  0.4485410000000  0.4959520000000  0.5629990000000 1.0
C      1  0.4964020000000  0.5534790000000  0.4277450000000 1.0
C      1  0.5411820000000  0.5141940000000  0.5817500000000 1.0
C      1  0.4878810000000  0.5141690000000  0.5873720000000 1.0
C      1  0.5409210000000  0.4446730000000  0.5101900000000 1.0
C      1  0.5194330000000  0.4806190000000  0.4530980000000 1.0
C      1  0.4393420000000  0.4374400000000  0.4693420000000 1.0
C      1  0.5180330000000  0.5135700000000  0.5388460000000 1.0
C      1  0.5774310000000  0.5186300000000  0.4586840000000 1.0
C      1  0.5149460000000  0.4353890000000  0.5656300000000 1.0
C      1  0.4771530000000  0.5394950000000  0.5761630000000 1.0
C      1  0.4498890000000  0.5412410000000  0.5638630000000 1.0
C      1  0.5219570000000  0.5581930000000  0.5616560000000 1.0
C      1  0.5048290000000  0.4894880000000  0.5362230000000 1.0
C      1  0.5185650000000  0.4503670000000  0.4191400000000 1.0
C      1  0.4209380000000  0.5372160000000  0.5149140000000 1.0
C      1  0.5162270000000  0.5810970000000  0.4605900000000 1.0
C      1  0.5080470000000  0.5366580000000  0.5220490000000 1.0
C      1  0.5575490000000  0.4909510000000  0.5700830000000 1.0
C      1  0.4533280000000  0.5175990000000  0.4402490000000 1.0
C      1  0.4978990000000  0.5014250000000  0.4171990000000 1.0
C      1  0.4638390000000  0.5382110000000  0.4585830000000 1.0
C      1  0.5360070000000  0.5919550000000  0.4787330000000 1.0
C      1  0.4644700000000  0.4811550000000  0.4802010000000 1.0
C      1  0.4803360000000  0.5316820000000  0.5273020000000 1.0
C      1  0.5573600000000  0.5194360000000  0.4360190000000 1.0
C      1  0.4201550000000  0.5137720000000  0.5303580000000 1.0
C      1  0.5311610000000  0.5324940000000  0.4370400000000 1.0
C      1  0.4503960000000  0.5634640000000  0.5456880000000 1.0
C      1  0.5799170000000  0.5320940000000  0.4854890000000 1.0
C      1  0.5835320000000  0.5184450000000  0.5107500000000 1.0
C      1  0.4800750000000  0.4670460000000  0.5734180000000 1.0
C      1  0.5817160000000  0.4741420000000  0.4979080000000 1.0
C      1  0.4726710000000  0.4782650000000  0.4533150000000 1.0
C      1  0.5671410000000  0.5575950000000  0.4952120000000 1.0
C      1  0.5526820000000  0.4537660000000  0.5363760000000 1.0
C      1  0.4679700000000  0.5096010000000  0.5176920000000 1.0
C      1  0.4776290000000  0.5612810000000  0.4476480000000 1.0
C      1  0.4507560000000  0.5679100000000  0.4966760000000 1.0
C      1  0.4299850000000  0.5043680000000  0.4485130000000 1.0
C      1  0.4753620000000  0.5819450000000  0.4944730000000 1.0
C      1  0.4887330000000  0.5787960000000  0.4681880000000 1.0
C      1  0.4436060000000  0.5490280000000  0.4769890000000 1.0
C      1  0.5505550000000  0.4688020000000  0.4928850000000 1.0
C      1  0.4290800000000  0.4767150000000  0.4429440000000 1.0
C      1  0.4371010000000  0.5604960000000  0.5210950000000 1.0
C      1  0.4544040000000  0.4217180000000  0.5229890000000 1.0
C      1  0.5395090000000  0.4367340000000  0.4593440000000 1.0
C      1  0.5155500000000  0.5034950000000  0.5926820000000 1.0
C      1  0.5408010000000  0.4463660000000  0.5612330000000 1.0
C      1  0.4900920000000  0.4581650000000  0.5150160000000 1.0
C      1  0.5655750000000  0.4766770000000  0.4445640000000 1.0
C      1  0.5047210000000  0.4841540000000  0.5070070000000 1.0
C      1  0.5514080000000  0.4931750000000  0.4265710000000 1.0
C      1  0.5358690000000  0.4337340000000  0.4323560000000 1.0
C      1  0.4629000000000  0.4451670000000  0.4250870000000 1.0
C      1  0.5634150000000  0.5289780000000  0.5285870000000 1.0
C      1  0.4872640000000  0.5861720000000  0.5208960000000 1.0
C      1  0.4639640000000  0.4583830000000  0.4996720000000 1.0
C      1  0.4384740000000  0.4402390000000  0.5347700000000 1.0
C      1  0.4828360000000  0.4177460000000  0.4788880000000 1.0
C      1  0.4927080000000  0.5610420000000  0.5652850000000 1.0
C      1  0.4159670000000  0.4840600000000  0.4870340000000 1.0
C      1  0.5601100000000  0.5789650000000  0.4805840000000 1.0
C      1  0.4805350000000  0.4206140000000  0.4511140000000 1.0
C      1  0.4712400000000  0.4973110000000  0.4290150000000 1.0
C      1  0.5337860000000  0.4257180000000  0.4850720000000 1.0
C      1  0.5277780000000  0.6042640000000  0.5026240000000 1.0
C      1  0.5861880000000  0.4910380000000  0.4591000000000 1.0
C      1  0.4923970000000  0.4423210000000  0.4324640000000 1.0
C      1  0.4410250000000  0.4663700000000  0.5220280000000 1.0
C      1  0.4230910000000  0.5326720000000  0.4867410000000 1.0
C      1  0.4828920000000  0.4714880000000  0.5436400000000 1.0
C      1  0.5313120000000  0.5163340000000  0.4846570000000 1.0
C      1  0.4913200000000  0.5225520000000  0.4754230000000 1.0
C      1  0.4530820000000  0.4283490000000  0.4459410000000 1.0
C      1  0.5097790000000  0.4351570000000  0.5173490000000 1.0
C      1  0.5114920000000  0.5353680000000  0.4934310000000 1.0
C      1  0.5444630000000  0.5059420000000  0.5290600000000 1.0
C      1  0.5167530000000  0.5110840000000  0.4596490000000 1.0
C      1  0.5550070000000  0.5543760000000  0.5218370000000 1.0
C      1  0.5627100000000  0.4840070000000  0.5403060000000 1.0
C      1  0.5343920000000  0.4936170000000  0.5016880000000 1.0
C      1  0.4335850000000  0.5183930000000  0.5564680000000 1.0
C      1  0.5380790000000  0.5398040000000  0.5732910000000 1.0
C      1  0.4698420000000  0.4925670000000  0.5814770000000 1.0
C      1  0.4581520000000  0.4851860000000  0.5375250000000 1.0
C      1  0.4234560000000  0.4625530000000  0.4671830000000 1.0
C      1  0.4805050000000  0.5005690000000  0.4931230000000 1.0
END
