TITL C-26389-1714-1 0.137811891438919 125000 -127.984532260527 0 0 20 (C1) n - 1
REM
REM in /rds/project/t2_vol4/rds-t2-cs072/BORA/CARBON/from-Arr/AIRSS/Generating-Clusters/GAP-ML-2020/Only-C1/SD-CG/HFTN-CG
REM
REM
REM
REM
REM
REM ./C.cell (11c1c37f851c82e70ff6c80c92926a4b)
REM AIRSS Version 0.9.1 bugfix July 2018 build 013d7b7c2542+ Fri, 06 Jul 2018 19:26:36 +0100
REM compiler GCC version 9.3.0
REM options -cpp -mtune=generic -march=x86-64 -g -O0
REM seed -713305609 -657218032 336297025 -1336084822 865439344 331251756 -376615099 -445296796 -493928925 1868397610 425778411 -847784437 953001233 -679691659 1117987035 -403232220 -221292907 1805720077 -1982468034 -208640714 626033883 1202303719 1057838832 -50560910 -376397181 -1205852506 -1471947141 -695086553 -744987731 309281833 -939154831 -606491743 1860069302
REM
CELL 1.54180   50.00000   50.00000   50.00000   90.00000   90.00000   90.00000
LATT -1
SFAC C  
C      1  0.5418900000000  0.5014910000000  0.4766770000000 1.0
C      1  0.4846560000000  0.5626320000000  0.5521740000000 1.0
C      1  0.4845900000000  0.4880580000000  0.4718170000000 1.0
C      1  0.4870960000000  0.5306910000000  0.5109850000000 1.0
C      1  0.5013290000000  0.4526710000000  0.5128300000000 1.0
C      1  0.4769170000000  0.4595360000000  0.5103690000000 1.0
C      1  0.4734970000000  0.4847430000000  0.4978000000000 1.0
C      1  0.5569070000000  0.4861520000000  0.4951720000000 1.0
C      1  0.5303270000000  0.5253900000000  0.4828980000000 1.0
C      1  0.4815450000000  0.5135150000000  0.4611510000000 1.0
C      1  0.4592510000000  0.4900400000000  0.5591530000000 1.0
C      1  0.5270200000000  0.4486040000000  0.5122280000000 1.0
C      1  0.5301130000000  0.4850450000000  0.4564340000000 1.0
C      1  0.5044740000000  0.5323720000000  0.4867620000000 1.0
C      1  0.4705370000000  0.5076310000000  0.5142170000000 1.0
C      1  0.5077870000000  0.4749660000000  0.4639310000000 1.0
C      1  0.4908100000000  0.5377050000000  0.4601830000000 1.0
C      1  0.4584830000000  0.5042650000000  0.5385710000000 1.0
C      1  0.5448670000000  0.4660840000000  0.5050480000000 1.0
C      1  0.4879040000000  0.5484090000000  0.5316000000000 1.0
END
