TITL C-2681603-2985-19 -2.68418009184189 125000 -904.062131044708 0 0 129 (C1) n - 1
REM
REM in /nfs/bkarasulu/CARBON/AIRSS/Generating-Clusters/GAP-ML-2020/Only-C1/SD-CG/HFTN-CG
REM
REM
REM
REM
REM
REM ./C.cell (11c1c37f851c82e70ff6c80c92926a4b)
REM
REM compiler GCC version 9.2.1 20190827 (Red Hat 9.2.1-1)
REM options -cpp -mtune=generic -march=x86-64 -g -O0 -fpre-include=/usr/include/finclude/math-vector-fortran.h
REM seed 198713094 1373360736 -215749613 313197107 -1781632896 605661890 368103873 1836406623 912194017 1284530145 966327334 -172262787 -695821046 226455960 -50712667 -1621865435 428691085 -1344016646 -833581632 730640957 -1034148351 -987287051 -863692781 -377476975 -1533753959 -793365971 953096191 -1877688655 1624589135 -873271126 2079614503 1101765762 -1462869086
REM
CELL 1.54180   50.00000   50.00000   50.00000   90.00000   90.00000   90.00000
LATT -1
SFAC C  
C      1  0.4361110000000  0.5664780000000  0.4766150000000 1.0
C      1  0.5482100000000  0.5637550000000  0.4858410000000 1.0
C      1  0.5701020000000  0.5242000000000  0.5681380000000 1.0
C      1  0.4320530000000  0.4336310000000  0.4747460000000 1.0
C      1  0.4982820000000  0.4937300000000  0.5511390000000 1.0
C      1  0.4509170000000  0.4186040000000  0.4921970000000 1.0
C      1  0.4434770000000  0.4284260000000  0.5203780000000 1.0
C      1  0.4791710000000  0.5467030000000  0.4764870000000 1.0
C      1  0.4148540000000  0.5288660000000  0.5249160000000 1.0
C      1  0.4788750000000  0.4120560000000  0.4945170000000 1.0
C      1  0.4648680000000  0.5780160000000  0.5087680000000 1.0
C      1  0.4639490000000  0.5005100000000  0.5204620000000 1.0
C      1  0.4643530000000  0.4528800000000  0.5211830000000 1.0
C      1  0.4772710000000  0.4635230000000  0.4967290000000 1.0
C      1  0.5884740000000  0.5388090000000  0.4997190000000 1.0
C      1  0.4986360000000  0.5002480000000  0.4806640000000 1.0
C      1  0.4720790000000  0.4622020000000  0.4243010000000 1.0
C      1  0.5365130000000  0.4216660000000  0.5125870000000 1.0
C      1  0.5069320000000  0.5897740000000  0.4917990000000 1.0
C      1  0.4379800000000  0.4599370000000  0.4584410000000 1.0
C      1  0.5340570000000  0.4639140000000  0.5236030000000 1.0
C      1  0.5165410000000  0.4759820000000  0.4739150000000 1.0
C      1  0.5284260000000  0.4383700000000  0.4322620000000 1.0
C      1  0.4887440000000  0.4868650000000  0.4335880000000 1.0
C      1  0.5207580000000  0.5343920000000  0.5235080000000 1.0
C      1  0.5422050000000  0.4851250000000  0.4838850000000 1.0
C      1  0.5753350000000  0.5058460000000  0.4296500000000 1.0
C      1  0.5091570000000  0.5488670000000  0.4325940000000 1.0
C      1  0.5936270000000  0.5088320000000  0.5017400000000 1.0
C      1  0.5178450000000  0.5235380000000  0.4723270000000 1.0
C      1  0.4676250000000  0.5610830000000  0.5660840000000 1.0
C      1  0.5332080000000  0.5353100000000  0.4950980000000 1.0
C      1  0.5529520000000  0.4658110000000  0.4999870000000 1.0
C      1  0.5164170000000  0.4422450000000  0.5170170000000 1.0
C      1  0.5753190000000  0.4816890000000  0.5477510000000 1.0
C      1  0.4922740000000  0.5545700000000  0.5777850000000 1.0
C      1  0.5400220000000  0.4936260000000  0.5846960000000 1.0
C      1  0.4988460000000  0.5258690000000  0.5885980000000 1.0
C      1  0.5038680000000  0.4230400000000  0.4754590000000 1.0
C      1  0.5246490000000  0.4644090000000  0.4210900000000 1.0
C      1  0.5292540000000  0.5100270000000  0.4483300000000 1.0
C      1  0.4493270000000  0.5134070000000  0.4982760000000 1.0
C      1  0.5395280000000  0.4840070000000  0.4084110000000 1.0
C      1  0.5532670000000  0.4389510000000  0.4457630000000 1.0
C      1  0.4753210000000  0.4972180000000  0.4626280000000 1.0
C      1  0.4388320000000  0.4759280000000  0.5598680000000 1.0
C      1  0.5850480000000  0.4670800000000  0.4676730000000 1.0
C      1  0.5890650000000  0.5019320000000  0.5303480000000 1.0
C      1  0.4118370000000  0.4746360000000  0.4600540000000 1.0
C      1  0.4092510000000  0.4408870000000  0.4907140000000 1.0
C      1  0.5442020000000  0.5088230000000  0.4988510000000 1.0
C      1  0.4811790000000  0.4110440000000  0.5246950000000 1.0
C      1  0.4570760000000  0.4158470000000  0.5426320000000 1.0
C      1  0.4655940000000  0.5206240000000  0.4751640000000 1.0
C      1  0.4833200000000  0.5506210000000  0.4220490000000 1.0
C      1  0.5709330000000  0.4616040000000  0.4428860000000 1.0
C      1  0.5270300000000  0.4691470000000  0.5804720000000 1.0
C      1  0.5410240000000  0.5642750000000  0.5745240000000 1.0
C      1  0.5672040000000  0.5731980000000  0.5296020000000 1.0
C      1  0.4925350000000  0.4367730000000  0.5329410000000 1.0
C      1  0.4754520000000  0.5060530000000  0.5924700000000 1.0
C      1  0.5318560000000  0.5085190000000  0.5250350000000 1.0
C      1  0.4586490000000  0.5323200000000  0.5604240000000 1.0
C      1  0.5745180000000  0.5519600000000  0.4776200000000 1.0
C      1  0.5333020000000  0.4168190000000  0.4849950000000 1.0
C      1  0.4194280000000  0.4707570000000  0.5231680000000 1.0
C      1  0.4392640000000  0.5462460000000  0.4347590000000 1.0
C      1  0.5653210000000  0.4964150000000  0.5707110000000 1.0
C      1  0.5138230000000  0.4872070000000  0.5273620000000 1.0
C      1  0.4297140000000  0.5017330000000  0.5676860000000 1.0
C      1  0.4782530000000  0.5908370000000  0.4867970000000 1.0
C      1  0.4903130000000  0.4419980000000  0.5613650000000 1.0
C      1  0.5834760000000  0.5494260000000  0.5254280000000 1.0
C      1  0.5571130000000  0.4564610000000  0.5429360000000 1.0
C      1  0.4477110000000  0.4761310000000  0.5313330000000 1.0
C      1  0.5241110000000  0.5912330000000  0.5162440000000 1.0
C      1  0.4619660000000  0.5634900000000  0.4366620000000 1.0
C      1  0.4279390000000  0.5553830000000  0.5276870000000 1.0
C      1  0.5554630000000  0.4274990000000  0.4711440000000 1.0
C      1  0.4546160000000  0.4600110000000  0.5769040000000 1.0
C      1  0.4060920000000  0.4863920000000  0.5035180000000 1.0
C      1  0.5508110000000  0.5818230000000  0.5082630000000 1.0
C      1  0.5834870000000  0.4289860000000  0.5091210000000 1.0
C      1  0.4130320000000  0.5223080000000  0.4684920000000 1.0
C      1  0.4346510000000  0.4969300000000  0.4287730000000 1.0
C      1  0.4801230000000  0.5518820000000  0.5061590000000 1.0
C      1  0.5507730000000  0.5788890000000  0.5517570000000 1.0
C      1  0.4986660000000  0.4688780000000  0.5725880000000 1.0
C      1  0.4371980000000  0.5704320000000  0.5047170000000 1.0
C      1  0.4141830000000  0.5138990000000  0.5477710000000 1.0
C      1  0.5131960000000  0.5720160000000  0.5691510000000 1.0
C      1  0.5305250000000  0.5293600000000  0.4243220000000 1.0
C      1  0.4609570000000  0.4740580000000  0.4746170000000 1.0
C      1  0.5764150000000  0.5370080000000  0.4545680000000 1.0
C      1  0.5942390000000  0.4937700000000  0.4760410000000 1.0
C      1  0.4451190000000  0.4694030000000  0.4305020000000 1.0
C      1  0.5895410000000  0.5111690000000  0.4542590000000 1.0
C      1  0.4146590000000  0.5005200000000  0.4498790000000 1.0
C      1  0.5849800000000  0.5274120000000  0.5438210000000 1.0
C      1  0.4468430000000  0.5217890000000  0.4206450000000 1.0
C      1  0.4450600000000  0.5567270000000  0.5505820000000 1.0
C      1  0.5227500000000  0.5083520000000  0.4061670000000 1.0
C      1  0.3990310000000  0.4675380000000  0.4834010000000 1.0
C      1  0.4843080000000  0.4386190000000  0.4288410000000 1.0
C      1  0.4896500000000  0.4887010000000  0.5071620000000 1.0
C      1  0.4931490000000  0.5360860000000  0.5249890000000 1.0
C      1  0.5423330000000  0.4518860000000  0.5662420000000 1.0
C      1  0.4759530000000  0.4775510000000  0.5884550000000 1.0
C      1  0.4638240000000  0.4341310000000  0.5661670000000 1.0
C      1  0.4783970000000  0.5158310000000  0.5414860000000 1.0
C      1  0.5737680000000  0.4463730000000  0.4872140000000 1.0
C      1  0.4177670000000  0.5134590000000  0.4980540000000 1.0
C      1  0.5159400000000  0.4822420000000  0.4445620000000 1.0
C      1  0.5623110000000  0.4291770000000  0.5253260000000 1.0
C      1  0.4505050000000  0.5159600000000  0.5826640000000 1.0
C      1  0.5035520000000  0.4509900000000  0.4885390000000 1.0
C      1  0.5218600000000  0.5726820000000  0.4748840000000 1.0
C      1  0.5226870000000  0.5877490000000  0.5454620000000 1.0
C      1  0.5646520000000  0.4815640000000  0.4226900000000 1.0
C      1  0.5481110000000  0.5379970000000  0.5809550000000 1.0
C      1  0.5594400000000  0.5299510000000  0.4317230000000 1.0
C      1  0.4635480000000  0.5721490000000  0.4656030000000 1.0
C      1  0.4940390000000  0.5051280000000  0.4107070000000 1.0
C      1  0.5064490000000  0.5501000000000  0.4620890000000 1.0
C      1  0.5273340000000  0.5193450000000  0.5884120000000 1.0
C      1  0.4741160000000  0.5256750000000  0.4113620000000 1.0
C      1  0.4237530000000  0.5470030000000  0.4592710000000 1.0
C      1  0.4179710000000  0.4425840000000  0.5170410000000 1.0
C      1  0.5041550000000  0.4275990000000  0.4441140000000 1.0
END
