TITL C-260519-6842-10 7.26460139517589 125000 -927.409688039258 0 0 130 (C1) n - 1
REM
REM in /rds/project/t2_vol4/rds-t2-cs072/BORA/CARBON/from-Arr/AIRSS/Generating-Clusters/GAP-ML-2020/Only-C1/SD-CG/HFTN-CG
REM
REM
REM
REM
REM
REM ./C.cell (11c1c37f851c82e70ff6c80c92926a4b)
REM AIRSS Version 0.9.1 bugfix July 2018 build 013d7b7c2542+ Fri, 06 Jul 2018 19:26:36 +0100
REM compiler GCC version 9.3.0
REM options -cpp -mtune=generic -march=x86-64 -g -O0
REM seed -1978145538 1581425330 -704029045 1833524322 1151572868 -164833417 -2091272838 295935806 404626697 -1373442155 1510737839 73557582 98430980 -1900208386 -930599260 1082134558 -106286994 -617520246 1888795320 -686208118 -537727649 -2020844633 904481968 -1033575818 116983928 -1808415698 -1174436101 -1889577153 -59107838 712177192 1621749178 635642550 -601292111
REM
CELL 1.54180   50.00000   50.00000   50.00000   90.00000   90.00000   90.00000
LATT -1
SFAC C  
C      1  0.4541200000000  0.4743380000000  0.5446670000000 1.0
C      1  0.5808390000000  0.4933640000000  0.5007360000000 1.0
C      1  0.4690580000000  0.4181140000000  0.4509960000000 1.0
C      1  0.5226360000000  0.5814780000000  0.4414630000000 1.0
C      1  0.5805970000000  0.5470790000000  0.4811580000000 1.0
C      1  0.4813160000000  0.4082440000000  0.4766690000000 1.0
C      1  0.5812770000000  0.4630620000000  0.5034100000000 1.0
C      1  0.5574270000000  0.5217310000000  0.4262280000000 1.0
C      1  0.4818940000000  0.5901440000000  0.4811020000000 1.0
C      1  0.4439810000000  0.4316480000000  0.4499570000000 1.0
C      1  0.4216440000000  0.4986640000000  0.4441620000000 1.0
C      1  0.4185690000000  0.4669630000000  0.5145670000000 1.0
C      1  0.4378310000000  0.4878590000000  0.5233880000000 1.0
C      1  0.5525100000000  0.4611950000000  0.5659630000000 1.0
C      1  0.4889410000000  0.4507170000000  0.4117520000000 1.0
C      1  0.5605590000000  0.5851570000000  0.5132550000000 1.0
C      1  0.5246340000000  0.5867130000000  0.5488000000000 1.0
C      1  0.5016220000000  0.5608440000000  0.5819680000000 1.0
C      1  0.4640630000000  0.5471270000000  0.4342480000000 1.0
C      1  0.4762420000000  0.4096330000000  0.5265510000000 1.0
C      1  0.4523330000000  0.4879030000000  0.5715990000000 1.0
C      1  0.4051710000000  0.4756940000000  0.4918450000000 1.0
C      1  0.4978700000000  0.5773750000000  0.4589380000000 1.0
C      1  0.4282290000000  0.5414730000000  0.4728310000000 1.0
C      1  0.5116040000000  0.4779500000000  0.5660860000000 1.0
C      1  0.4716190000000  0.4769930000000  0.5892010000000 1.0
C      1  0.4574520000000  0.5810060000000  0.4733640000000 1.0
C      1  0.5791010000000  0.5645940000000  0.5245600000000 1.0
C      1  0.5704430000000  0.4749980000000  0.5492520000000 1.0
C      1  0.4818300000000  0.5275210000000  0.5236860000000 1.0
C      1  0.4144230000000  0.5169060000000  0.4647160000000 1.0
C      1  0.4844680000000  0.4597460000000  0.5079980000000 1.0
C      1  0.4642190000000  0.4108700000000  0.4999700000000 1.0
C      1  0.5721680000000  0.4608160000000  0.4575180000000 1.0
C      1  0.4963000000000  0.4907750000000  0.5873610000000 1.0
C      1  0.5719420000000  0.5113260000000  0.4475820000000 1.0
C      1  0.4551610000000  0.5351860000000  0.5873360000000 1.0
C      1  0.4539160000000  0.5518120000000  0.4626340000000 1.0
C      1  0.4426740000000  0.5580780000000  0.5194890000000 1.0
C      1  0.5239270000000  0.4366800000000  0.4482490000000 1.0
C      1  0.5120290000000  0.5134680000000  0.5941920000000 1.0
C      1  0.4238080000000  0.5457190000000  0.5007160000000 1.0
C      1  0.5088420000000  0.5168470000000  0.4454900000000 1.0
C      1  0.4425640000000  0.5137660000000  0.5733670000000 1.0
C      1  0.5495340000000  0.4949360000000  0.4898010000000 1.0
C      1  0.4776620000000  0.4770400000000  0.4069300000000 1.0
C      1  0.5219340000000  0.5329200000000  0.4644660000000 1.0
C      1  0.5078050000000  0.4532350000000  0.4693470000000 1.0
C      1  0.4282330000000  0.4338400000000  0.4736990000000 1.0
C      1  0.4424870000000  0.5014350000000  0.4250950000000 1.0
C      1  0.5105710000000  0.4049780000000  0.4829590000000 1.0
C      1  0.5480300000000  0.4158170000000  0.5107070000000 1.0
C      1  0.5979070000000  0.5034470000000  0.4801340000000 1.0
C      1  0.5821100000000  0.5138500000000  0.5225310000000 1.0
C      1  0.5717490000000  0.5049560000000  0.5477750000000 1.0
C      1  0.4381680000000  0.5528280000000  0.5481240000000 1.0
C      1  0.5437550000000  0.5770070000000  0.4918040000000 1.0
C      1  0.5080740000000  0.4347720000000  0.4240190000000 1.0
C      1  0.4096220000000  0.5222890000000  0.5087920000000 1.0
C      1  0.4548100000000  0.5586240000000  0.5706210000000 1.0
C      1  0.4628800000000  0.5209690000000  0.4205180000000 1.0
C      1  0.4117570000000  0.4575790000000  0.4713720000000 1.0
C      1  0.5072880000000  0.5016370000000  0.4871740000000 1.0
C      1  0.4285950000000  0.5261130000000  0.5523980000000 1.0
C      1  0.4758280000000  0.4497460000000  0.5806310000000 1.0
C      1  0.5259220000000  0.5659280000000  0.5687210000000 1.0
C      1  0.5598290000000  0.5658990000000  0.4708670000000 1.0
C      1  0.4041010000000  0.5042610000000  0.4877520000000 1.0
C      1  0.5322360000000  0.4163290000000  0.4677740000000 1.0
C      1  0.5706600000000  0.4471520000000  0.4323240000000 1.0
C      1  0.5577740000000  0.4879510000000  0.4594460000000 1.0
C      1  0.5752540000000  0.4549580000000  0.5288770000000 1.0
C      1  0.5483720000000  0.5480800000000  0.4233300000000 1.0
C      1  0.5370000000000  0.4791430000000  0.5796380000000 1.0
C      1  0.5546520000000  0.4238270000000  0.4845950000000 1.0
C      1  0.4853030000000  0.5059200000000  0.4088480000000 1.0
C      1  0.5251440000000  0.5356580000000  0.5136770000000 1.0
C      1  0.4181950000000  0.4703710000000  0.4472340000000 1.0
C      1  0.5057860000000  0.4909300000000  0.4586930000000 1.0
C      1  0.4606800000000  0.4198890000000  0.5469880000000 1.0
C      1  0.4207270000000  0.5105100000000  0.5311570000000 1.0
C      1  0.5242060000000  0.4812140000000  0.5071080000000 1.0
C      1  0.4714190000000  0.5554010000000  0.5119390000000 1.0
C      1  0.4811170000000  0.4277970000000  0.4269080000000 1.0
C      1  0.5209040000000  0.4047570000000  0.5099990000000 1.0
C      1  0.5071880000000  0.5213680000000  0.5334330000000 1.0
C      1  0.4781030000000  0.5749980000000  0.5723620000000 1.0
C      1  0.4561360000000  0.4325080000000  0.5704030000000 1.0
C      1  0.5117390000000  0.4567450000000  0.4979050000000 1.0
C      1  0.4688490000000  0.4715760000000  0.4863160000000 1.0
C      1  0.5833990000000  0.5408900000000  0.5104590000000 1.0
C      1  0.4373130000000  0.4551800000000  0.4330390000000 1.0
C      1  0.4856010000000  0.4708970000000  0.4627060000000 1.0
C      1  0.4839470000000  0.4703700000000  0.5347830000000 1.0
C      1  0.4921900000000  0.5797650000000  0.5092440000000 1.0
C      1  0.4969990000000  0.4522450000000  0.5598370000000 1.0
C      1  0.5346120000000  0.4824100000000  0.4404930000000 1.0
C      1  0.5669330000000  0.5681260000000  0.5501980000000 1.0
C      1  0.5568700000000  0.5218970000000  0.5680250000000 1.0
C      1  0.5117180000000  0.5180960000000  0.4147030000000 1.0
C      1  0.4379320000000  0.4237930000000  0.4985060000000 1.0
C      1  0.5088420000000  0.5688220000000  0.4189270000000 1.0
C      1  0.4803630000000  0.5970600000000  0.5558540000000 1.0
C      1  0.5092790000000  0.4907920000000  0.5351710000000 1.0
C      1  0.4985310000000  0.5934340000000  0.5356610000000 1.0
C      1  0.5363330000000  0.5035090000000  0.4201840000000 1.0
C      1  0.4438230000000  0.4445860000000  0.5445440000000 1.0
C      1  0.4718820000000  0.5334130000000  0.6083860000000 1.0
C      1  0.4509450000000  0.4751970000000  0.4168720000000 1.0
C      1  0.5313400000000  0.5193260000000  0.4891560000000 1.0
C      1  0.4572900000000  0.4943140000000  0.4968490000000 1.0
C      1  0.5044400000000  0.4105550000000  0.5319170000000 1.0
C      1  0.4787600000000  0.5141990000000  0.4960550000000 1.0
C      1  0.5888330000000  0.5247400000000  0.4658770000000 1.0
C      1  0.5582880000000  0.4314890000000  0.5318110000000 1.0
C      1  0.5142220000000  0.4294490000000  0.5518220000000 1.0
C      1  0.4978680000000  0.5379140000000  0.5980500000000 1.0
C      1  0.5034960000000  0.5526030000000  0.4753280000000 1.0
C      1  0.5170710000000  0.5628310000000  0.5000690000000 1.0
C      1  0.5485020000000  0.5686780000000  0.4445190000000 1.0
C      1  0.5437310000000  0.4529150000000  0.4349060000000 1.0
C      1  0.4839600000000  0.5665440000000  0.4326360000000 1.0
C      1  0.4291200000000  0.4411870000000  0.5200310000000 1.0
C      1  0.4763050000000  0.5420290000000  0.4833570000000 1.0
C      1  0.5225670000000  0.5459290000000  0.4104470000000 1.0
C      1  0.5415120000000  0.4370900000000  0.5535180000000 1.0
C      1  0.5391450000000  0.5072080000000  0.5847880000000 1.0
C      1  0.5512020000000  0.5508070000000  0.5657220000000 1.0
C      1  0.5502900000000  0.5904210000000  0.5393000000000 1.0
C      1  0.5726010000000  0.4465290000000  0.4820390000000 1.0
END
