TITL C-2681977-3223-18 -0.798741063165545 125000 -158.133306097387 0 0 24 (C1) n - 1
REM
REM in /nfs/bkarasulu/CARBON/AIRSS/Generating-Clusters/GAP-ML-2020/Only-C1/SD-CG/HFTN-CG
REM
REM
REM
REM
REM
REM ./C.cell (11c1c37f851c82e70ff6c80c92926a4b)
REM
REM compiler GCC version 9.2.1 20190827 (Red Hat 9.2.1-1)
REM options -cpp -mtune=generic -march=x86-64 -g -O0 -fpre-include=/usr/include/finclude/math-vector-fortran.h
REM seed -1852981632 -376725691 1117311407 791083064 -1681875610 2075403874 1894955949 -1737576761 485657350 1742842078 -1379735799 -1633931405 1647238223 -558923263 -956115702 -413193500 412834058 484358298 75310221 554875845 1869343283 -1646241422 -1643354083 -1548508635 -1314387921 -241427167 85942938 -1644939736 1323118502 53761655 -977028664 1304210749 -518509280
REM
CELL 1.54180   50.00000   50.00000   50.00000   90.00000   90.00000   90.00000
LATT -1
SFAC C  
C      1  0.4707380000000  0.5326810000000  0.4911170000000 1.0
C      1  0.4938040000000  0.4564570000000  0.5036760000000 1.0
C      1  0.4851760000000  0.5061990000000  0.4522350000000 1.0
C      1  0.5177830000000  0.4661740000000  0.5172760000000 1.0
C      1  0.4542700000000  0.4808180000000  0.5100530000000 1.0
C      1  0.4867720000000  0.4680340000000  0.4783000000000 1.0
C      1  0.5180970000000  0.5143190000000  0.5346310000000 1.0
C      1  0.4625490000000  0.5014160000000  0.5297020000000 1.0
C      1  0.4811140000000  0.4817260000000  0.5410730000000 1.0
C      1  0.5134690000000  0.5423570000000  0.4778540000000 1.0
C      1  0.5034580000000  0.4866560000000  0.4616900000000 1.0
C      1  0.5493130000000  0.5149710000000  0.4978750000000 1.0
C      1  0.5094260000000  0.4858450000000  0.5383620000000 1.0
C      1  0.4897360000000  0.5516030000000  0.4808490000000 1.0
C      1  0.4723710000000  0.4618430000000  0.5219770000000 1.0
C      1  0.4736570000000  0.5262900000000  0.5199540000000 1.0
C      1  0.5427370000000  0.5191400000000  0.5231070000000 1.0
C      1  0.5458970000000  0.4870720000000  0.4872490000000 1.0
C      1  0.4620070000000  0.4835490000000  0.4832860000000 1.0
C      1  0.4665260000000  0.5103190000000  0.4729170000000 1.0
C      1  0.5293320000000  0.4961950000000  0.4655240000000 1.0
C      1  0.5409470000000  0.4673160000000  0.5040940000000 1.0
C      1  0.5336100000000  0.5252500000000  0.4734300000000 1.0
C      1  0.4972120000000  0.5337700000000  0.5337680000000 1.0
END
