TITL C-26385-334-6 -0.00683576982570785 125000 -410.780731370061 0 0 59 (C1) n - 1
REM
REM in /rds/project/t2_vol4/rds-t2-cs072/BORA/CARBON/from-Arr/AIRSS/Generating-Clusters/GAP-ML-2020/Only-C1/SD-CG/HFTN-CG
REM
REM
REM
REM
REM
REM ./C.cell (11c1c37f851c82e70ff6c80c92926a4b)
REM AIRSS Version 0.9.1 bugfix July 2018 build 013d7b7c2542+ Fri, 06 Jul 2018 19:26:36 +0100
REM compiler GCC version 9.3.0
REM options -cpp -mtune=generic -march=x86-64 -g -O0
REM seed -1159901694 703984518 1133528987 -270239331 1976759071 1634454931 -148122564 -496138278 507622170 74601778 -412715460 -2086910691 -1759824996 1354019661 768809216 401805447 1374009408 -412933275 571686694 -359692575 -1010939981 -188638525 827946632 -1900985176 -436921993 1584129846 -1807764139 933848184 -1338000495 1289970464 -483641919 975010735 783497959
REM
CELL 1.54180   50.00000   50.00000   50.00000   90.00000   90.00000   90.00000
LATT -1
SFAC C  
C      1  0.4867870000000  0.5462780000000  0.4535670000000 1.0
C      1  0.4678400000000  0.4724000000000  0.5557990000000 1.0
C      1  0.5471410000000  0.5186010000000  0.5399930000000 1.0
C      1  0.4516870000000  0.4961250000000  0.5578550000000 1.0
C      1  0.5382950000000  0.4617680000000  0.5358980000000 1.0
C      1  0.5092660000000  0.4733130000000  0.4398780000000 1.0
C      1  0.5096440000000  0.5314020000000  0.4433570000000 1.0
C      1  0.5286690000000  0.5043850000000  0.5587570000000 1.0
C      1  0.4547470000000  0.4568050000000  0.5350500000000 1.0
C      1  0.5550340000000  0.5178350000000  0.4467990000000 1.0
C      1  0.4919900000000  0.5757950000000  0.5016230000000 1.0
C      1  0.5597930000000  0.4599990000000  0.4401500000000 1.0
C      1  0.4975520000000  0.4417910000000  0.5368390000000 1.0
C      1  0.4689340000000  0.5602420000000  0.4992860000000 1.0
C      1  0.5574000000000  0.5028190000000  0.5182830000000 1.0
C      1  0.5360790000000  0.5359240000000  0.4541180000000 1.0
C      1  0.5235360000000  0.4438040000000  0.4941700000000 1.0
C      1  0.5048880000000  0.5148760000000  0.5667940000000 1.0
C      1  0.4472270000000  0.5233830000000  0.4782340000000 1.0
C      1  0.5051770000000  0.5047230000000  0.4777820000000 1.0
C      1  0.5219560000000  0.4419140000000  0.5227270000000 1.0
C      1  0.4917270000000  0.5016030000000  0.5209240000000 1.0
C      1  0.5083280000000  0.5324220000000  0.4911380000000 1.0
C      1  0.4434260000000  0.5266340000000  0.5292000000000 1.0
C      1  0.4961460000000  0.4636900000000  0.5560830000000 1.0
C      1  0.5163350000000  0.5734150000000  0.5155090000000 1.0
C      1  0.5376000000000  0.5389410000000  0.4852980000000 1.0
C      1  0.5311310000000  0.4930160000000  0.4830190000000 1.0
C      1  0.5433230000000  0.4661620000000  0.4891380000000 1.0
C      1  0.5655800000000  0.5012240000000  0.4669600000000 1.0
C      1  0.4922350000000  0.4548080000000  0.4545640000000 1.0
C      1  0.4994450000000  0.5026120000000  0.4432330000000 1.0
C      1  0.5348850000000  0.4651440000000  0.4351240000000 1.0
C      1  0.4732210000000  0.4386950000000  0.5224280000000 1.0
C      1  0.5526810000000  0.5124170000000  0.4913350000000 1.0
C      1  0.5436850000000  0.5462440000000  0.5333280000000 1.0
C      1  0.4918220000000  0.5556920000000  0.4798310000000 1.0
C      1  0.5404950000000  0.5593500000000  0.5069450000000 1.0
C      1  0.4531970000000  0.4499440000000  0.4802180000000 1.0
C      1  0.4990870000000  0.4398740000000  0.4793350000000 1.0
C      1  0.4538750000000  0.4854050000000  0.4507620000000 1.0
C      1  0.4642410000000  0.4594870000000  0.4553210000000 1.0
C      1  0.4402600000000  0.4948220000000  0.4744210000000 1.0
C      1  0.4365200000000  0.4732750000000  0.5201210000000 1.0
C      1  0.4988300000000  0.5442310000000  0.5434650000000 1.0
C      1  0.5229970000000  0.4762450000000  0.5555860000000 1.0
C      1  0.4705570000000  0.5055130000000  0.4410050000000 1.0
C      1  0.4579570000000  0.5238380000000  0.5555760000000 1.0
C      1  0.4353630000000  0.4987260000000  0.5331130000000 1.0
C      1  0.4942350000000  0.4886070000000  0.4981760000000 1.0
C      1  0.5200400000000  0.5625860000000  0.5424060000000 1.0
C      1  0.5019630000000  0.5271410000000  0.5194260000000 1.0
C      1  0.5621480000000  0.4720280000000  0.4653690000000 1.0
C      1  0.4637810000000  0.5294860000000  0.4550090000000 1.0
C      1  0.4741980000000  0.4363120000000  0.4941360000000 1.0
C      1  0.4501930000000  0.5391500000000  0.5034460000000 1.0
C      1  0.4836920000000  0.5313550000000  0.5643040000000 1.0
C      1  0.5535430000000  0.4745320000000  0.5161490000000 1.0
C      1  0.4376180000000  0.4711910000000  0.4916380000000 1.0
END
