TITL C-2681595-4621-14 -0.0462301591168926 125000 -708.863682158868 0 0 100 (C1) n - 1
REM
REM in /nfs/bkarasulu/CARBON/AIRSS/Generating-Clusters/GAP-ML-2020/Only-C1/SD-CG/HFTN-CG
REM
REM
REM
REM
REM
REM ./C.cell (11c1c37f851c82e70ff6c80c92926a4b)
REM
REM compiler GCC version 9.2.1 20190827 (Red Hat 9.2.1-1)
REM options -cpp -mtune=generic -march=x86-64 -g -O0 -fpre-include=/usr/include/finclude/math-vector-fortran.h
REM seed 1016185491 1458370430 1237747964 739469908 1896831510 1351040372 -391993178 618228273 1466833946 -1843062252 -919934667 -1436448601 -1398992973 379001043 1018126251 865811182 -1810838193 1839193383 -1768351451 463525788 -1411294743 1506308085 -1640559017 257106643 -1837757168 -756632741 219402387 -971017938 975689132 81013691 574384138 -2052849251 -23278368
REM
CELL 1.54180   50.00000   50.00000   50.00000   90.00000   90.00000   90.00000
LATT -1
SFAC C  
C      1  0.5418270000000  0.4406790000000  0.5330360000000 1.0
C      1  0.4840760000000  0.5389660000000  0.4467300000000 1.0
C      1  0.5112480000000  0.5260300000000  0.5961390000000 1.0
C      1  0.5861470000000  0.5249940000000  0.5212300000000 1.0
C      1  0.5386720000000  0.4956380000000  0.4867130000000 1.0
C      1  0.4719010000000  0.5018570000000  0.4160270000000 1.0
C      1  0.4221520000000  0.5120900000000  0.4706670000000 1.0
C      1  0.5050180000000  0.4680670000000  0.5049410000000 1.0
C      1  0.6042400000000  0.5254690000000  0.5013930000000 1.0
C      1  0.5108500000000  0.4977780000000  0.5905430000000 1.0
C      1  0.5665510000000  0.5457060000000  0.5326010000000 1.0
C      1  0.4467160000000  0.5010920000000  0.4308690000000 1.0
C      1  0.5422170000000  0.5764070000000  0.5512900000000 1.0
C      1  0.5365890000000  0.4602740000000  0.4299500000000 1.0
C      1  0.5121440000000  0.5156810000000  0.5252810000000 1.0
C      1  0.4541410000000  0.4635300000000  0.5521450000000 1.0
C      1  0.4815520000000  0.4731080000000  0.4866590000000 1.0
C      1  0.4771970000000  0.4221860000000  0.4474540000000 1.0
C      1  0.4899870000000  0.4787100000000  0.4108960000000 1.0
C      1  0.5319330000000  0.4655710000000  0.4931470000000 1.0
C      1  0.4555000000000  0.5447910000000  0.4530400000000 1.0
C      1  0.4543270000000  0.5637270000000  0.4745490000000 1.0
C      1  0.4920790000000  0.5167360000000  0.4698570000000 1.0
C      1  0.5002380000000  0.5649780000000  0.5739970000000 1.0
C      1  0.5544780000000  0.5214450000000  0.5504100000000 1.0
C      1  0.5484480000000  0.5439850000000  0.5049680000000 1.0
C      1  0.5354220000000  0.5389380000000  0.5885180000000 1.0
C      1  0.4901410000000  0.5415410000000  0.5868990000000 1.0
C      1  0.4847710000000  0.5693940000000  0.5513260000000 1.0
C      1  0.5632400000000  0.5384820000000  0.4789390000000 1.0
C      1  0.5528710000000  0.5174640000000  0.5790930000000 1.0
C      1  0.4345740000000  0.5638490000000  0.4936040000000 1.0
C      1  0.5437190000000  0.5011460000000  0.4234070000000 1.0
C      1  0.4710150000000  0.5297770000000  0.5707120000000 1.0
C      1  0.4801000000000  0.4594720000000  0.5672320000000 1.0
C      1  0.5719720000000  0.4786020000000  0.4584610000000 1.0
C      1  0.5387530000000  0.4917760000000  0.5842370000000 1.0
C      1  0.4314610000000  0.4420140000000  0.4711040000000 1.0
C      1  0.5127330000000  0.4872920000000  0.4498720000000 1.0
C      1  0.4189620000000  0.5181020000000  0.4981530000000 1.0
C      1  0.4902490000000  0.4106660000000  0.4938630000000 1.0
C      1  0.4776650000000  0.4169580000000  0.5192620000000 1.0
C      1  0.5258060000000  0.4400450000000  0.4468210000000 1.0
C      1  0.5430850000000  0.4667940000000  0.5750790000000 1.0
C      1  0.4408340000000  0.5353990000000  0.5356030000000 1.0
C      1  0.4738690000000  0.4940280000000  0.5063130000000 1.0
C      1  0.4783570000000  0.5198920000000  0.4956410000000 1.0
C      1  0.5836160000000  0.5191830000000  0.4839720000000 1.0
C      1  0.5305090000000  0.4483850000000  0.5593120000000 1.0
C      1  0.5286860000000  0.5636950000000  0.5740690000000 1.0
C      1  0.4385290000000  0.4504400000000  0.4441740000000 1.0
C      1  0.5258120000000  0.5608640000000  0.4692470000000 1.0
C      1  0.4839540000000  0.4525110000000  0.4191310000000 1.0
C      1  0.4469530000000  0.4245720000000  0.4860670000000 1.0
C      1  0.4884410000000  0.5363790000000  0.5170450000000 1.0
C      1  0.4979450000000  0.4898530000000  0.5228740000000 1.0
C      1  0.4961700000000  0.5642500000000  0.5055140000000 1.0
C      1  0.5418950000000  0.5373880000000  0.4589920000000 1.0
C      1  0.4707470000000  0.4142840000000  0.4734430000000 1.0
C      1  0.5527140000000  0.4586170000000  0.5140040000000 1.0
C      1  0.5229570000000  0.4230790000000  0.5216070000000 1.0
C      1  0.4867750000000  0.4872090000000  0.4627170000000 1.0
C      1  0.4412370000000  0.4519430000000  0.5286130000000 1.0
C      1  0.4192820000000  0.4848300000000  0.4655880000000 1.0
C      1  0.4861760000000  0.5270210000000  0.4188010000000 1.0
C      1  0.4463140000000  0.4905110000000  0.5577530000000 1.0
C      1  0.5293590000000  0.4392430000000  0.4757540000000 1.0
C      1  0.4607020000000  0.4396570000000  0.4315990000000 1.0
C      1  0.5687850000000  0.5702870000000  0.5460160000000 1.0
C      1  0.5388220000000  0.5146430000000  0.5098050000000 1.0
C      1  0.4658030000000  0.5026510000000  0.5738370000000 1.0
C      1  0.4516490000000  0.4290220000000  0.5142370000000 1.0
C      1  0.4684130000000  0.5435000000000  0.5440720000000 1.0
C      1  0.4864830000000  0.4845910000000  0.5810770000000 1.0
C      1  0.4389630000000  0.5225500000000  0.4492000000000 1.0
C      1  0.4819830000000  0.5710030000000  0.4799470000000 1.0
C      1  0.5179060000000  0.4193930000000  0.4937270000000 1.0
C      1  0.4989460000000  0.5804560000000  0.5300060000000 1.0
C      1  0.4323300000000  0.5082560000000  0.5408560000000 1.0
C      1  0.5706900000000  0.4794050000000  0.5128010000000 1.0
C      1  0.4202290000000  0.4639650000000  0.4849020000000 1.0
C      1  0.5704460000000  0.4921430000000  0.4830960000000 1.0
C      1  0.5230070000000  0.5101990000000  0.4663830000000 1.0
C      1  0.4987280000000  0.5626360000000  0.4592740000000 1.0
C      1  0.5266870000000  0.5817580000000  0.5278250000000 1.0
C      1  0.4201630000000  0.4971860000000  0.5177860000000 1.0
C      1  0.5315290000000  0.5426290000000  0.4069820000000 1.0
C      1  0.5441120000000  0.5295270000000  0.4292560000000 1.0
C      1  0.5241030000000  0.5237820000000  0.5486100000000 1.0
C      1  0.5070430000000  0.5366410000000  0.4019650000000 1.0
C      1  0.5184940000000  0.4832110000000  0.4209180000000 1.0
C      1  0.4289620000000  0.5426290000000  0.5100330000000 1.0
C      1  0.5651920000000  0.5044810000000  0.5276710000000 1.0
C      1  0.4986900000000  0.4225590000000  0.5375340000000 1.0
C      1  0.5276950000000  0.5650350000000  0.4987780000000 1.0
C      1  0.5006840000000  0.4339230000000  0.4351730000000 1.0
C      1  0.5577210000000  0.4786900000000  0.4360240000000 1.0
C      1  0.4323480000000  0.4781380000000  0.4412060000000 1.0
C      1  0.5012270000000  0.4408130000000  0.5595520000000 1.0
C      1  0.4235640000000  0.4692580000000  0.5125020000000 1.0
END
