TITL C-2715-4098-3 -0.0204302726224559 125000 -335.411021302433 0 0 50 (C1) n - 1
REM
REM in /rds/project/t2_vol4/rds-t2-cs072/BORA/CARBON/from-Arr/AIRSS/Generating-Clusters/GAP-ML-2020/Only-C1/SD-CG/HFTN-CG
REM
REM
REM
REM
REM
REM ./C.cell (11c1c37f851c82e70ff6c80c92926a4b)
REM AIRSS Version 0.9.1 bugfix July 2018 build 013d7b7c2542+ Fri, 06 Jul 2018 19:26:36 +0100
REM compiler GCC version 9.3.0
REM options -cpp -mtune=generic -march=x86-64 -g -O0
REM seed 1847526519 -1718465671 644531841 1096029127 1388666557 160468081 -1991178380 1280017997 -1152283585 1349085849 -1310365888 -33111530 1706442605 -2137419065 -18479169 2141717597 -2140851 -1347697125 922896565 1341788174 1459826695 -775323360 -604271927 -175975436 54062637 2061731800 1815645774 -1228521895 178495462 -1886990955 853335278 -1107251965 1294355804
REM
CELL 1.54180   50.00000   50.00000   50.00000   90.00000   90.00000   90.00000
LATT -1
SFAC C  
C      1  0.5054470000000  0.4795240000000  0.4436690000000 1.0
C      1  0.5690800000000  0.5016830000000  0.5096010000000 1.0
C      1  0.5474930000000  0.5346580000000  0.5049310000000 1.0
C      1  0.5309700000000  0.4467590000000  0.5331150000000 1.0
C      1  0.5191300000000  0.5359750000000  0.5031150000000 1.0
C      1  0.4239950000000  0.5436830000000  0.5153810000000 1.0
C      1  0.4804590000000  0.4520540000000  0.5202540000000 1.0
C      1  0.4548540000000  0.4633460000000  0.5186230000000 1.0
C      1  0.5448100000000  0.4641260000000  0.4906460000000 1.0
C      1  0.5439330000000  0.4597620000000  0.4613450000000 1.0
C      1  0.5236050000000  0.5289190000000  0.4544050000000 1.0
C      1  0.4845060000000  0.4489640000000  0.4718670000000 1.0
C      1  0.5649510000000  0.4734240000000  0.5113390000000 1.0
C      1  0.4613150000000  0.5065770000000  0.5327170000000 1.0
C      1  0.4902950000000  0.4707890000000  0.5419030000000 1.0
C      1  0.4503470000000  0.5063660000000  0.5030340000000 1.0
C      1  0.5337880000000  0.4843040000000  0.4494930000000 1.0
C      1  0.4516940000000  0.4787160000000  0.4946760000000 1.0
C      1  0.4717910000000  0.5231270000000  0.4915500000000 1.0
C      1  0.4918280000000  0.5640330000000  0.4998440000000 1.0
C      1  0.4987370000000  0.5376480000000  0.4581490000000 1.0
C      1  0.5086700000000  0.5520450000000  0.4800040000000 1.0
C      1  0.5271680000000  0.4404690000000  0.4507270000000 1.0
C      1  0.4478480000000  0.5266060000000  0.4514240000000 1.0
C      1  0.4297880000000  0.5297000000000  0.4690670000000 1.0
C      1  0.5554000000000  0.5192390000000  0.5280890000000 1.0
C      1  0.4657250000000  0.4707940000000  0.4709010000000 1.0
C      1  0.5051870000000  0.5536040000000  0.5226500000000 1.0
C      1  0.5018340000000  0.4875680000000  0.4880510000000 1.0
C      1  0.4922650000000  0.5414900000000  0.5438210000000 1.0
C      1  0.5300420000000  0.4902810000000  0.4878390000000 1.0
C      1  0.5377220000000  0.4821790000000  0.5524830000000 1.0
C      1  0.4924380000000  0.5011150000000  0.5304740000000 1.0
C      1  0.4978190000000  0.4551320000000  0.4974390000000 1.0
C      1  0.4672550000000  0.5509830000000  0.4995590000000 1.0
C      1  0.5150020000000  0.4627930000000  0.5518750000000 1.0
C      1  0.5247680000000  0.4480050000000  0.5055550000000 1.0
C      1  0.4974880000000  0.5115800000000  0.5032780000000 1.0
C      1  0.5021090000000  0.4514850000000  0.4502990000000 1.0
C      1  0.5348960000000  0.5098780000000  0.5466330000000 1.0
C      1  0.4642680000000  0.5348650000000  0.5400280000000 1.0
C      1  0.4747120000000  0.5199530000000  0.4616520000000 1.0
C      1  0.5540100000000  0.4651640000000  0.5361480000000 1.0
C      1  0.4847250000000  0.4914110000000  0.4607450000000 1.0
C      1  0.5078190000000  0.5182190000000  0.5487700000000 1.0
C      1  0.4606050000000  0.4794050000000  0.5433600000000 1.0
C      1  0.4269480000000  0.5247650000000  0.4962440000000 1.0
C      1  0.4491760000000  0.5512490000000  0.5224310000000 1.0
C      1  0.5406300000000  0.5086990000000  0.4651670000000 1.0
C      1  0.5606560000000  0.5168880000000  0.4856290000000 1.0
END
