TITL C-2709-3846-9 -116.85949550285 125000 -648.541135609375 0 0 92 (C1) n - 1
REM
REM in /rds/project/t2_vol4/rds-t2-cs072/BORA/CARBON/from-Arr/AIRSS/Generating-Clusters/GAP-ML-2020/Only-C1/SD-CG/HFTN-CG
REM
REM
REM
REM
REM
REM ./C.cell (11c1c37f851c82e70ff6c80c92926a4b)
REM AIRSS Version 0.9.1 bugfix July 2018 build 013d7b7c2542+ Fri, 06 Jul 2018 19:26:36 +0100
REM compiler GCC version 9.3.0
REM options -cpp -mtune=generic -march=x86-64 -g -O0
REM seed -1686292870 -94561244 356291594 -243953782 1788204195 -1610938511 1376376025 -448653149 -497437472 826061810 67691999 -420749885 1164717691 -1208488295 374698848 151088485 -392202050 1576508201 1661237988 -905034921 468131148 1132825881 484801130 472911498 -209320446 -173575844 -1896823339 -334195757 -1216048477 -1960587108 -1945772983 -910140183 79108914
REM
CELL 1.54180   50.00000   50.00000   50.00000   90.00000   90.00000   90.00000
LATT -1
SFAC C  
C      1  0.5705880000000  0.4542940000000  0.5074560000000 1.0
C      1  0.4915370000000  0.5548180000000  0.5761620000000 1.0
C      1  0.5279730000000  0.5166650000000  0.4167870000000 1.0
C      1  0.5390760000000  0.4385870000000  0.4619850000000 1.0
C      1  0.4953830000000  0.4556780000000  0.4370810000000 1.0
C      1  0.4947790000000  0.4236830000000  0.4693300000000 1.0
C      1  0.4585320000000  0.4395100000000  0.5000000000000 1.0
C      1  0.5178830000000  0.4481010000000  0.5052750000000 1.0
C      1  0.4252850000000  0.5208030000000  0.4598470000000 1.0
C      1  0.4458370000000  0.5429170000000  0.5051800000000 1.0
C      1  0.5564710000000  0.4287060000000  0.5071960000000 1.0
C      1  0.4802200000000  0.5791760000000  0.5049240000000 1.0
C      1  0.5196380000000  0.5518460000000  0.5753160000000 1.0
C      1  0.4550630000000  0.5529560000000  0.4510270000000 1.0
C      1  0.4853200000000  0.4977610000000  0.4113260000000 1.0
C      1  0.4840300000000  0.4508570000000  0.5455650000000 1.0
C      1  0.4204910000000  0.4910420000000  0.4612380000000 1.0
C      1  0.5120130000000  0.4375320000000  0.4509000000000 1.0
C      1  0.4987360000000  0.4156060000000  0.5172000000000 1.0
C      1  0.5102690000000  0.4144570000000  0.4908720000000 1.0
C      1  0.4955830000000  0.5404010000000  0.4233550000000 1.0
C      1  0.4516270000000  0.4790630000000  0.4398190000000 1.0
C      1  0.5178780000000  0.5746410000000  0.5337790000000 1.0
C      1  0.5184660000000  0.4181990000000  0.5378220000000 1.0
C      1  0.4271010000000  0.5414730000000  0.4807160000000 1.0
C      1  0.5032620000000  0.4773720000000  0.4211250000000 1.0
C      1  0.5086500000000  0.4376430000000  0.5558880000000 1.0
C      1  0.4933560000000  0.4739450000000  0.5255230000000 1.0
C      1  0.4884860000000  0.5758080000000  0.5331080000000 1.0
C      1  0.4972180000000  0.5291730000000  0.5029000000000 1.0
C      1  0.4393270000000  0.5319470000000  0.5318570000000 1.0
C      1  0.4385490000000  0.4899950000000  0.5055720000000 1.0
C      1  0.4746460000000  0.5617640000000  0.5550610000000 1.0
C      1  0.5298900000000  0.4540160000000  0.5660490000000 1.0
C      1  0.4435190000000  0.5284190000000  0.4395630000000 1.0
C      1  0.4883170000000  0.5267530000000  0.5854130000000 1.0
C      1  0.4386490000000  0.4597850000000  0.5001490000000 1.0
C      1  0.4963340000000  0.4774680000000  0.5832530000000 1.0
C      1  0.5272860000000  0.5747470000000  0.5073750000000 1.0
C      1  0.5381450000000  0.5397030000000  0.4310030000000 1.0
C      1  0.4543010000000  0.5711660000000  0.4964700000000 1.0
C      1  0.5382170000000  0.4233040000000  0.4859820000000 1.0
C      1  0.4744400000000  0.4689960000000  0.5697450000000 1.0
C      1  0.4745410000000  0.4310380000000  0.5227370000000 1.0
C      1  0.5517510000000  0.5326110000000  0.4547240000000 1.0
C      1  0.5340100000000  0.5415410000000  0.4764720000000 1.0
C      1  0.4311650000000  0.4909180000000  0.5555280000000 1.0
C      1  0.5075810000000  0.5588550000000  0.4657210000000 1.0
C      1  0.5252130000000  0.4929840000000  0.4345110000000 1.0
C      1  0.4857400000000  0.5212950000000  0.4463130000000 1.0
C      1  0.5049350000000  0.4716890000000  0.4969030000000 1.0
C      1  0.4404320000000  0.5655600000000  0.4714240000000 1.0
C      1  0.4638350000000  0.5185360000000  0.5732670000000 1.0
C      1  0.5243700000000  0.4928290000000  0.5016560000000 1.0
C      1  0.5451260000000  0.4254550000000  0.5327760000000 1.0
C      1  0.5515650000000  0.4852320000000  0.4463780000000 1.0
C      1  0.4725220000000  0.4622950000000  0.4553350000000 1.0
C      1  0.4704440000000  0.4373720000000  0.4730230000000 1.0
C      1  0.5040030000000  0.5031830000000  0.4611680000000 1.0
C      1  0.5565890000000  0.5127140000000  0.5564090000000 1.0
C      1  0.4631360000000  0.5056720000000  0.4313340000000 1.0
C      1  0.5681150000000  0.4672700000000  0.5331630000000 1.0
C      1  0.5165870000000  0.5158940000000  0.4850390000000 1.0
C      1  0.5048290000000  0.5770930000000  0.4887990000000 1.0
C      1  0.4789960000000  0.5425120000000  0.4645780000000 1.0
C      1  0.5569340000000  0.4613710000000  0.4610160000000 1.0
C      1  0.4548350000000  0.5398190000000  0.5545970000000 1.0
C      1  0.4761030000000  0.4969080000000  0.5222790000000 1.0
C      1  0.5154260000000  0.4949110000000  0.5292430000000 1.0
C      1  0.5699970000000  0.4961550000000  0.5359950000000 1.0
C      1  0.5723040000000  0.4696000000000  0.4843360000000 1.0
C      1  0.4217310000000  0.4761980000000  0.4863320000000 1.0
C      1  0.5146270000000  0.5569610000000  0.4366140000000 1.0
C      1  0.4856450000000  0.4836130000000  0.4760510000000 1.0
C      1  0.5518080000000  0.4487320000000  0.5484400000000 1.0
C      1  0.4976350000000  0.5166490000000  0.5280180000000 1.0
C      1  0.5024570000000  0.5208010000000  0.4049200000000 1.0
C      1  0.5727200000000  0.5116280000000  0.5115030000000 1.0
C      1  0.5614410000000  0.5381100000000  0.5171190000000 1.0
C      1  0.4309150000000  0.5038880000000  0.5314560000000 1.0
C      1  0.5534010000000  0.5390780000000  0.5444330000000 1.0
C      1  0.5335600000000  0.5585460000000  0.5522320000000 1.0
C      1  0.5370400000000  0.5044740000000  0.5775260000000 1.0
C      1  0.4706950000000  0.5293020000000  0.4911710000000 1.0
C      1  0.5745570000000  0.4985940000000  0.4856400000000 1.0
C      1  0.4670410000000  0.5001500000000  0.4944000000000 1.0
C      1  0.4243190000000  0.4757110000000  0.4387270000000 1.0
C      1  0.5462190000000  0.5549040000000  0.4996600000000 1.0
C      1  0.5185570000000  0.5244010000000  0.5850350000000 1.0
C      1  0.5641280000000  0.5072910000000  0.4600170000000 1.0
C      1  0.4543110000000  0.4907170000000  0.5701790000000 1.0
C      1  0.5237400000000  0.4781680000000  0.5796080000000 1.0
END
