TITL C-27285-6494-7 167.745852746864 125000 -736.635719068525 0 0 104 (C1) n - 1
REM
REM in /rds/project/t2_vol4/rds-t2-cs072/BORA/CARBON/from-Arr/AIRSS/Generating-Clusters/GAP-ML-2020/Only-C1/SD-CG/HFTN-CG
REM
REM
REM
REM
REM
REM ./C.cell (11c1c37f851c82e70ff6c80c92926a4b)
REM AIRSS Version 0.9.1 bugfix July 2018 build 013d7b7c2542+ Fri, 06 Jul 2018 19:26:36 +0100
REM compiler GCC version 9.3.0
REM options -cpp -mtune=generic -march=x86-64 -g -O0
REM seed -1636694358 1519263511 -842781775 448964398 1053822762 1633354807 -25194922 147055449 -1543509609 -929001104 1958625840 1576308115 1539246743 -218152129 -1755264933 -644876093 -1411326401 -709197889 -108791620 -316945859 258943225 -618018655 -881230363 -1750631886 2061642375 -432847811 -1579687237 386203101 1860478064 1083135506 1387428977 -404059478 801454274
REM
CELL 1.54180   50.00000   50.00000   50.00000   90.00000   90.00000   90.00000
LATT -1
SFAC C  
C      1  0.5592770000000  0.4592160000000  0.5563800000000 1.0
C      1  0.5060750000000  0.5132050000000  0.5507110000000 1.0
C      1  0.5029760000000  0.4226680000000  0.4662050000000 1.0
C      1  0.4824440000000  0.5010910000000  0.4121090000000 1.0
C      1  0.5107670000000  0.5395130000000  0.4200860000000 1.0
C      1  0.4293390000000  0.4717640000000  0.4790910000000 1.0
C      1  0.4198590000000  0.5179970000000  0.4785470000000 1.0
C      1  0.4508670000000  0.4897880000000  0.5732300000000 1.0
C      1  0.5350790000000  0.4397810000000  0.5192060000000 1.0
C      1  0.5346730000000  0.4447870000000  0.5500920000000 1.0
C      1  0.5285850000000  0.4724120000000  0.4389050000000 1.0
C      1  0.4448150000000  0.4930870000000  0.4385570000000 1.0
C      1  0.4203500000000  0.5086370000000  0.5472170000000 1.0
C      1  0.4985300000000  0.4319700000000  0.4249720000000 1.0
C      1  0.5552420000000  0.5156210000000  0.5651020000000 1.0
C      1  0.4644410000000  0.5810490000000  0.4895550000000 1.0
C      1  0.5414220000000  0.4464310000000  0.4422580000000 1.0
C      1  0.5584320000000  0.4169690000000  0.4753930000000 1.0
C      1  0.4554290000000  0.4141800000000  0.5067160000000 1.0
C      1  0.5111520000000  0.4537850000000  0.5053000000000 1.0
C      1  0.4580260000000  0.5693660000000  0.5408410000000 1.0
C      1  0.5351610000000  0.5148640000000  0.5149290000000 1.0
C      1  0.4406620000000  0.4469320000000  0.4690490000000 1.0
C      1  0.5568640000000  0.5635910000000  0.4909430000000 1.0
C      1  0.4435480000000  0.5649330000000  0.4757290000000 1.0
C      1  0.4844330000000  0.4547870000000  0.5634740000000 1.0
C      1  0.5731810000000  0.4914350000000  0.4803560000000 1.0
C      1  0.4693620000000  0.4218990000000  0.5299680000000 1.0
C      1  0.5064040000000  0.5381440000000  0.4918250000000 1.0
C      1  0.5566330000000  0.5585920000000  0.5200320000000 1.0
C      1  0.4803360000000  0.5261110000000  0.4893820000000 1.0
C      1  0.5115230000000  0.4711690000000  0.4619470000000 1.0
C      1  0.5781900000000  0.5400110000000  0.5270350000000 1.0
C      1  0.5384490000000  0.5678020000000  0.4474710000000 1.0
C      1  0.5313380000000  0.5330730000000  0.5593950000000 1.0
C      1  0.5016710000000  0.4808140000000  0.5108310000000 1.0
C      1  0.5172540000000  0.4981460000000  0.5278000000000 1.0
C      1  0.4538440000000  0.5610470000000  0.4493060000000 1.0
C      1  0.4786100000000  0.4729880000000  0.4134130000000 1.0
C      1  0.4827420000000  0.4079510000000  0.5084280000000 1.0
C      1  0.5312380000000  0.4982490000000  0.4267420000000 1.0
C      1  0.4569130000000  0.4682240000000  0.4316010000000 1.0
C      1  0.5053090000000  0.4067250000000  0.4921800000000 1.0
C      1  0.4802120000000  0.5736330000000  0.4468160000000 1.0
C      1  0.4882500000000  0.5325520000000  0.5365590000000 1.0
C      1  0.5201670000000  0.4811150000000  0.5797350000000 1.0
C      1  0.5708090000000  0.5398660000000  0.4809380000000 1.0
C      1  0.5135600000000  0.4560330000000  0.5659370000000 1.0
C      1  0.4294890000000  0.4954380000000  0.4628800000000 1.0
C      1  0.4788010000000  0.5562450000000  0.5562520000000 1.0
C      1  0.5545600000000  0.3984770000000  0.4933300000000 1.0
C      1  0.5073110000000  0.4930420000000  0.4796940000000 1.0
C      1  0.5833060000000  0.4934770000000  0.5290780000000 1.0
C      1  0.5665270000000  0.4634850000000  0.4832790000000 1.0
C      1  0.4963160000000  0.4989710000000  0.5777880000000 1.0
C      1  0.4702610000000  0.5816770000000  0.5179170000000 1.0
C      1  0.4345200000000  0.4844420000000  0.5508790000000 1.0
C      1  0.5086240000000  0.5118950000000  0.4141040000000 1.0
C      1  0.4326430000000  0.4597650000000  0.5064450000000 1.0
C      1  0.4667950000000  0.4463140000000  0.5429760000000 1.0
C      1  0.4405470000000  0.4344670000000  0.4948630000000 1.0
C      1  0.5353590000000  0.5444400000000  0.4343440000000 1.0
C      1  0.4759210000000  0.4782500000000  0.5760980000000 1.0
C      1  0.5275000000000  0.5161730000000  0.4868090000000 1.0
C      1  0.5558400000000  0.5153910000000  0.4690140000000 1.0
C      1  0.5595530000000  0.4426040000000  0.4640710000000 1.0
C      1  0.5482100000000  0.4901120000000  0.5780430000000 1.0
C      1  0.4612630000000  0.5413420000000  0.4285330000000 1.0
C      1  0.4875720000000  0.5540670000000  0.4262080000000 1.0
C      1  0.4872000000000  0.5856830000000  0.4716790000000 1.0
C      1  0.4799700000000  0.5234700000000  0.5871670000000 1.0
C      1  0.4205690000000  0.5443680000000  0.5168550000000 1.0
C      1  0.4955930000000  0.4522480000000  0.4069580000000 1.0
C      1  0.5338600000000  0.5432920000000  0.5299820000000 1.0
C      1  0.5070720000000  0.4489310000000  0.4782560000000 1.0
C      1  0.4803670000000  0.4265700000000  0.4462120000000 1.0
C      1  0.5071770000000  0.5500160000000  0.5202950000000 1.0
C      1  0.5211870000000  0.4264310000000  0.4415280000000 1.0
C      1  0.4342460000000  0.5531530000000  0.5411140000000 1.0
C      1  0.4593290000000  0.5135930000000  0.4242850000000 1.0
C      1  0.4730490000000  0.4882160000000  0.5161980000000 1.0
C      1  0.4913990000000  0.5496690000000  0.5810700000000 1.0
C      1  0.5749730000000  0.5168620000000  0.5445130000000 1.0
C      1  0.4992120000000  0.5794550000000  0.5216170000000 1.0
C      1  0.5391660000000  0.5781230000000  0.4727990000000 1.0
C      1  0.5186210000000  0.5501410000000  0.5786230000000 1.0
C      1  0.4341100000000  0.5304160000000  0.5598930000000 1.0
C      1  0.5144500000000  0.5916310000000  0.4819210000000 1.0
C      1  0.4722930000000  0.5167330000000  0.5159190000000 1.0
C      1  0.5316760000000  0.4119310000000  0.5040270000000 1.0
C      1  0.4104130000000  0.5040900000000  0.5001550000000 1.0
C      1  0.5467390000000  0.5184100000000  0.4405430000000 1.0
C      1  0.4099310000000  0.5186370000000  0.5229690000000 1.0
C      1  0.5871740000000  0.5304900000000  0.5020360000000 1.0
C      1  0.4535700000000  0.5179720000000  0.5779770000000 1.0
C      1  0.4838840000000  0.5059480000000  0.4715960000000 1.0
C      1  0.5159480000000  0.5962370000000  0.5086920000000 1.0
C      1  0.4259820000000  0.5458170000000  0.4882280000000 1.0
C      1  0.4499750000000  0.4691920000000  0.5290070000000 1.0
C      1  0.5879550000000  0.5019900000000  0.5020950000000 1.0
C      1  0.4578090000000  0.4445260000000  0.4474360000000 1.0
C      1  0.5722120000000  0.4677870000000  0.5322450000000 1.0
C      1  0.5610960000000  0.4549170000000  0.5104480000000 1.0
C      1  0.5664360000000  0.4689750000000  0.5807620000000 1.0
END
