TITL C-27283-6532-1 -0.258850303287126 125000 -547.888025746767 0 0 80 (C1) n - 1
REM
REM in /rds/project/t2_vol4/rds-t2-cs072/BORA/CARBON/from-Arr/AIRSS/Generating-Clusters/GAP-ML-2020/Only-C1/SD-CG/HFTN-CG
REM
REM
REM
REM
REM
REM ./C.cell (11c1c37f851c82e70ff6c80c92926a4b)
REM AIRSS Version 0.9.1 bugfix July 2018 build 013d7b7c2542+ Fri, 06 Jul 2018 19:26:36 +0100
REM compiler GCC version 9.3.0
REM options -cpp -mtune=generic -march=x86-64 -g -O0
REM seed -783181352 1414500929 529726628 1047152665 -1652978632 439926652 -151357964 558731087 1394538251 -478906335 -2126078515 1662741062 1860718033 1562883968 1966341490 710316465 1967704073 -1450237867 -1077817486 -1843279454 741965852 -1027570256 899087335 76117481 643682022 -842170407 2076765627 -2136676551 -1277540207 325304338 1692693251 -308924735 -1347990406
REM
CELL 1.54180   50.00000   50.00000   50.00000   90.00000   90.00000   90.00000
LATT -1
SFAC C  
C      1  0.4698420000000  0.4712680000000  0.4920840000000 1.0
C      1  0.4516880000000  0.4478670000000  0.5039520000000 1.0
C      1  0.4847940000000  0.5028030000000  0.4666100000000 1.0
C      1  0.4499450000000  0.4788470000000  0.5455410000000 1.0
C      1  0.4658180000000  0.5015210000000  0.4905190000000 1.0
C      1  0.4547860000000  0.5620150000000  0.4569270000000 1.0
C      1  0.5294440000000  0.4752270000000  0.4346230000000 1.0
C      1  0.5170450000000  0.4294760000000  0.4816370000000 1.0
C      1  0.4712750000000  0.4727770000000  0.4344620000000 1.0
C      1  0.5126040000000  0.4944700000000  0.5805190000000 1.0
C      1  0.4292930000000  0.4530860000000  0.4855910000000 1.0
C      1  0.5548350000000  0.4789730000000  0.4499160000000 1.0
C      1  0.4525590000000  0.5368650000000  0.4454940000000 1.0
C      1  0.5498870000000  0.4678090000000  0.5501460000000 1.0
C      1  0.4487840000000  0.5412950000000  0.5086250000000 1.0
C      1  0.4395020000000  0.5211680000000  0.4897720000000 1.0
C      1  0.4835570000000  0.5035040000000  0.5148280000000 1.0
C      1  0.5293210000000  0.5142110000000  0.4734440000000 1.0
C      1  0.4916490000000  0.4756820000000  0.5135660000000 1.0
C      1  0.5703970000000  0.5189360000000  0.5314430000000 1.0
C      1  0.5613800000000  0.5550840000000  0.5032170000000 1.0
C      1  0.5435440000000  0.5725970000000  0.4910810000000 1.0
C      1  0.5011100000000  0.5671040000000  0.4590950000000 1.0
C      1  0.4257510000000  0.4993340000000  0.5039220000000 1.0
C      1  0.4292400000000  0.4915500000000  0.4579220000000 1.0
C      1  0.4806870000000  0.4398890000000  0.5398620000000 1.0
C      1  0.4362400000000  0.4998550000000  0.5305340000000 1.0
C      1  0.5378610000000  0.4428430000000  0.5184060000000 1.0
C      1  0.4453970000000  0.4708990000000  0.4446900000000 1.0
C      1  0.5018620000000  0.5414460000000  0.4427520000000 1.0
C      1  0.4395310000000  0.4490970000000  0.4603920000000 1.0
C      1  0.4744950000000  0.5574550000000  0.5025850000000 1.0
C      1  0.4903590000000  0.4313690000000  0.4710710000000 1.0
C      1  0.4937850000000  0.4751840000000  0.5702620000000 1.0
C      1  0.5012530000000  0.4519360000000  0.5559080000000 1.0
C      1  0.4809970000000  0.5714190000000  0.5287630000000 1.0
C      1  0.5491580000000  0.4898690000000  0.5684690000000 1.0
C      1  0.4707800000000  0.5613320000000  0.5520660000000 1.0
C      1  0.4586780000000  0.5361510000000  0.5559460000000 1.0
C      1  0.4557570000000  0.4531830000000  0.5334710000000 1.0
C      1  0.4900300000000  0.4252480000000  0.5174180000000 1.0
C      1  0.4734690000000  0.4294380000000  0.4947830000000 1.0
C      1  0.5038980000000  0.5204160000000  0.5677530000000 1.0
C      1  0.5654220000000  0.5052370000000  0.4439900000000 1.0
C      1  0.4979400000000  0.5665420000000  0.5521880000000 1.0
C      1  0.5597370000000  0.4643550000000  0.5232160000000 1.0
C      1  0.5362600000000  0.4883620000000  0.5936910000000 1.0
C      1  0.5193070000000  0.5151540000000  0.5420470000000 1.0
C      1  0.5619280000000  0.5471330000000  0.5311480000000 1.0
C      1  0.5259120000000  0.5021100000000  0.4980500000000 1.0
C      1  0.4751730000000  0.5163770000000  0.5672250000000 1.0
C      1  0.4768520000000  0.5285600000000  0.4326840000000 1.0
C      1  0.5487250000000  0.5127500000000  0.5505840000000 1.0
C      1  0.5167250000000  0.5482150000000  0.5628440000000 1.0
C      1  0.4844350000000  0.4996880000000  0.4343490000000 1.0
C      1  0.4928820000000  0.4746000000000  0.4723050000000 1.0
C      1  0.5576880000000  0.4684140000000  0.4765560000000 1.0
C      1  0.4695880000000  0.4887350000000  0.5646320000000 1.0
C      1  0.5153700000000  0.4518500000000  0.4343320000000 1.0
C      1  0.5080630000000  0.5191290000000  0.5146680000000 1.0
C      1  0.4909820000000  0.4525790000000  0.4481260000000 1.0
C      1  0.5705300000000  0.5309970000000  0.4879960000000 1.0
C      1  0.5189270000000  0.5656280000000  0.4822400000000 1.0
C      1  0.5755040000000  0.5084830000000  0.5055660000000 1.0
C      1  0.5135200000000  0.4758300000000  0.4933720000000 1.0
C      1  0.4750520000000  0.5684150000000  0.4730960000000 1.0
C      1  0.5694380000000  0.4800990000000  0.5006470000000 1.0
C      1  0.5515250000000  0.5259060000000  0.4332750000000 1.0
C      1  0.5563810000000  0.5244010000000  0.4639420000000 1.0
C      1  0.4353480000000  0.5191560000000  0.4605500000000 1.0
C      1  0.5130590000000  0.4993430000000  0.4287180000000 1.0
C      1  0.5434610000000  0.5428440000000  0.5534520000000 1.0
C      1  0.5010930000000  0.5424030000000  0.4957010000000 1.0
C      1  0.4444170000000  0.5277030000000  0.5335140000000 1.0
C      1  0.5340080000000  0.4535490000000  0.4876410000000 1.0
C      1  0.5027200000000  0.5256690000000  0.4699000000000 1.0
C      1  0.4208920000000  0.4803230000000  0.4835000000000 1.0
C      1  0.5280640000000  0.4502110000000  0.5460530000000 1.0
C      1  0.5170610000000  0.4229560000000  0.5096300000000 1.0
C      1  0.5237250000000  0.5257950000000  0.4285010000000 1.0
END
