TITL C-27301-6531-2 -0.0254387000540656 125000 -135.469731838368 0 0 21 (C1) n - 1
REM
REM in /rds/project/t2_vol4/rds-t2-cs072/BORA/CARBON/from-Arr/AIRSS/Generating-Clusters/GAP-ML-2020/Only-C1/SD-CG/HFTN-CG
REM
REM
REM
REM
REM
REM ./C.cell (11c1c37f851c82e70ff6c80c92926a4b)
REM AIRSS Version 0.9.1 bugfix July 2018 build 013d7b7c2542+ Fri, 06 Jul 2018 19:26:36 +0100
REM compiler GCC version 9.3.0
REM options -cpp -mtune=generic -march=x86-64 -g -O0
REM seed -501394726 390086510 -643906796 -1450308019 -1917449205 956386439 666160431 -884394355 127977605 -725733670 -1438152692 925338506 -265168889 765316721 124830550 -1688839064 300700496 1582839298 -501015388 -1612234408 830132829 -219669042 1798088170 -1147016347 60428206 1443796905 -1626176861 1526765287 -1703971856 -288474314 1515632565 1292065820 1466460722
REM
CELL 1.54180   50.00000   50.00000   50.00000   90.00000   90.00000   90.00000
LATT -1
SFAC C  
C      1  0.4534700000000  0.4869870000000  0.5241710000000 1.0
C      1  0.4795130000000  0.4943530000000  0.5271900000000 1.0
C      1  0.4557990000000  0.4826880000000  0.4980830000000 1.0
C      1  0.4604280000000  0.5049420000000  0.4800050000000 1.0
C      1  0.5245880000000  0.4966950000000  0.5343950000000 1.0
C      1  0.5509780000000  0.4985120000000  0.5385450000000 1.0
C      1  0.4950930000000  0.5376440000000  0.4726140000000 1.0
C      1  0.4882600000000  0.5185880000000  0.5157950000000 1.0
C      1  0.4773170000000  0.5253120000000  0.4900260000000 1.0
C      1  0.4862260000000  0.4439850000000  0.4988830000000 1.0
C      1  0.4689530000000  0.4682190000000  0.4588640000000 1.0
C      1  0.4671110000000  0.4589210000000  0.4851670000000 1.0
C      1  0.5645520000000  0.4946640000000  0.4900710000000 1.0
C      1  0.5316260000000  0.5419830000000  0.5148410000000 1.0
C      1  0.5001420000000  0.4529300000000  0.5185670000000 1.0
C      1  0.5149750000000  0.5223170000000  0.5238850000000 1.0
C      1  0.5187800000000  0.5451410000000  0.4691370000000 1.0
C      1  0.5575540000000  0.5178660000000  0.4840000000000 1.0
C      1  0.4634760000000  0.4934240000000  0.4549820000000 1.0
C      1  0.5392070000000  0.5375770000000  0.4883650000000 1.0
C      1  0.5019510000000  0.4772530000000  0.5324130000000 1.0
END
