TITL C-2700-3800-4 -0.106005214305959 125000 -368.750427574722 0 0 55 (C1) n - 1
REM
REM in /rds/project/t2_vol4/rds-t2-cs072/BORA/CARBON/from-Arr/AIRSS/Generating-Clusters/GAP-ML-2020/Only-C1/SD-CG/HFTN-CG
REM
REM
REM
REM
REM
REM ./C.cell (11c1c37f851c82e70ff6c80c92926a4b)
REM AIRSS Version 0.9.1 bugfix July 2018 build 013d7b7c2542+ Fri, 06 Jul 2018 19:26:36 +0100
REM compiler GCC version 9.3.0
REM options -cpp -mtune=generic -march=x86-64 -g -O0
REM seed -403471697 656077991 -1099065174 1256491183 -1866530025 -1652072890 1047436613 -732471551 -792500730 1980981423 1920180041 -231117344 744717294 -1710259543 771351259 600239045 2042954887 881921307 288139849 809004600 -510805805 -357882618 -1288713186 -972499388 -891043754 558028377 1797042718 -187971430 1723826775 1709472346 -1280755503 -744229070 1993718519
REM
CELL 1.54180   50.00000   50.00000   50.00000   90.00000   90.00000   90.00000
LATT -1
SFAC C  
C      1  0.5593570000000  0.5231010000000  0.4931030000000 1.0
C      1  0.5121520000000  0.4927230000000  0.4402050000000 1.0
C      1  0.5388670000000  0.5033600000000  0.4507290000000 1.0
C      1  0.4620630000000  0.4492730000000  0.4924060000000 1.0
C      1  0.4474320000000  0.5372930000000  0.4754890000000 1.0
C      1  0.5199580000000  0.5580040000000  0.4964340000000 1.0
C      1  0.4854170000000  0.5188490000000  0.5674900000000 1.0
C      1  0.4462280000000  0.4901340000000  0.5086460000000 1.0
C      1  0.4677140000000  0.4742670000000  0.4487930000000 1.0
C      1  0.5406500000000  0.5394400000000  0.5102930000000 1.0
C      1  0.5228540000000  0.5148560000000  0.5163630000000 1.0
C      1  0.4469750000000  0.5119390000000  0.4630610000000 1.0
C      1  0.4682580000000  0.5597770000000  0.5008440000000 1.0
C      1  0.5122260000000  0.4560310000000  0.4687360000000 1.0
C      1  0.4520360000000  0.4648530000000  0.4704110000000 1.0
C      1  0.5184140000000  0.4244580000000  0.5292890000000 1.0
C      1  0.5469590000000  0.5252130000000  0.4659410000000 1.0
C      1  0.4940290000000  0.5464020000000  0.5033150000000 1.0
C      1  0.5720640000000  0.5000050000000  0.5023660000000 1.0
C      1  0.5407750000000  0.5390670000000  0.5419350000000 1.0
C      1  0.5327530000000  0.4340630000000  0.5082570000000 1.0
C      1  0.5151570000000  0.4929290000000  0.5553960000000 1.0
C      1  0.4536230000000  0.5147850000000  0.5207270000000 1.0
C      1  0.4983800000000  0.5435160000000  0.5707490000000 1.0
C      1  0.4646780000000  0.5617580000000  0.4722090000000 1.0
C      1  0.4928560000000  0.4776630000000  0.4630120000000 1.0
C      1  0.4644000000000  0.5020260000000  0.4422310000000 1.0
C      1  0.5140640000000  0.5466940000000  0.5486770000000 1.0
C      1  0.4417950000000  0.4892710000000  0.4805660000000 1.0
C      1  0.4906820000000  0.5128410000000  0.4353420000000 1.0
C      1  0.4719190000000  0.4591110000000  0.5658720000000 1.0
C      1  0.5490550000000  0.4576220000000  0.5048670000000 1.0
C      1  0.4788160000000  0.4590910000000  0.5365110000000 1.0
C      1  0.4970660000000  0.4842250000000  0.5334890000000 1.0
C      1  0.5160550000000  0.5679570000000  0.4708570000000 1.0
C      1  0.4823200000000  0.4731420000000  0.5840640000000 1.0
C      1  0.5098930000000  0.4901510000000  0.5057490000000 1.0
C      1  0.5109600000000  0.4328740000000  0.4842290000000 1.0
C      1  0.4992570000000  0.5311460000000  0.5263560000000 1.0
C      1  0.5294210000000  0.4729750000000  0.4897650000000 1.0
C      1  0.5446820000000  0.4785510000000  0.4618370000000 1.0
C      1  0.5340480000000  0.5102840000000  0.5428030000000 1.0
C      1  0.5267710000000  0.5437430000000  0.4601270000000 1.0
C      1  0.4495590000000  0.5377060000000  0.5047020000000 1.0
C      1  0.4853260000000  0.4326180000000  0.4976180000000 1.0
C      1  0.5710790000000  0.4745800000000  0.5098330000000 1.0
C      1  0.4983970000000  0.4957140000000  0.5780710000000 1.0
C      1  0.4907070000000  0.4969860000000  0.4860340000000 1.0
C      1  0.4791400000000  0.5115870000000  0.5372560000000 1.0
C      1  0.4885670000000  0.5625310000000  0.4580850000000 1.0
C      1  0.4907630000000  0.5241410000000  0.4804250000000 1.0
C      1  0.5253560000000  0.4654250000000  0.4445060000000 1.0
C      1  0.4919100000000  0.4338460000000  0.5257220000000 1.0
C      1  0.4982400000000  0.5348520000000  0.4528730000000 1.0
C      1  0.4578820000000  0.4645500000000  0.5153340000000 1.0
END
