TITL C-2713-4618-3 0.0214788982749811 125000 -237.758910440148 0 0 36 (C1) n - 1
REM
REM in /rds/project/t2_vol4/rds-t2-cs072/BORA/CARBON/from-Arr/AIRSS/Generating-Clusters/GAP-ML-2020/Only-C1/SD-CG/HFTN-CG
REM
REM
REM
REM
REM
REM ./C.cell (11c1c37f851c82e70ff6c80c92926a4b)
REM AIRSS Version 0.9.1 bugfix July 2018 build 013d7b7c2542+ Fri, 06 Jul 2018 19:26:36 +0100
REM compiler GCC version 9.3.0
REM options -cpp -mtune=generic -march=x86-64 -g -O0
REM seed -2147062624 2034031188 -1664903667 -717773878 312932510 1476167324 -2048230490 3528560 713289001 1141227775 -741818546 -894037777 485685218 383296746 -1950956242 -1862478404 1718976377 865929810 447811164 -1486002039 1182035553 -226640201 1320847081 2106291965 682868129 340844901 -411229175 153936505 1122443980 -147399346 -763338647 701041764 1055990741
REM
CELL 1.54180   50.00000   50.00000   50.00000   90.00000   90.00000   90.00000
LATT -1
SFAC C  
C      1  0.4685370000000  0.4625480000000  0.5338200000000 1.0
C      1  0.4575300000000  0.4732740000000  0.4898740000000 1.0
C      1  0.5187460000000  0.4885550000000  0.4577190000000 1.0
C      1  0.4759270000000  0.4586510000000  0.5066540000000 1.0
C      1  0.4835900000000  0.4599670000000  0.4516360000000 1.0
C      1  0.5571240000000  0.4803800000000  0.4866250000000 1.0
C      1  0.5368170000000  0.5268950000000  0.4758790000000 1.0
C      1  0.4451940000000  0.4934580000000  0.5064750000000 1.0
C      1  0.4993530000000  0.4881650000000  0.5561200000000 1.0
C      1  0.4781870000000  0.5516730000000  0.4809920000000 1.0
C      1  0.5332570000000  0.4978320000000  0.4815570000000 1.0
C      1  0.4535560000000  0.4867160000000  0.5346820000000 1.0
C      1  0.4882220000000  0.4631110000000  0.5540450000000 1.0
C      1  0.4706220000000  0.5679840000000  0.5036470000000 1.0
C      1  0.4940230000000  0.5066320000000  0.5207180000000 1.0
C      1  0.5214890000000  0.4484690000000  0.4839940000000 1.0
C      1  0.4770580000000  0.5014730000000  0.5433010000000 1.0
C      1  0.5274380000000  0.4966290000000  0.5520170000000 1.0
C      1  0.4629520000000  0.5272300000000  0.4757130000000 1.0
C      1  0.4737980000000  0.5071440000000  0.4573250000000 1.0
C      1  0.5152350000000  0.4885560000000  0.5075730000000 1.0
C      1  0.5576100000000  0.4713750000000  0.5134760000000 1.0
C      1  0.5154740000000  0.5336580000000  0.4576420000000 1.0
C      1  0.5056790000000  0.5535560000000  0.4751510000000 1.0
C      1  0.5384130000000  0.5164590000000  0.5361590000000 1.0
C      1  0.4798230000000  0.5551580000000  0.5234420000000 1.0
C      1  0.5263410000000  0.5381800000000  0.5220000000000 1.0
C      1  0.5469390000000  0.4555870000000  0.4916040000000 1.0
C      1  0.4454110000000  0.5183900000000  0.4958190000000 1.0
C      1  0.5371430000000  0.4864990000000  0.5270680000000 1.0
C      1  0.5088290000000  0.4621360000000  0.4615920000000 1.0
C      1  0.4666450000000  0.4792840000000  0.4623940000000 1.0
C      1  0.5014580000000  0.5102270000000  0.4505910000000 1.0
C      1  0.5288080000000  0.5471120000000  0.4950850000000 1.0
C      1  0.5041590000000  0.4626340000000  0.5010100000000 1.0
C      1  0.4986140000000  0.5344030000000  0.5265980000000 1.0
END
