TITL C-2711-4842-4 -39.9759311198127 125000 -208.246691037924 0 0 32 (C1) n - 1
REM
REM in /rds/project/t2_vol4/rds-t2-cs072/BORA/CARBON/from-Arr/AIRSS/Generating-Clusters/GAP-ML-2020/Only-C1/SD-CG/HFTN-CG
REM
REM
REM
REM
REM
REM ./C.cell (11c1c37f851c82e70ff6c80c92926a4b)
REM AIRSS Version 0.9.1 bugfix July 2018 build 013d7b7c2542+ Fri, 06 Jul 2018 19:26:36 +0100
REM compiler GCC version 9.3.0
REM options -cpp -mtune=generic -march=x86-64 -g -O0
REM seed -1651434551 1977767262 1873618816 -1019611076 -1162708862 -1528213442 1268979076 2010580464 985987569 -1536662664 -1980029836 1036740992 -1721354705 -1657297310 1208711061 -1079638995 -1703350961 -620293690 -1470109517 -1903428118 602919900 442425774 960291638 1909719583 1357697159 137973849 1571596301 1562501865 456545104 -552019372 -913619058 1578088408 1170257333
REM
CELL 1.54180   50.00000   50.00000   50.00000   90.00000   90.00000   90.00000
LATT -1
SFAC C  
C      1  0.4482520000000  0.4667780000000  0.5271870000000 1.0
C      1  0.4796080000000  0.5114380000000  0.4670770000000 1.0
C      1  0.4864540000000  0.4428910000000  0.5017000000000 1.0
C      1  0.5153330000000  0.4519950000000  0.4964030000000 1.0
C      1  0.5017930000000  0.5114160000000  0.5282830000000 1.0
C      1  0.4368190000000  0.5290490000000  0.5267540000000 1.0
C      1  0.5150140000000  0.4789180000000  0.5034880000000 1.0
C      1  0.5106480000000  0.4658490000000  0.4485980000000 1.0
C      1  0.4291990000000  0.4809320000000  0.5361930000000 1.0
C      1  0.5099180000000  0.4447380000000  0.4682450000000 1.0
C      1  0.5603690000000  0.5282910000000  0.5356280000000 1.0
C      1  0.4847770000000  0.4710970000000  0.4352000000000 1.0
C      1  0.5005140000000  0.5553870000000  0.5017730000000 1.0
C      1  0.5164060000000  0.5438810000000  0.4818170000000 1.0
C      1  0.4262020000000  0.5072560000000  0.5355420000000 1.0
C      1  0.4729930000000  0.4632410000000  0.5175160000000 1.0
C      1  0.4845000000000  0.4324200000000  0.4756240000000 1.0
C      1  0.5069770000000  0.5106810000000  0.5565050000000 1.0
C      1  0.4866510000000  0.4889270000000  0.5119900000000 1.0
C      1  0.5277350000000  0.5018890000000  0.5136050000000 1.0
C      1  0.5017830000000  0.5277450000000  0.4644420000000 1.0
C      1  0.4602760000000  0.5283860000000  0.5125690000000 1.0
C      1  0.4870850000000  0.5385450000000  0.5181050000000 1.0
C      1  0.5483730000000  0.5217820000000  0.5115130000000 1.0
C      1  0.5444460000000  0.5054700000000  0.4532770000000 1.0
C      1  0.5567150000000  0.5271660000000  0.4625790000000 1.0
C      1  0.4697700000000  0.5071470000000  0.4947600000000 1.0
C      1  0.5516160000000  0.5272980000000  0.5598930000000 1.0
C      1  0.5450860000000  0.5368400000000  0.4859300000000 1.0
C      1  0.5314780000000  0.4838730000000  0.4488500000000 1.0
C      1  0.4754670000000  0.4897110000000  0.4494740000000 1.0
C      1  0.5277410000000  0.5189630000000  0.5694770000000 1.0
END
