TITL C-2707-5085-10 -1030.06971442651 125000 -623.008942723919 0 0 88 (C1) n - 1
REM
REM in /rds/project/t2_vol4/rds-t2-cs072/BORA/CARBON/from-Arr/AIRSS/Generating-Clusters/GAP-ML-2020/Only-C1/SD-CG/HFTN-CG
REM
REM
REM
REM
REM
REM ./C.cell (11c1c37f851c82e70ff6c80c92926a4b)
REM AIRSS Version 0.9.1 bugfix July 2018 build 013d7b7c2542+ Fri, 06 Jul 2018 19:26:36 +0100
REM compiler GCC version 9.3.0
REM options -cpp -mtune=generic -march=x86-64 -g -O0
REM seed 585321817 1213962101 1548141922 -571139843 954414208 -1176953147 -2024829140 1668751889 -142367841 1811068030 -604993314 77527544 -627022850 -868211022 1576708479 312292717 -1636931433 -1650989962 1901001765 -1207062151 1842840713 -835197144 -384290993 1680598256 2082747948 1963158727 640140355 -265318877 614349930 -218504347 -579043010 -2046738680 -988945617
REM
CELL 1.54180   50.00000   50.00000   50.00000   90.00000   90.00000   90.00000
LATT -1
SFAC C  
C      1  0.5503540000000  0.4319210000000  0.5202130000000 1.0
C      1  0.4505620000000  0.5408870000000  0.5185010000000 1.0
C      1  0.5009460000000  0.5145110000000  0.4772310000000 1.0
C      1  0.5087850000000  0.5797630000000  0.5123410000000 1.0
C      1  0.5238000000000  0.5266740000000  0.5188340000000 1.0
C      1  0.5018630000000  0.5151650000000  0.4154390000000 1.0
C      1  0.4203330000000  0.4787440000000  0.5100020000000 1.0
C      1  0.5107010000000  0.4036470000000  0.5046460000000 1.0
C      1  0.5490430000000  0.5014110000000  0.5509760000000 1.0
C      1  0.5297950000000  0.5936860000000  0.5296620000000 1.0
C      1  0.5783360000000  0.5198570000000  0.4716270000000 1.0
C      1  0.4397300000000  0.5212420000000  0.5386180000000 1.0
C      1  0.5652160000000  0.5406850000000  0.4892240000000 1.0
C      1  0.4202510000000  0.4916390000000  0.4847930000000 1.0
C      1  0.4252270000000  0.4957340000000  0.5329480000000 1.0
C      1  0.5603640000000  0.4763570000000  0.4732090000000 1.0
C      1  0.4929440000000  0.4402660000000  0.4478110000000 1.0
C      1  0.4633880000000  0.4233600000000  0.5286090000000 1.0
C      1  0.4497230000000  0.5039980000000  0.4577280000000 1.0
C      1  0.5400620000000  0.5786880000000  0.5481950000000 1.0
C      1  0.4625780000000  0.5693380000000  0.5194430000000 1.0
C      1  0.4655850000000  0.5790570000000  0.4929220000000 1.0
C      1  0.5226710000000  0.4786690000000  0.4344550000000 1.0
C      1  0.4593770000000  0.5042130000000  0.4297170000000 1.0
C      1  0.4368080000000  0.5412020000000  0.4915220000000 1.0
C      1  0.5324120000000  0.5676200000000  0.4602470000000 1.0
C      1  0.4924400000000  0.4169720000000  0.4611470000000 1.0
C      1  0.5045970000000  0.5151560000000  0.5638670000000 1.0
C      1  0.4878000000000  0.4721290000000  0.5749650000000 1.0
C      1  0.4933880000000  0.5535460000000  0.5497980000000 1.0
C      1  0.4460760000000  0.4392350000000  0.4875810000000 1.0
C      1  0.5410340000000  0.5019030000000  0.4372960000000 1.0
C      1  0.5635060000000  0.4997450000000  0.4555580000000 1.0
C      1  0.5057470000000  0.5800040000000  0.4628680000000 1.0
C      1  0.4986350000000  0.5273560000000  0.5346740000000 1.0
C      1  0.4894190000000  0.4088290000000  0.4873370000000 1.0
C      1  0.4733100000000  0.4789470000000  0.4262250000000 1.0
C      1  0.4761420000000  0.5258610000000  0.4206000000000 1.0
C      1  0.5159720000000  0.4698930000000  0.5709530000000 1.0
C      1  0.5131680000000  0.5443580000000  0.5678420000000 1.0
C      1  0.5906880000000  0.5105530000000  0.5140700000000 1.0
C      1  0.4725070000000  0.4504640000000  0.5656320000000 1.0
C      1  0.5248050000000  0.4163700000000  0.5236950000000 1.0
C      1  0.4539930000000  0.5588410000000  0.4499490000000 1.0
C      1  0.4866250000000  0.5737000000000  0.5324610000000 1.0
C      1  0.5116720000000  0.4264980000000  0.5476920000000 1.0
C      1  0.4463240000000  0.4569410000000  0.5561860000000 1.0
C      1  0.4832800000000  0.4285620000000  0.5498410000000 1.0
C      1  0.5485040000000  0.5280910000000  0.5369240000000 1.0
C      1  0.4494180000000  0.5621790000000  0.4760030000000 1.0
C      1  0.4646440000000  0.4199370000000  0.5000250000000 1.0
C      1  0.5194970000000  0.5519160000000  0.5021220000000 1.0
C      1  0.5171210000000  0.4629390000000  0.4813000000000 1.0
C      1  0.5702680000000  0.5315430000000  0.5162700000000 1.0
C      1  0.5277770000000  0.4481160000000  0.5577510000000 1.0
C      1  0.5635040000000  0.4341430000000  0.4956250000000 1.0
C      1  0.5881780000000  0.4883370000000  0.5299440000000 1.0
C      1  0.4415090000000  0.4409610000000  0.5333010000000 1.0
C      1  0.4932520000000  0.5868900000000  0.4869480000000 1.0
C      1  0.4690870000000  0.4559500000000  0.4429730000000 1.0
C      1  0.4472130000000  0.4542270000000  0.4624930000000 1.0
C      1  0.4735240000000  0.4973400000000  0.5034220000000 1.0
C      1  0.5000960000000  0.4866900000000  0.4189420000000 1.0
C      1  0.4942580000000  0.5391380000000  0.4908040000000 1.0
C      1  0.4379440000000  0.4832780000000  0.5554730000000 1.0
C      1  0.5224450000000  0.5052160000000  0.4970170000000 1.0
C      1  0.5240620000000  0.5528200000000  0.4359480000000 1.0
C      1  0.4987680000000  0.4583200000000  0.5014170000000 1.0
C      1  0.4799170000000  0.5002340000000  0.5709500000000 1.0
C      1  0.4338330000000  0.4786560000000  0.4634150000000 1.0
C      1  0.5163010000000  0.4576610000000  0.4528500000000 1.0
C      1  0.4888890000000  0.4780350000000  0.5153290000000 1.0
C      1  0.4741140000000  0.5519690000000  0.4333200000000 1.0
C      1  0.5505250000000  0.4526460000000  0.5410300000000 1.0
C      1  0.4542070000000  0.5068300000000  0.5606350000000 1.0
C      1  0.4768890000000  0.4986900000000  0.4748100000000 1.0
C      1  0.5368000000000  0.4813590000000  0.4902010000000 1.0
C      1  0.4297380000000  0.5179440000000  0.4779100000000 1.0
C      1  0.4981840000000  0.5663040000000  0.4384560000000 1.0
C      1  0.5646330000000  0.4790670000000  0.5413280000000 1.0
C      1  0.5260120000000  0.4958130000000  0.5651830000000 1.0
C      1  0.4312640000000  0.4516750000000  0.5093310000000 1.0
C      1  0.5703020000000  0.4496170000000  0.4763290000000 1.0
C      1  0.5266620000000  0.5254750000000  0.4262760000000 1.0
C      1  0.5376770000000  0.5511180000000  0.5545440000000 1.0
C      1  0.6006150000000  0.5118680000000  0.4870810000000 1.0
C      1  0.5424300000000  0.5568900000000  0.4838400000000 1.0
C      1  0.4779610000000  0.5259230000000  0.5133240000000 1.0
END
