TITL C-2707-5085-1 0.0360643598089232 125000 -179.874772396552 0 0 27 (C1) n - 1
REM
REM in /rds/project/t2_vol4/rds-t2-cs072/BORA/CARBON/from-Arr/AIRSS/Generating-Clusters/GAP-ML-2020/Only-C1/SD-CG/HFTN-CG
REM
REM
REM
REM
REM
REM ./C.cell (11c1c37f851c82e70ff6c80c92926a4b)
REM AIRSS Version 0.9.1 bugfix July 2018 build 013d7b7c2542+ Fri, 06 Jul 2018 19:26:36 +0100
REM compiler GCC version 9.3.0
REM options -cpp -mtune=generic -march=x86-64 -g -O0
REM seed -1723703663 -1411127245 1585582308 270499422 1154725993 189703861 44281797 1276516627 1261591149 650490757 -1964991266 -1205638944 1523758314 -1919671505 1598689118 560761662 125003025 1074007172 -370806100 -97118777 511550880 1581486229 98682458 -1453212405 -170690176 -344900783 -1027188575 -1184911952 -2071873439 -1514086612 1849020569 -2078802921 587029282
REM
CELL 1.54180   50.00000   50.00000   50.00000   90.00000   90.00000   90.00000
LATT -1
SFAC C  
C      1  0.4892270000000  0.4953110000000  0.5523690000000 1.0
C      1  0.5137180000000  0.5105730000000  0.5489150000000 1.0
C      1  0.5313540000000  0.4557050000000  0.5480100000000 1.0
C      1  0.5512620000000  0.4996630000000  0.4631560000000 1.0
C      1  0.5110370000000  0.4844730000000  0.4374000000000 1.0
C      1  0.5416890000000  0.5183650000000  0.5107800000000 1.0
C      1  0.5448550000000  0.4754940000000  0.5384140000000 1.0
C      1  0.4817210000000  0.5085190000000  0.4675310000000 1.0
C      1  0.4768140000000  0.5381680000000  0.5027620000000 1.0
C      1  0.5015930000000  0.5301190000000  0.4656110000000 1.0
C      1  0.5285400000000  0.5042380000000  0.4467710000000 1.0
C      1  0.4562820000000  0.4486860000000  0.4701370000000 1.0
C      1  0.5214680000000  0.5388520000000  0.5119880000000 1.0
C      1  0.5189010000000  0.5304730000000  0.4448690000000 1.0
C      1  0.4664980000000  0.5136670000000  0.4911990000000 1.0
C      1  0.4498600000000  0.4714780000000  0.5106540000000 1.0
C      1  0.4573320000000  0.4970700000000  0.5131900000000 1.0
C      1  0.4865000000000  0.4851750000000  0.4516130000000 1.0
C      1  0.5379680000000  0.5012490000000  0.5350090000000 1.0
C      1  0.4787880000000  0.5354970000000  0.5310780000000 1.0
C      1  0.5025210000000  0.5434130000000  0.4908000000000 1.0
C      1  0.5086560000000  0.4454710000000  0.5551780000000 1.0
C      1  0.4684710000000  0.5088520000000  0.5379030000000 1.0
C      1  0.4703340000000  0.4633110000000  0.4554910000000 1.0
C      1  0.5496220000000  0.5089930000000  0.4866840000000 1.0
C      1  0.5067180000000  0.5357930000000  0.5369350000000 1.0
C      1  0.4482700000000  0.4513930000000  0.4955530000000 1.0
END
