TITL C-27278-6415-10 -544.856785027332 125000 -649.645574108931 0 0 91 (C1) n - 1
REM
REM in /rds/project/t2_vol4/rds-t2-cs072/BORA/CARBON/from-Arr/AIRSS/Generating-Clusters/GAP-ML-2020/Only-C1/SD-CG/HFTN-CG
REM
REM
REM
REM
REM
REM ./C.cell (11c1c37f851c82e70ff6c80c92926a4b)
REM AIRSS Version 0.9.1 bugfix July 2018 build 013d7b7c2542+ Fri, 06 Jul 2018 19:26:36 +0100
REM compiler GCC version 9.3.0
REM options -cpp -mtune=generic -march=x86-64 -g -O0
REM seed -1851547923 -1141218808 -338023583 -1432266116 -628809009 -827180465 -496033264 2129272119 -263654248 2008369150 -104533270 -1603059224 -829945497 912094350 483107167 114997865 1836216073 -525455784 1020401264 -1463910619 1349791110 -1984857578 -298802010 579203624 1845949016 1647436785 -782115628 -1006392504 1034144276 191852475 1485925357 1961571063 -685756796
REM
CELL 1.54180   50.00000   50.00000   50.00000   90.00000   90.00000   90.00000
LATT -1
SFAC C  
C      1  0.5815320000000  0.4831870000000  0.5276280000000 1.0
C      1  0.5294760000000  0.5432490000000  0.4957680000000 1.0
C      1  0.4048890000000  0.5011310000000  0.4909900000000 1.0
C      1  0.4234920000000  0.4684340000000  0.4596980000000 1.0
C      1  0.5522550000000  0.5739490000000  0.5056990000000 1.0
C      1  0.5422910000000  0.4383920000000  0.4675130000000 1.0
C      1  0.4300550000000  0.4593380000000  0.5129310000000 1.0
C      1  0.4749390000000  0.5150620000000  0.5765710000000 1.0
C      1  0.5745040000000  0.5306150000000  0.5006460000000 1.0
C      1  0.5653610000000  0.4555620000000  0.4647040000000 1.0
C      1  0.5620710000000  0.5247730000000  0.4450650000000 1.0
C      1  0.5407840000000  0.4307310000000  0.4953650000000 1.0
C      1  0.5223410000000  0.4641500000000  0.4312040000000 1.0
C      1  0.5097790000000  0.5928050000000  0.5146290000000 1.0
C      1  0.5113280000000  0.5609720000000  0.4763890000000 1.0
C      1  0.4498380000000  0.4409130000000  0.5483730000000 1.0
C      1  0.5444840000000  0.5106150000000  0.4269020000000 1.0
C      1  0.5778840000000  0.4590240000000  0.4894300000000 1.0
C      1  0.5206210000000  0.5217170000000  0.4183800000000 1.0
C      1  0.5682260000000  0.5043880000000  0.5415490000000 1.0
C      1  0.5540690000000  0.5489280000000  0.4575580000000 1.0
C      1  0.4755310000000  0.5171780000000  0.4262910000000 1.0
C      1  0.5146650000000  0.5109500000000  0.5280680000000 1.0
C      1  0.4986860000000  0.5044380000000  0.4150510000000 1.0
C      1  0.4424060000000  0.4894020000000  0.5549550000000 1.0
C      1  0.4554790000000  0.5075980000000  0.4775870000000 1.0
C      1  0.4023400000000  0.5228460000000  0.5107920000000 1.0
C      1  0.4388350000000  0.5187800000000  0.5464410000000 1.0
C      1  0.4730800000000  0.4421100000000  0.5652490000000 1.0
C      1  0.4699190000000  0.4500080000000  0.4523290000000 1.0
C      1  0.4134770000000  0.4936670000000  0.4636350000000 1.0
C      1  0.5290350000000  0.4956100000000  0.5063010000000 1.0
C      1  0.4637670000000  0.4891650000000  0.5734050000000 1.0
C      1  0.5125340000000  0.4305030000000  0.5368610000000 1.0
C      1  0.5244440000000  0.5577400000000  0.5433860000000 1.0
C      1  0.4792730000000  0.4860500000000  0.5213670000000 1.0
C      1  0.4751190000000  0.5891340000000  0.4915930000000 1.0
C      1  0.4228030000000  0.4854110000000  0.5066950000000 1.0
C      1  0.4637160000000  0.5632860000000  0.4871680000000 1.0
C      1  0.4731990000000  0.4709820000000  0.4331240000000 1.0
C      1  0.5158150000000  0.4254010000000  0.5075730000000 1.0
C      1  0.5034920000000  0.5880990000000  0.4862580000000 1.0
C      1  0.4923310000000  0.4247960000000  0.4896440000000 1.0
C      1  0.4744020000000  0.5559270000000  0.5560620000000 1.0
C      1  0.5060930000000  0.5025590000000  0.4744490000000 1.0
C      1  0.5239770000000  0.4515880000000  0.5545500000000 1.0
C      1  0.4826830000000  0.5177100000000  0.4835010000000 1.0
C      1  0.4448390000000  0.4518290000000  0.4672980000000 1.0
C      1  0.4360180000000  0.4638370000000  0.5409610000000 1.0
C      1  0.4810220000000  0.5917770000000  0.5203660000000 1.0
C      1  0.4643420000000  0.4227010000000  0.5302070000000 1.0
C      1  0.4398940000000  0.5023500000000  0.4545280000000 1.0
C      1  0.5276660000000  0.5569770000000  0.4518320000000 1.0
C      1  0.5115910000000  0.5453590000000  0.4319310000000 1.0
C      1  0.4876000000000  0.4246140000000  0.5470420000000 1.0
C      1  0.5662710000000  0.4788700000000  0.4493870000000 1.0
C      1  0.4664710000000  0.5705620000000  0.5328380000000 1.0
C      1  0.5451040000000  0.4821820000000  0.4313320000000 1.0
C      1  0.5026000000000  0.5222400000000  0.5716140000000 1.0
C      1  0.5763420000000  0.5043870000000  0.4589130000000 1.0
C      1  0.4934380000000  0.4357370000000  0.4625830000000 1.0
C      1  0.5328610000000  0.5358210000000  0.5264270000000 1.0
C      1  0.5293020000000  0.5158830000000  0.4850820000000 1.0
C      1  0.4834750000000  0.5464100000000  0.4709330000000 1.0
C      1  0.5870010000000  0.4840650000000  0.5000070000000 1.0
C      1  0.5584440000000  0.5521550000000  0.4878190000000 1.0
C      1  0.4424410000000  0.5062230000000  0.5012260000000 1.0
C      1  0.4661420000000  0.4262080000000  0.5028070000000 1.0
C      1  0.4446510000000  0.4430680000000  0.4941030000000 1.0
C      1  0.4914390000000  0.4691590000000  0.5063520000000 1.0
C      1  0.5084100000000  0.4722770000000  0.5667560000000 1.0
C      1  0.5847090000000  0.5084910000000  0.4858590000000 1.0
C      1  0.5684080000000  0.4579770000000  0.5331840000000 1.0
C      1  0.4987220000000  0.4767720000000  0.4217840000000 1.0
C      1  0.4577950000000  0.4962660000000  0.4333210000000 1.0
C      1  0.4840360000000  0.5407960000000  0.4403380000000 1.0
C      1  0.4542380000000  0.5245490000000  0.5204630000000 1.0
C      1  0.5193750000000  0.4424910000000  0.4510520000000 1.0
C      1  0.5190160000000  0.4996670000000  0.5597820000000 1.0
C      1  0.4577290000000  0.5339670000000  0.5642910000000 1.0
C      1  0.4818220000000  0.4669880000000  0.5735730000000 1.0
C      1  0.5023310000000  0.5493410000000  0.5600240000000 1.0
C      1  0.5494250000000  0.4637690000000  0.5532230000000 1.0
C      1  0.5640320000000  0.4434240000000  0.5086510000000 1.0
C      1  0.5319580000000  0.5796310000000  0.5254190000000 1.0
C      1  0.5483310000000  0.4921300000000  0.5581830000000 1.0
C      1  0.4544990000000  0.5536180000000  0.5128120000000 1.0
C      1  0.4843790000000  0.5135270000000  0.5151720000000 1.0
C      1  0.5116800000000  0.4786890000000  0.4905190000000 1.0
C      1  0.5621890000000  0.5270630000000  0.5260850000000 1.0
C      1  0.4106450000000  0.5272830000000  0.5345950000000 1.0
END
