TITL C-2708-3909-5 -41.0446744254167 125000 -262.218800899835 0 0 41 (C1) n - 1
REM
REM in /rds/project/t2_vol4/rds-t2-cs072/BORA/CARBON/from-Arr/AIRSS/Generating-Clusters/GAP-ML-2020/Only-C1/SD-CG/HFTN-CG
REM
REM
REM
REM
REM
REM ./C.cell (11c1c37f851c82e70ff6c80c92926a4b)
REM AIRSS Version 0.9.1 bugfix July 2018 build 013d7b7c2542+ Fri, 06 Jul 2018 19:26:36 +0100
REM compiler GCC version 9.3.0
REM options -cpp -mtune=generic -march=x86-64 -g -O0
REM seed 1726896477 -1239288539 -770750451 -1660499399 -374739807 2127048349 1465099235 311223521 221335437 1960401785 -678838445 545689100 993602593 1532626292 1265020376 1626645462 -1507980688 -1413793410 -551058489 1991672522 -1396620934 1221920530 55894971 -715858377 -2062455789 564168087 1452346979 324344923 1816939175 724738589 -2027603851 -1608833557 -1182244757
REM
CELL 1.54180   50.00000   50.00000   50.00000   90.00000   90.00000   90.00000
LATT -1
SFAC C  
C      1  0.4990220000000  0.5476400000000  0.4823320000000 1.0
C      1  0.5061970000000  0.5548110000000  0.5095750000000 1.0
C      1  0.5439640000000  0.4512120000000  0.4725420000000 1.0
C      1  0.4613670000000  0.4898700000000  0.5452220000000 1.0
C      1  0.5337530000000  0.5390480000000  0.5178680000000 1.0
C      1  0.4888740000000  0.5538570000000  0.5318980000000 1.0
C      1  0.5514500000000  0.4643960000000  0.4993670000000 1.0
C      1  0.5356670000000  0.5140650000000  0.4571850000000 1.0
C      1  0.5248750000000  0.5345960000000  0.5498730000000 1.0
C      1  0.4550530000000  0.4748380000000  0.4677700000000 1.0
C      1  0.5456590000000  0.4645480000000  0.4487930000000 1.0
C      1  0.4896340000000  0.4480240000000  0.4697630000000 1.0
C      1  0.4801700000000  0.5082570000000  0.5355230000000 1.0
C      1  0.5574540000000  0.5473630000000  0.5049870000000 1.0
C      1  0.4357670000000  0.5057810000000  0.5096080000000 1.0
C      1  0.5056660000000  0.5529060000000  0.5553190000000 1.0
C      1  0.5195090000000  0.4798920000000  0.4774400000000 1.0
C      1  0.5277180000000  0.4878990000000  0.5519690000000 1.0
C      1  0.5147110000000  0.4734900000000  0.5317380000000 1.0
C      1  0.4724060000000  0.5521250000000  0.4742050000000 1.0
C      1  0.4814850000000  0.4912520000000  0.4986080000000 1.0
C      1  0.4785550000000  0.4690310000000  0.4516950000000 1.0
C      1  0.4537290000000  0.4999360000000  0.4875970000000 1.0
C      1  0.5149290000000  0.4502500000000  0.4837500000000 1.0
C      1  0.5248330000000  0.5134550000000  0.5049040000000 1.0
C      1  0.5319100000000  0.5104220000000  0.5633490000000 1.0
C      1  0.5016960000000  0.4981300000000  0.5187000000000 1.0
C      1  0.4649830000000  0.4522610000000  0.4835850000000 1.0
C      1  0.5566600000000  0.5064740000000  0.4724280000000 1.0
C      1  0.4981050000000  0.4862130000000  0.4440820000000 1.0
C      1  0.5444960000000  0.4928590000000  0.4942610000000 1.0
C      1  0.4563290000000  0.5335030000000  0.4844780000000 1.0
C      1  0.5271500000000  0.4862110000000  0.4452920000000 1.0
C      1  0.5139290000000  0.5218120000000  0.4770350000000 1.0
C      1  0.5263600000000  0.4561960000000  0.5125340000000 1.0
C      1  0.4469070000000  0.5328600000000  0.5121510000000 1.0
C      1  0.4365020000000  0.4902990000000  0.5329050000000 1.0
C      1  0.4554310000000  0.4681670000000  0.5294000000000 1.0
C      1  0.4717520000000  0.4645420000000  0.5075760000000 1.0
C      1  0.4687870000000  0.5337060000000  0.5298130000000 1.0
C      1  0.4965570000000  0.4978030000000  0.4728810000000 1.0
END
