TITL C-2701-3794-11 -0.0250415089976194 125000 -107.049456995215 0 0 17 (C1) n - 1
REM
REM in /rds/project/t2_vol4/rds-t2-cs072/BORA/CARBON/from-Arr/AIRSS/Generating-Clusters/GAP-ML-2020/Only-C1/SD-CG/HFTN-CG
REM
REM
REM
REM
REM
REM ./C.cell (11c1c37f851c82e70ff6c80c92926a4b)
REM AIRSS Version 0.9.1 bugfix July 2018 build 013d7b7c2542+ Fri, 06 Jul 2018 19:26:36 +0100
REM compiler GCC version 9.3.0
REM options -cpp -mtune=generic -march=x86-64 -g -O0
REM seed 587789357 997120139 -847149039 207027881 -255672329 1570114381 1551014813 182723504 276732151 777038264 -489592787 287506288 916149916 -1744847401 -181096318 763387539 -1189206417 -245722590 1789523803 1984254418 -2124394996 1113590181 -141176003 -1140721496 659776557 692158319 -1376951065 -308296981 462529870 925937502 312063386 1136173997 1228516643
REM
CELL 1.54180   50.00000   50.00000   50.00000   90.00000   90.00000   90.00000
LATT -1
SFAC C  
C      1  0.4989380000000  0.5428080000000  0.4749730000000 1.0
C      1  0.4764040000000  0.4576310000000  0.4684580000000 1.0
C      1  0.4649690000000  0.4792120000000  0.4799260000000 1.0
C      1  0.5251730000000  0.4780160000000  0.5159910000000 1.0
C      1  0.4789330000000  0.5285930000000  0.4647980000000 1.0
C      1  0.4973380000000  0.4520630000000  0.4844120000000 1.0
C      1  0.5150020000000  0.4572380000000  0.5014370000000 1.0
C      1  0.4594050000000  0.4800430000000  0.5091420000000 1.0
C      1  0.4803350000000  0.4937620000000  0.5209580000000 1.0
C      1  0.4675200000000  0.5083710000000  0.4783760000000 1.0
C      1  0.4636550000000  0.5106310000000  0.5071330000000 1.0
C      1  0.5134920000000  0.5211250000000  0.5315350000000 1.0
C      1  0.5059560000000  0.4939320000000  0.5319890000000 1.0
C      1  0.5514780000000  0.4894490000000  0.5121820000000 1.0
C      1  0.5195350000000  0.5566980000000  0.4815460000000 1.0
C      1  0.5346870000000  0.5352350000000  0.5249560000000 1.0
C      1  0.5471800000000  0.5151940000000  0.5121900000000 1.0
END
