TITL C-27306-6562-3 708.672729408785 125000 -412.505419197092 0 0 61 (C1) n - 1
REM
REM in /rds/project/t2_vol4/rds-t2-cs072/BORA/CARBON/from-Arr/AIRSS/Generating-Clusters/GAP-ML-2020/Only-C1/SD-CG/HFTN-CG
REM
REM
REM
REM
REM
REM ./C.cell (11c1c37f851c82e70ff6c80c92926a4b)
REM AIRSS Version 0.9.1 bugfix July 2018 build 013d7b7c2542+ Fri, 06 Jul 2018 19:26:36 +0100
REM compiler GCC version 9.3.0
REM options -cpp -mtune=generic -march=x86-64 -g -O0
REM seed 858994341 1637179277 -2118354581 1420021752 1875711736 -1428685448 212633655 1641352516 -776857838 -572733587 -356719233 -2036972047 437017949 -1227941309 1361993336 -1508038361 -605686754 1934466460 705139059 3433175 -1105496301 -1927707582 780234450 603044996 412715103 57979198 -829376919 1083675662 1052754689 -659227678 -694533122 1693094557 -1724516910
REM
CELL 1.54180   50.00000   50.00000   50.00000   90.00000   90.00000   90.00000
LATT -1
SFAC C  
C      1  0.5160620000000  0.5269720000000  0.4302250000000 1.0
C      1  0.5225870000000  0.4761160000000  0.5157540000000 1.0
C      1  0.5510090000000  0.4718100000000  0.4661840000000 1.0
C      1  0.4504210000000  0.4923630000000  0.5268990000000 1.0
C      1  0.5393220000000  0.4937400000000  0.5407530000000 1.0
C      1  0.4616070000000  0.4376640000000  0.4909710000000 1.0
C      1  0.4361260000000  0.5023960000000  0.5042080000000 1.0
C      1  0.5120270000000  0.4345000000000  0.4976550000000 1.0
C      1  0.4859200000000  0.4288270000000  0.5323080000000 1.0
C      1  0.5043460000000  0.4579450000000  0.4553890000000 1.0
C      1  0.4794430000000  0.4987760000000  0.4362980000000 1.0
C      1  0.5306590000000  0.5388900000000  0.5214770000000 1.0
C      1  0.5360540000000  0.4491850000000  0.5072560000000 1.0
C      1  0.5467390000000  0.4462760000000  0.5356500000000 1.0
C      1  0.5643820000000  0.5082630000000  0.5065260000000 1.0
C      1  0.4795330000000  0.4771030000000  0.4897220000000 1.0
C      1  0.4521470000000  0.5245560000000  0.4641680000000 1.0
C      1  0.5691350000000  0.4804780000000  0.5107610000000 1.0
C      1  0.5079050000000  0.5193100000000  0.5216480000000 1.0
C      1  0.5132270000000  0.5526750000000  0.5409280000000 1.0
C      1  0.4402540000000  0.4543290000000  0.4809580000000 1.0
C      1  0.4737050000000  0.5180850000000  0.5666770000000 1.0
C      1  0.4557630000000  0.4985640000000  0.4523280000000 1.0
C      1  0.4419430000000  0.5279960000000  0.4909780000000 1.0
C      1  0.5317280000000  0.5506560000000  0.4240880000000 1.0
C      1  0.4583710000000  0.5353330000000  0.5509570000000 1.0
C      1  0.5310410000000  0.4561970000000  0.4568120000000 1.0
C      1  0.4893490000000  0.5662510000000  0.5303340000000 1.0
C      1  0.4655930000000  0.4426750000000  0.5189290000000 1.0
C      1  0.4718080000000  0.4722280000000  0.5199720000000 1.0
C      1  0.4945480000000  0.5013350000000  0.4855220000000 1.0
C      1  0.5288420000000  0.5586160000000  0.4484140000000 1.0
C      1  0.5457850000000  0.4993650000000  0.4598770000000 1.0
C      1  0.5016480000000  0.4470620000000  0.5479580000000 1.0
C      1  0.5101860000000  0.4996330000000  0.5469370000000 1.0
C      1  0.5247310000000  0.5018350000000  0.4410080000000 1.0
C      1  0.4877640000000  0.5253440000000  0.4999770000000 1.0
C      1  0.4544440000000  0.5076830000000  0.5495750000000 1.0
C      1  0.5185740000000  0.5569510000000  0.4740690000000 1.0
C      1  0.5139200000000  0.5417930000000  0.5663710000000 1.0
C      1  0.4551790000000  0.4778430000000  0.4715870000000 1.0
C      1  0.5198100000000  0.4989460000000  0.4983450000000 1.0
C      1  0.5576630000000  0.4631210000000  0.4921620000000 1.0
C      1  0.5594760000000  0.4728100000000  0.5380230000000 1.0
C      1  0.4911470000000  0.4492140000000  0.4811450000000 1.0
C      1  0.4881250000000  0.5257560000000  0.4347960000000 1.0
C      1  0.4626030000000  0.5531750000000  0.5307040000000 1.0
C      1  0.4875090000000  0.5844420000000  0.5099780000000 1.0
C      1  0.4511210000000  0.5522370000000  0.5045340000000 1.0
C      1  0.4302300000000  0.4786020000000  0.4884750000000 1.0
C      1  0.4719540000000  0.5689240000000  0.4919290000000 1.0
C      1  0.4890620000000  0.5507490000000  0.4776350000000 1.0
C      1  0.4984420000000  0.4735500000000  0.5349110000000 1.0
C      1  0.5026940000000  0.4146240000000  0.5147260000000 1.0
C      1  0.4744460000000  0.5398940000000  0.4552260000000 1.0
C      1  0.5023430000000  0.4828260000000  0.4404400000000 1.0
C      1  0.5502020000000  0.5179700000000  0.5291410000000 1.0
C      1  0.5347160000000  0.5425060000000  0.4919530000000 1.0
C      1  0.5449670000000  0.5151540000000  0.4849630000000 1.0
C      1  0.5273630000000  0.4412140000000  0.5533570000000 1.0
C      1  0.5023010000000  0.5166650000000  0.5694480000000 1.0
END
