TITL C-27308-6413-9 -126.4888017324 125000 -427.918467076211 0 0 63 (C1) n - 1
REM
REM in /rds/project/t2_vol4/rds-t2-cs072/BORA/CARBON/from-Arr/AIRSS/Generating-Clusters/GAP-ML-2020/Only-C1/SD-CG/HFTN-CG
REM
REM
REM
REM
REM
REM ./C.cell (11c1c37f851c82e70ff6c80c92926a4b)
REM AIRSS Version 0.9.1 bugfix July 2018 build 013d7b7c2542+ Fri, 06 Jul 2018 19:26:36 +0100
REM compiler GCC version 9.3.0
REM options -cpp -mtune=generic -march=x86-64 -g -O0
REM seed -1439880658 -1392631741 1958345900 268070642 -1490191174 -285692748 1523410445 -930015709 -1968556974 -1663639940 1241148563 276107312 1012759701 105217482 -3249623 201659204 953722027 374811355 1160137926 1437580459 -1628168207 1514082966 220480740 -1446292020 406291970 330261975 1064440070 1618602159 1197407701 1746918294 1342488588 253811585 -596268003
REM
CELL 1.54180   50.00000   50.00000   50.00000   90.00000   90.00000   90.00000
LATT -1
SFAC C  
C      1  0.4806230000000  0.5573980000000  0.5034790000000 1.0
C      1  0.4969250000000  0.5357180000000  0.5160450000000 1.0
C      1  0.5027710000000  0.4759940000000  0.5600830000000 1.0
C      1  0.4642420000000  0.4903750000000  0.4481650000000 1.0
C      1  0.5484640000000  0.4639030000000  0.5069860000000 1.0
C      1  0.4773490000000  0.5505080000000  0.4580210000000 1.0
C      1  0.5520920000000  0.5524870000000  0.5125680000000 1.0
C      1  0.5029450000000  0.5148030000000  0.5750040000000 1.0
C      1  0.4758290000000  0.4939900000000  0.4956540000000 1.0
C      1  0.5071610000000  0.5095220000000  0.4308440000000 1.0
C      1  0.5202670000000  0.5659800000000  0.4704600000000 1.0
C      1  0.5623210000000  0.5386700000000  0.4905790000000 1.0
C      1  0.5145310000000  0.5271240000000  0.4929020000000 1.0
C      1  0.4765010000000  0.4421020000000  0.5214410000000 1.0
C      1  0.4555790000000  0.5449230000000  0.5006380000000 1.0
C      1  0.5415920000000  0.4680200000000  0.5351560000000 1.0
C      1  0.4895060000000  0.4876200000000  0.4304210000000 1.0
C      1  0.4347660000000  0.5136870000000  0.4742660000000 1.0
C      1  0.4981470000000  0.5395730000000  0.5626570000000 1.0
C      1  0.4371490000000  0.5000740000000  0.4506810000000 1.0
C      1  0.5008870000000  0.4831540000000  0.5063110000000 1.0
C      1  0.5255340000000  0.4600700000000  0.4523780000000 1.0
C      1  0.5241900000000  0.5513840000000  0.4456080000000 1.0
C      1  0.4473860000000  0.4764050000000  0.5525230000000 1.0
C      1  0.4718750000000  0.4373800000000  0.4940930000000 1.0
C      1  0.5217180000000  0.4248640000000  0.5154890000000 1.0
C      1  0.4357280000000  0.5028390000000  0.5013100000000 1.0
C      1  0.4626810000000  0.4676850000000  0.5304580000000 1.0
C      1  0.4520430000000  0.4561220000000  0.4836230000000 1.0
C      1  0.5150690000000  0.5420550000000  0.5396290000000 1.0
C      1  0.5669790000000  0.5101050000000  0.4943110000000 1.0
C      1  0.4488510000000  0.5228250000000  0.5189930000000 1.0
C      1  0.4878160000000  0.4865170000000  0.5343260000000 1.0
C      1  0.4530890000000  0.5250360000000  0.5479390000000 1.0
C      1  0.4777170000000  0.5125850000000  0.5213820000000 1.0
C      1  0.4995820000000  0.5365940000000  0.4420070000000 1.0
C      1  0.5235860000000  0.4956910000000  0.5666230000000 1.0
C      1  0.4559250000000  0.4998060000000  0.5641710000000 1.0
C      1  0.5472160000000  0.4884030000000  0.4866300000000 1.0
C      1  0.5415210000000  0.4828270000000  0.4567920000000 1.0
C      1  0.4754460000000  0.5082280000000  0.4717510000000 1.0
C      1  0.5221520000000  0.5004180000000  0.4986740000000 1.0
C      1  0.5464630000000  0.4918310000000  0.5509950000000 1.0
C      1  0.5180430000000  0.4549960000000  0.5465870000000 1.0
C      1  0.4816150000000  0.4469590000000  0.4502810000000 1.0
C      1  0.4822200000000  0.4949060000000  0.5737360000000 1.0
C      1  0.5340210000000  0.5505520000000  0.4901430000000 1.0
C      1  0.4909970000000  0.5660050000000  0.4771170000000 1.0
C      1  0.5601500000000  0.5148300000000  0.5401840000000 1.0
C      1  0.5031910000000  0.4363080000000  0.5308860000000 1.0
C      1  0.5350990000000  0.5052580000000  0.4390630000000 1.0
C      1  0.4592400000000  0.4622170000000  0.4569680000000 1.0
C      1  0.5205450000000  0.4407270000000  0.4730050000000 1.0
C      1  0.5351420000000  0.4404770000000  0.4975780000000 1.0
C      1  0.5436050000000  0.5392870000000  0.5362160000000 1.0
C      1  0.5008630000000  0.5198930000000  0.4683710000000 1.0
C      1  0.5431660000000  0.5310220000000  0.4453880000000 1.0
C      1  0.4511440000000  0.4777590000000  0.5030570000000 1.0
C      1  0.4715900000000  0.5439130000000  0.5557600000000 1.0
C      1  0.4922110000000  0.4340320000000  0.4735110000000 1.0
C      1  0.5010130000000  0.4624800000000  0.4364880000000 1.0
C      1  0.5777790000000  0.5084530000000  0.5193780000000 1.0
C      1  0.4561490000000  0.5346310000000  0.4742190000000 1.0
END
