TITL C-2723-5428-3 -0.0655255837924119 125000 -595.920454831437 0 0 86 (C1) n - 1
REM
REM in /rds/project/t2_vol4/rds-t2-cs072/BORA/CARBON/from-Arr/AIRSS/Generating-Clusters/GAP-ML-2020/Only-C1/SD-CG/HFTN-CG
REM
REM
REM
REM
REM
REM ./C.cell (11c1c37f851c82e70ff6c80c92926a4b)
REM AIRSS Version 0.9.1 bugfix July 2018 build 013d7b7c2542+ Fri, 06 Jul 2018 19:26:36 +0100
REM compiler GCC version 9.3.0
REM options -cpp -mtune=generic -march=x86-64 -g -O0
REM seed -33475357 84951871 199417627 -1499996785 -1511453953 2001380835 1728804304 1067269089 1837064383 1221846571 -1006035832 341478134 616939142 1260544384 -434118629 1561234695 986231319 -1887686728 -1730672017 -1374568872 1653111436 -936274289 323042744 744589963 -663036243 2206982 -959085480 -1619108191 1089367026 -1720540030 1756014155 958944432 -1986490180
REM
CELL 1.54180   50.00000   50.00000   50.00000   90.00000   90.00000   90.00000
LATT -1
SFAC C  
C      1  0.4858500000000  0.5103720000000  0.5114230000000 1.0
C      1  0.4885100000000  0.4821660000000  0.4179040000000 1.0
C      1  0.5696970000000  0.4644120000000  0.5007400000000 1.0
C      1  0.4516410000000  0.5390220000000  0.5518890000000 1.0
C      1  0.4951480000000  0.4277950000000  0.5037890000000 1.0
C      1  0.5178160000000  0.5034150000000  0.5052760000000 1.0
C      1  0.5213030000000  0.5219980000000  0.5732460000000 1.0
C      1  0.4293850000000  0.5316270000000  0.4774930000000 1.0
C      1  0.5321990000000  0.5571880000000  0.5465390000000 1.0
C      1  0.5189350000000  0.4935350000000  0.5739000000000 1.0
C      1  0.4481970000000  0.4733620000000  0.4490270000000 1.0
C      1  0.5070370000000  0.4285050000000  0.4553110000000 1.0
C      1  0.4840660000000  0.5378020000000  0.5045570000000 1.0
C      1  0.4787570000000  0.5375550000000  0.4351270000000 1.0
C      1  0.5185710000000  0.4526740000000  0.5469890000000 1.0
C      1  0.4494730000000  0.4774230000000  0.5567010000000 1.0
C      1  0.4716160000000  0.4923490000000  0.4920550000000 1.0
C      1  0.4931530000000  0.4803600000000  0.4770970000000 1.0
C      1  0.4931990000000  0.4549400000000  0.5632280000000 1.0
C      1  0.5357840000000  0.5050310000000  0.4254670000000 1.0
C      1  0.5172010000000  0.5183160000000  0.4772430000000 1.0
C      1  0.4629660000000  0.4897250000000  0.4293640000000 1.0
C      1  0.5683780000000  0.4995280000000  0.4618340000000 1.0
C      1  0.4237880000000  0.5065290000000  0.4908460000000 1.0
C      1  0.5422920000000  0.4376940000000  0.5336330000000 1.0
C      1  0.5303690000000  0.5106670000000  0.5287400000000 1.0
C      1  0.5752630000000  0.4918830000000  0.4894120000000 1.0
C      1  0.5427720000000  0.4156240000000  0.5181360000000 1.0
C      1  0.4904710000000  0.5897000000000  0.5128940000000 1.0
C      1  0.5045280000000  0.4545850000000  0.5173830000000 1.0
C      1  0.4367930000000  0.5176680000000  0.4531100000000 1.0
C      1  0.4826010000000  0.4392550000000  0.4433920000000 1.0
C      1  0.5037990000000  0.5601850000000  0.5521300000000 1.0
C      1  0.5600570000000  0.5027720000000  0.5409610000000 1.0
C      1  0.4328340000000  0.5304200000000  0.5309450000000 1.0
C      1  0.4594620000000  0.4478350000000  0.4573890000000 1.0
C      1  0.5376240000000  0.4631640000000  0.4784680000000 1.0
C      1  0.4402710000000  0.5555350000000  0.4885240000000 1.0
C      1  0.5307740000000  0.5321330000000  0.4345760000000 1.0
C      1  0.5600020000000  0.4767770000000  0.5489220000000 1.0
C      1  0.5083590000000  0.5025800000000  0.4155030000000 1.0
C      1  0.4303270000000  0.4811000000000  0.5358210000000 1.0
C      1  0.5476600000000  0.5593660000000  0.5219430000000 1.0
C      1  0.5406880000000  0.4217920000000  0.4912860000000 1.0
C      1  0.5170770000000  0.5940940000000  0.5070100000000 1.0
C      1  0.4804580000000  0.5535160000000  0.4587540000000 1.0
C      1  0.5259930000000  0.5594730000000  0.4771120000000 1.0
C      1  0.4253300000000  0.5051910000000  0.5199810000000 1.0
C      1  0.4789670000000  0.4672710000000  0.5255490000000 1.0
C      1  0.4389060000000  0.5550150000000  0.5165760000000 1.0
C      1  0.5218070000000  0.4474080000000  0.4374340000000 1.0
C      1  0.4734700000000  0.5883650000000  0.4914900000000 1.0
C      1  0.5658340000000  0.5272910000000  0.4694260000000 1.0
C      1  0.4825990000000  0.4939970000000  0.5350760000000 1.0
C      1  0.5744940000000  0.5217700000000  0.4969060000000 1.0
C      1  0.5346660000000  0.4736680000000  0.5609530000000 1.0
C      1  0.4934520000000  0.4809070000000  0.5747940000000 1.0
C      1  0.5399270000000  0.4639480000000  0.4499560000000 1.0
C      1  0.4666730000000  0.4526050000000  0.5494570000000 1.0
C      1  0.5671520000000  0.5278520000000  0.5488310000000 1.0
C      1  0.5126190000000  0.4203030000000  0.4814980000000 1.0
C      1  0.4577800000000  0.5173080000000  0.4340020000000 1.0
C      1  0.5347310000000  0.5740410000000  0.5000360000000 1.0
C      1  0.4600620000000  0.4440530000000  0.4853630000000 1.0
C      1  0.5513710000000  0.4880610000000  0.4414800000000 1.0
C      1  0.5632650000000  0.4574760000000  0.5282520000000 1.0
C      1  0.4578200000000  0.5632790000000  0.5374370000000 1.0
C      1  0.4521750000000  0.4356060000000  0.5306360000000 1.0
C      1  0.5679210000000  0.5386140000000  0.5208910000000 1.0
C      1  0.5571100000000  0.4438920000000  0.4839480000000 1.0
C      1  0.5435080000000  0.5375900000000  0.5630340000000 1.0
C      1  0.4664490000000  0.4259730000000  0.5061710000000 1.0
C      1  0.5152220000000  0.4735130000000  0.4964060000000 1.0
C      1  0.4708930000000  0.4966020000000  0.5640950000000 1.0
C      1  0.4319080000000  0.4916510000000  0.4648070000000 1.0
C      1  0.4968570000000  0.4564590000000  0.4252740000000 1.0
C      1  0.4585810000000  0.4675670000000  0.5027880000000 1.0
C      1  0.5025470000000  0.5004370000000  0.4611620000000 1.0
C      1  0.4622100000000  0.5698610000000  0.4750690000000 1.0
C      1  0.5034970000000  0.5300550000000  0.4240710000000 1.0
C      1  0.5003190000000  0.5445980000000  0.4793690000000 1.0
C      1  0.4836070000000  0.5744750000000  0.5374580000000 1.0
C      1  0.4708090000000  0.5257880000000  0.5675800000000 1.0
C      1  0.4353170000000  0.4582750000000  0.5201010000000 1.0
C      1  0.4971550000000  0.5373750000000  0.5679800000000 1.0
C      1  0.5398470000000  0.5384140000000  0.4615750000000 1.0
END
