TITL C-27301-6531-9 30.6974330507931 125000 -564.285492874664 0 0 80 (C1) n - 1
REM
REM in /rds/project/t2_vol4/rds-t2-cs072/BORA/CARBON/from-Arr/AIRSS/Generating-Clusters/GAP-ML-2020/Only-C1/SD-CG/HFTN-CG
REM
REM
REM
REM
REM
REM ./C.cell (11c1c37f851c82e70ff6c80c92926a4b)
REM AIRSS Version 0.9.1 bugfix July 2018 build 013d7b7c2542+ Fri, 06 Jul 2018 19:26:36 +0100
REM compiler GCC version 9.3.0
REM options -cpp -mtune=generic -march=x86-64 -g -O0
REM seed 1737477239 864734938 668793706 -1088491579 -431760497 305544049 -1723985559 -694725419 518412516 793924501 -927849713 1885940740 -657590468 -647720135 908342205 1249310383 1208615202 -841697542 1306303991 1087554340 1857509973 -155877869 -356492121 -868669222 -131760026 -420816137 932282199 1741955923 1977487916 816191329 2133824459 164506222 -579190844
REM
CELL 1.54180   50.00000   50.00000   50.00000   90.00000   90.00000   90.00000
LATT -1
SFAC C  
C      1  0.5750260000000  0.5065440000000  0.5037380000000 1.0
C      1  0.5381720000000  0.5253680000000  0.5586870000000 1.0
C      1  0.4213550000000  0.4904510000000  0.5292310000000 1.0
C      1  0.5639690000000  0.5135890000000  0.5597050000000 1.0
C      1  0.5611320000000  0.4827220000000  0.5574400000000 1.0
C      1  0.4291210000000  0.5281870000000  0.5009120000000 1.0
C      1  0.5766480000000  0.4881660000000  0.4825360000000 1.0
C      1  0.4944600000000  0.5702070000000  0.5142310000000 1.0
C      1  0.4934480000000  0.4308050000000  0.5037390000000 1.0
C      1  0.4843990000000  0.4819960000000  0.4883000000000 1.0
C      1  0.5527660000000  0.4450820000000  0.4557290000000 1.0
C      1  0.4555500000000  0.5532280000000  0.5496280000000 1.0
C      1  0.5036620000000  0.5580300000000  0.5404330000000 1.0
C      1  0.5004380000000  0.4436410000000  0.4581050000000 1.0
C      1  0.5072800000000  0.5079400000000  0.5269460000000 1.0
C      1  0.5239320000000  0.4682190000000  0.4704400000000 1.0
C      1  0.4617800000000  0.5107780000000  0.4496230000000 1.0
C      1  0.4500970000000  0.4489880000000  0.5226720000000 1.0
C      1  0.4397460000000  0.4480800000000  0.4951250000000 1.0
C      1  0.4501570000000  0.5713250000000  0.5302340000000 1.0
C      1  0.5225330000000  0.4541280000000  0.5446670000000 1.0
C      1  0.4386520000000  0.4698970000000  0.5405430000000 1.0
C      1  0.5630630000000  0.4961210000000  0.4591790000000 1.0
C      1  0.4159480000000  0.5075970000000  0.4864060000000 1.0
C      1  0.4226760000000  0.4865170000000  0.4667550000000 1.0
C      1  0.5432720000000  0.4759390000000  0.4491210000000 1.0
C      1  0.4952270000000  0.4985490000000  0.5715740000000 1.0
C      1  0.4526660000000  0.5102560000000  0.5672140000000 1.0
C      1  0.4823700000000  0.5470930000000  0.5580620000000 1.0
C      1  0.4388440000000  0.5295800000000  0.5519860000000 1.0
C      1  0.5267730000000  0.4393730000000  0.4713060000000 1.0
C      1  0.5257870000000  0.5589100000000  0.4486350000000 1.0
C      1  0.4821440000000  0.4333410000000  0.4773460000000 1.0
C      1  0.4097040000000  0.4856030000000  0.5049400000000 1.0
C      1  0.4814730000000  0.4738870000000  0.5642450000000 1.0
C      1  0.5636920000000  0.4561240000000  0.5167690000000 1.0
C      1  0.5023610000000  0.5235370000000  0.4824050000000 1.0
C      1  0.5762880000000  0.4735940000000  0.5358480000000 1.0
C      1  0.4805450000000  0.5534320000000  0.4491270000000 1.0
C      1  0.5306050000000  0.5481560000000  0.5411980000000 1.0
C      1  0.5357060000000  0.5169210000000  0.4309420000000 1.0
C      1  0.4798100000000  0.5126000000000  0.5221690000000 1.0
C      1  0.5382670000000  0.5595270000000  0.4923420000000 1.0
C      1  0.4270880000000  0.5190840000000  0.5289210000000 1.0
C      1  0.4975770000000  0.4852070000000  0.4271840000000 1.0
C      1  0.4861700000000  0.4616800000000  0.4399430000000 1.0
C      1  0.4789490000000  0.5294810000000  0.4989580000000 1.0
C      1  0.4919850000000  0.5359640000000  0.4284170000000 1.0
C      1  0.4784810000000  0.5211990000000  0.5713160000000 1.0
C      1  0.5216470000000  0.5080860000000  0.5011680000000 1.0
C      1  0.4535680000000  0.5432930000000  0.4896230000000 1.0
C      1  0.4591690000000  0.4618850000000  0.4494620000000 1.0
C      1  0.5459540000000  0.5486740000000  0.4655410000000 1.0
C      1  0.5505490000000  0.5206340000000  0.5065360000000 1.0
C      1  0.5196600000000  0.5023750000000  0.5567080000000 1.0
C      1  0.4446850000000  0.4866240000000  0.4501820000000 1.0
C      1  0.5116260000000  0.5713440000000  0.4909200000000 1.0
C      1  0.5743970000000  0.4602350000000  0.4897380000000 1.0
C      1  0.5344500000000  0.4766570000000  0.5572850000000 1.0
C      1  0.4564860000000  0.4431250000000  0.4725230000000 1.0
C      1  0.5375600000000  0.4441770000000  0.5219680000000 1.0
C      1  0.5027190000000  0.5683300000000  0.4626450000000 1.0
C      1  0.4682180000000  0.4917660000000  0.5085270000000 1.0
C      1  0.5132410000000  0.4810380000000  0.4936320000000 1.0
C      1  0.5193470000000  0.5396330000000  0.4285460000000 1.0
C      1  0.4648340000000  0.5664410000000  0.5078160000000 1.0
C      1  0.4936910000000  0.4534520000000  0.5472310000000 1.0
C      1  0.5762450000000  0.4417220000000  0.4684270000000 1.0
C      1  0.4813430000000  0.5097290000000  0.4276050000000 1.0
C      1  0.5217850000000  0.4325630000000  0.5007700000000 1.0
C      1  0.4583900000000  0.5402320000000  0.4599450000000 1.0
C      1  0.5879900000000  0.4995570000000  0.5275000000000 1.0
C      1  0.4193830000000  0.4657120000000  0.4875240000000 1.0
C      1  0.4777650000000  0.4409960000000  0.5264110000000 1.0
C      1  0.4544220000000  0.4816040000000  0.5607790000000 1.0
C      1  0.5872120000000  0.5196160000000  0.5473260000000 1.0
C      1  0.5542480000000  0.5223000000000  0.4523550000000 1.0
C      1  0.4858150000000  0.5042770000000  0.4698870000000 1.0
C      1  0.5260050000000  0.4901810000000  0.4297930000000 1.0
C      1  0.5458010000000  0.5471010000000  0.5166520000000 1.0
END
