TITL C-27308-6413-3 9.64335750320749 125000 -50.6728216810146 0 0 8 (C2v) n - 1
REM
REM in /rds/project/t2_vol4/rds-t2-cs072/BORA/CARBON/from-Arr/AIRSS/Generating-Clusters/GAP-ML-2020/Only-C1/SD-CG/HFTN-CG
REM
REM
REM
REM
REM
REM ./C.cell (11c1c37f851c82e70ff6c80c92926a4b)
REM AIRSS Version 0.9.1 bugfix July 2018 build 013d7b7c2542+ Fri, 06 Jul 2018 19:26:36 +0100
REM compiler GCC version 9.3.0
REM options -cpp -mtune=generic -march=x86-64 -g -O0
REM seed 1769957613 -13381481 1728430994 -9138326 -1521457133 591009271 527049696 1674802877 -2066876166 119649003 942340260 -1563587474 1924808414 -861047646 -1556335038 1420715306 1532237846 -562855417 -1625342151 -1687450088 1045780737 -1715240170 648608863 -1579605579 -448077926 -511693591 690273233 789992336 -1626717383 877681944 -990968475 687337617 360452207
REM
CELL 1.54180   50.00000   50.00000   50.00000   90.00000   90.00000   90.00000
LATT -1
SFAC C  
C      1  0.5771930000000  0.5152990000000  0.4648670000000 1.0
C      1  0.5541310000000  0.5107280000000  0.4753640000000 1.0
C      1  0.4460840000000  0.4812290000000  0.5361220000000 1.0
C      1  0.4857620000000  0.4971780000000  0.5064800000000 1.0
C      1  0.5310740000000  0.5061580000000  0.4858570000000 1.0
C      1  0.4622990000000  0.4925280000000  0.5171590000000 1.0
C      1  0.4350530000000  0.4952140000000  0.5179750000000 1.0
C      1  0.5084040000000  0.5016650000000  0.4961750000000 1.0
END
