TITL C-2700-3800-8 -163.0298440767 125000 -973.921724788497 0 0 139 (C1) n - 1
REM
REM in /rds/project/t2_vol4/rds-t2-cs072/BORA/CARBON/from-Arr/AIRSS/Generating-Clusters/GAP-ML-2020/Only-C1/SD-CG/HFTN-CG
REM
REM
REM
REM
REM
REM ./C.cell (11c1c37f851c82e70ff6c80c92926a4b)
REM AIRSS Version 0.9.1 bugfix July 2018 build 013d7b7c2542+ Fri, 06 Jul 2018 19:26:36 +0100
REM compiler GCC version 9.3.0
REM options -cpp -mtune=generic -march=x86-64 -g -O0
REM seed 1670349630 1686578490 -1808563439 -668525861 -897390046 -887324818 1484687236 1121368789 1293597597 1192609152 1098532421 222563106 -918201223 1381444445 992948455 1521990967 529924986 1669416732 1093606928 -867367751 -1832963142 2146265767 -614596687 905331765 -2085509342 -1676921264 989649951 281475928 -1336770599 2044559293 2139340167 2017553035 -789854503
REM
CELL 1.54180   50.00000   50.00000   50.00000   90.00000   90.00000   90.00000
LATT -1
SFAC C  
C      1  0.5490970000000  0.4141020000000  0.4881100000000 1.0
C      1  0.5282340000000  0.4658120000000  0.4410860000000 1.0
C      1  0.5334100000000  0.4832660000000  0.4935290000000 1.0
C      1  0.4836040000000  0.4789610000000  0.4134300000000 1.0
C      1  0.4652570000000  0.5903790000000  0.5073560000000 1.0
C      1  0.4558670000000  0.4753610000000  0.4202430000000 1.0
C      1  0.5827100000000  0.4967720000000  0.5440360000000 1.0
C      1  0.4614180000000  0.4864380000000  0.5053510000000 1.0
C      1  0.4377770000000  0.5759270000000  0.4680970000000 1.0
C      1  0.4110590000000  0.4877160000000  0.5696960000000 1.0
C      1  0.4585110000000  0.5262790000000  0.5296020000000 1.0
C      1  0.4959530000000  0.5793280000000  0.5453850000000 1.0
C      1  0.5046850000000  0.4878640000000  0.4881340000000 1.0
C      1  0.4711720000000  0.5373900000000  0.4135590000000 1.0
C      1  0.5130460000000  0.5913310000000  0.4795220000000 1.0
C      1  0.4340030000000  0.4589170000000  0.4585400000000 1.0
C      1  0.5433300000000  0.4915760000000  0.4441970000000 1.0
C      1  0.5210550000000  0.5775250000000  0.4554080000000 1.0
C      1  0.5261220000000  0.4820760000000  0.5686070000000 1.0
C      1  0.4132840000000  0.4633000000000  0.5016780000000 1.0
C      1  0.5868120000000  0.4965490000000  0.5707900000000 1.0
C      1  0.5229170000000  0.4577860000000  0.5873130000000 1.0
C      1  0.5673320000000  0.4730570000000  0.5338380000000 1.0
C      1  0.4958690000000  0.4082130000000  0.5087410000000 1.0
C      1  0.4221880000000  0.5132920000000  0.4983420000000 1.0
C      1  0.4200610000000  0.5523220000000  0.4640840000000 1.0
C      1  0.5086080000000  0.5399020000000  0.5854150000000 1.0
C      1  0.4982500000000  0.5188910000000  0.6015210000000 1.0
C      1  0.5489440000000  0.5515490000000  0.4268840000000 1.0
C      1  0.5211120000000  0.5778860000000  0.5267210000000 1.0
C      1  0.5064920000000  0.4771260000000  0.6023620000000 1.0
C      1  0.4020880000000  0.4903060000000  0.5043070000000 1.0
C      1  0.5542730000000  0.4366460000000  0.5079350000000 1.0
C      1  0.4763460000000  0.5003740000000  0.5633150000000 1.0
C      1  0.5890850000000  0.4744690000000  0.4924290000000 1.0
C      1  0.4362270000000  0.5430780000000  0.4425630000000 1.0
C      1  0.4302810000000  0.4838410000000  0.5875370000000 1.0
C      1  0.5393460000000  0.4511590000000  0.4172870000000 1.0
C      1  0.5401910000000  0.5050720000000  0.5874090000000 1.0
C      1  0.5449570000000  0.5650900000000  0.5386520000000 1.0
C      1  0.4970590000000  0.4721710000000  0.4395670000000 1.0
C      1  0.5877860000000  0.4717540000000  0.4638020000000 1.0
C      1  0.4459830000000  0.5245280000000  0.4241930000000 1.0
C      1  0.4753510000000  0.4144310000000  0.5537510000000 1.0
C      1  0.4539360000000  0.4539400000000  0.4391780000000 1.0
C      1  0.5375940000000  0.5383990000000  0.5479540000000 1.0
C      1  0.4494900000000  0.5683460000000  0.5493130000000 1.0
C      1  0.5932960000000  0.5179910000000  0.4752970000000 1.0
C      1  0.5692450000000  0.5038300000000  0.4323720000000 1.0
C      1  0.5858260000000  0.5449700000000  0.4845220000000 1.0
C      1  0.4643000000000  0.4554180000000  0.5739230000000 1.0
C      1  0.5449420000000  0.5577920000000  0.4565650000000 1.0
C      1  0.4964560000000  0.4967830000000  0.3955320000000 1.0
C      1  0.5012720000000  0.5129650000000  0.5015140000000 1.0
C      1  0.5109940000000  0.4346690000000  0.5748150000000 1.0
C      1  0.5426850000000  0.4239730000000  0.4289450000000 1.0
C      1  0.4936160000000  0.5550170000000  0.5633520000000 1.0
C      1  0.5397790000000  0.4897380000000  0.5228860000000 1.0
C      1  0.4816120000000  0.4930450000000  0.5930000000000 1.0
C      1  0.4646630000000  0.5502820000000  0.5649050000000 1.0
C      1  0.5350340000000  0.5319220000000  0.5769170000000 1.0
C      1  0.5444960000000  0.5009800000000  0.4728580000000 1.0
C      1  0.4355090000000  0.4305970000000  0.5278510000000 1.0
C      1  0.5381350000000  0.4677920000000  0.3959270000000 1.0
C      1  0.4442480000000  0.4816450000000  0.5302250000000 1.0
C      1  0.4461000000000  0.5008310000000  0.4821630000000 1.0
C      1  0.5911200000000  0.5022570000000  0.4984550000000 1.0
C      1  0.4003050000000  0.5108400000000  0.5528510000000 1.0
C      1  0.4494750000000  0.4169120000000  0.5462430000000 1.0
C      1  0.4161070000000  0.5310880000000  0.5439160000000 1.0
C      1  0.4398180000000  0.5819690000000  0.4957360000000 1.0
C      1  0.5784310000000  0.5168360000000  0.5212270000000 1.0
C      1  0.5245090000000  0.5586860000000  0.4136970000000 1.0
C      1  0.4221150000000  0.4576160000000  0.5296090000000 1.0
C      1  0.5776910000000  0.4480670000000  0.4558260000000 1.0
C      1  0.5163950000000  0.4137730000000  0.4299720000000 1.0
C      1  0.4593390000000  0.5613020000000  0.4523070000000 1.0
C      1  0.4868330000000  0.5877820000000  0.4895620000000 1.0
C      1  0.4850480000000  0.4687720000000  0.5002720000000 1.0
C      1  0.5338890000000  0.4471230000000  0.4631520000000 1.0
C      1  0.4926200000000  0.4212590000000  0.4343200000000 1.0
C      1  0.4851300000000  0.4432430000000  0.4798120000000 1.0
C      1  0.4990160000000  0.4087070000000  0.5376320000000 1.0
C      1  0.5577400000000  0.5806170000000  0.4975290000000 1.0
C      1  0.4338890000000  0.4873300000000  0.4574480000000 1.0
C      1  0.4778440000000  0.5612370000000  0.4291180000000 1.0
C      1  0.5056440000000  0.5709050000000  0.4316380000000 1.0
C      1  0.4015640000000  0.4697490000000  0.5470200000000 1.0
C      1  0.5203050000000  0.5015580000000  0.6080900000000 1.0
C      1  0.4866630000000  0.5590560000000  0.4943270000000 1.0
C      1  0.5115450000000  0.5205100000000  0.4533110000000 1.0
C      1  0.5195450000000  0.4117090000000  0.4916750000000 1.0
C      1  0.4554830000000  0.4758990000000  0.5934200000000 1.0
C      1  0.5257580000000  0.4914610000000  0.3912700000000 1.0
C      1  0.5072520000000  0.5374570000000  0.5423060000000 1.0
C      1  0.5647350000000  0.4879450000000  0.5853660000000 1.0
C      1  0.4232710000000  0.5626850000000  0.5095350000000 1.0
C      1  0.4675320000000  0.4735340000000  0.5493870000000 1.0
C      1  0.4248740000000  0.5576340000000  0.5376430000000 1.0
C      1  0.5134590000000  0.4358580000000  0.4793640000000 1.0
C      1  0.4404570000000  0.4966510000000  0.4302570000000 1.0
C      1  0.4918720000000  0.5255410000000  0.3973590000000 1.0
C      1  0.4782040000000  0.5099320000000  0.5179250000000 1.0
C      1  0.5375680000000  0.5177210000000  0.3976410000000 1.0
C      1  0.4692370000000  0.5154460000000  0.4694350000000 1.0
C      1  0.5762820000000  0.4577900000000  0.5109620000000 1.0
C      1  0.4731560000000  0.5440820000000  0.4741540000000 1.0
C      1  0.5587880000000  0.5258200000000  0.4159590000000 1.0
C      1  0.5833120000000  0.5449130000000  0.5129190000000 1.0
C      1  0.4810010000000  0.4463080000000  0.4480480000000 1.0
C      1  0.5510030000000  0.4631280000000  0.5777580000000 1.0
C      1  0.5591640000000  0.4518570000000  0.5529630000000 1.0
C      1  0.4332450000000  0.5128280000000  0.5271250000000 1.0
C      1  0.5152230000000  0.4842180000000  0.5398260000000 1.0
C      1  0.4973690000000  0.5082060000000  0.5416310000000 1.0
C      1  0.5673540000000  0.5656070000000  0.4749870000000 1.0
C      1  0.5172900000000  0.5383630000000  0.3952430000000 1.0
C      1  0.3917470000000  0.4912580000000  0.5314140000000 1.0
C      1  0.5374030000000  0.4551460000000  0.4911230000000 1.0
C      1  0.4821610000000  0.4327700000000  0.5746380000000 1.0
C      1  0.4288630000000  0.4471990000000  0.4839060000000 1.0
C      1  0.4449080000000  0.4280190000000  0.5003240000000 1.0
C      1  0.4725280000000  0.4207540000000  0.4944630000000 1.0
C      1  0.5249930000000  0.5308230000000  0.5018090000000 1.0
C      1  0.5885400000000  0.4998430000000  0.4525240000000 1.0
C      1  0.5660620000000  0.5664430000000  0.5208020000000 1.0
C      1  0.5254340000000  0.5104440000000  0.4312260000000 1.0
C      1  0.4584840000000  0.5235610000000  0.5595210000000 1.0
C      1  0.4156000000000  0.5417560000000  0.4905050000000 1.0
C      1  0.5462090000000  0.5189750000000  0.5231310000000 1.0
C      1  0.5218150000000  0.4216430000000  0.5508440000000 1.0
C      1  0.4940180000000  0.4987720000000  0.4612970000000 1.0
C      1  0.5460910000000  0.4320830000000  0.5380950000000 1.0
C      1  0.4924420000000  0.4657100000000  0.5307050000000 1.0
C      1  0.4692390000000  0.5846690000000  0.5359420000000 1.0
C      1  0.5312850000000  0.5904980000000  0.5015210000000 1.0
C      1  0.5322110000000  0.5288230000000  0.4727540000000 1.0
C      1  0.5081200000000  0.5514410000000  0.5140600000000 1.0
C      1  0.5559980000000  0.4288450000000  0.4578280000000 1.0
END
