TITL C-27309-6531-5 -0.0663301261542882 125000 -392.803346741357 0 0 57 (C1) n - 1
REM
REM in /rds/project/t2_vol4/rds-t2-cs072/BORA/CARBON/from-Arr/AIRSS/Generating-Clusters/GAP-ML-2020/Only-C1/SD-CG/HFTN-CG
REM
REM
REM
REM
REM
REM ./C.cell (11c1c37f851c82e70ff6c80c92926a4b)
REM AIRSS Version 0.9.1 bugfix July 2018 build 013d7b7c2542+ Fri, 06 Jul 2018 19:26:36 +0100
REM compiler GCC version 9.3.0
REM options -cpp -mtune=generic -march=x86-64 -g -O0
REM seed 902043032 -746301498 -1490877220 -481394256 1563494395 1526120569 1333539219 1951581847 -779230515 -742716582 -2131934156 -1673679701 1495091210 -579777160 2014629904 1583014075 -1395032526 -2117937878 -217059574 -364768480 -475904379 1453536684 493013376 -1552761544 -168536097 -846975981 -760834375 -610845102 779902404 -1806493863 2037336371 896021980 520573387
REM
CELL 1.54180   50.00000   50.00000   50.00000   90.00000   90.00000   90.00000
LATT -1
SFAC C  
C      1  0.4646880000000  0.4576430000000  0.5500770000000 1.0
C      1  0.5695000000000  0.4826690000000  0.5252100000000 1.0
C      1  0.5385740000000  0.5380080000000  0.4727440000000 1.0
C      1  0.5185530000000  0.4827500000000  0.4892710000000 1.0
C      1  0.4424130000000  0.5212720000000  0.5211260000000 1.0
C      1  0.5129770000000  0.4733420000000  0.4444180000000 1.0
C      1  0.5218570000000  0.5711720000000  0.5049090000000 1.0
C      1  0.5033790000000  0.5733000000000  0.4727890000000 1.0
C      1  0.5279160000000  0.4390200000000  0.4847670000000 1.0
C      1  0.4593250000000  0.5030740000000  0.4326580000000 1.0
C      1  0.5398750000000  0.4379900000000  0.5229480000000 1.0
C      1  0.5002910000000  0.5414210000000  0.4407310000000 1.0
C      1  0.4445160000000  0.4895100000000  0.4872340000000 1.0
C      1  0.5186900000000  0.5138200000000  0.5692620000000 1.0
C      1  0.4619670000000  0.4755060000000  0.4431160000000 1.0
C      1  0.5263850000000  0.5004240000000  0.4424160000000 1.0
C      1  0.4821640000000  0.5450710000000  0.5193730000000 1.0
C      1  0.5009330000000  0.4993590000000  0.5295590000000 1.0
C      1  0.4820180000000  0.4562460000000  0.4802960000000 1.0
C      1  0.4851360000000  0.5012510000000  0.4204940000000 1.0
C      1  0.5161720000000  0.4625330000000  0.5857410000000 1.0
C      1  0.4430570000000  0.5356090000000  0.4964720000000 1.0
C      1  0.5291580000000  0.4616820000000  0.5376650000000 1.0
C      1  0.4594960000000  0.4700320000000  0.4707950000000 1.0
C      1  0.4923280000000  0.4304350000000  0.5220410000000 1.0
C      1  0.4761470000000  0.5632540000000  0.4730950000000 1.0
C      1  0.5627450000000  0.4742330000000  0.4990570000000 1.0
C      1  0.5154460000000  0.5922020000000  0.4892700000000 1.0
C      1  0.5111640000000  0.4597700000000  0.4703940000000 1.0
C      1  0.4639430000000  0.5290190000000  0.5371780000000 1.0
C      1  0.4996350000000  0.5062110000000  0.4828690000000 1.0
C      1  0.5322580000000  0.5372340000000  0.5272680000000 1.0
C      1  0.5519090000000  0.4476220000000  0.4987220000000 1.0
C      1  0.5070250000000  0.5168200000000  0.4292820000000 1.0
C      1  0.4559390000000  0.4818400000000  0.5416140000000 1.0
C      1  0.5440790000000  0.5109990000000  0.4628130000000 1.0
C      1  0.5468880000000  0.4860600000000  0.5394540000000 1.0
C      1  0.4878510000000  0.4423540000000  0.5484500000000 1.0
C      1  0.5129500000000  0.4518980000000  0.5600060000000 1.0
C      1  0.5400530000000  0.5478620000000  0.5008120000000 1.0
C      1  0.4868490000000  0.4540820000000  0.5079640000000 1.0
C      1  0.4428260000000  0.4928470000000  0.5167330000000 1.0
C      1  0.4886040000000  0.4742050000000  0.4305550000000 1.0
C      1  0.5168220000000  0.4266550000000  0.5087650000000 1.0
C      1  0.5464710000000  0.4904200000000  0.4823480000000 1.0
C      1  0.4911760000000  0.5068230000000  0.5743330000000 1.0
C      1  0.4733610000000  0.5462210000000  0.4504050000000 1.0
C      1  0.5112520000000  0.4884800000000  0.5808960000000 1.0
C      1  0.5187250000000  0.5533400000000  0.4584740000000 1.0
C      1  0.4418060000000  0.5166960000000  0.4755290000000 1.0
C      1  0.4923110000000  0.5156520000000  0.5064670000000 1.0
C      1  0.5281430000000  0.5106070000000  0.5411520000000 1.0
C      1  0.5090320000000  0.4736700000000  0.5166200000000 1.0
C      1  0.5089310000000  0.5559670000000  0.5260120000000 1.0
C      1  0.4542970000000  0.5243140000000  0.4505020000000 1.0
C      1  0.4643490000000  0.5549440000000  0.4974830000000 1.0
C      1  0.4756450000000  0.5045650000000  0.5493610000000 1.0
END
