TITL C-27278-6415-6 -0.120511992869937 125000 -660.514854646143 0 0 94 (C1) n - 1
REM
REM in /rds/project/t2_vol4/rds-t2-cs072/BORA/CARBON/from-Arr/AIRSS/Generating-Clusters/GAP-ML-2020/Only-C1/SD-CG/HFTN-CG
REM
REM
REM
REM
REM
REM ./C.cell (11c1c37f851c82e70ff6c80c92926a4b)
REM AIRSS Version 0.9.1 bugfix July 2018 build 013d7b7c2542+ Fri, 06 Jul 2018 19:26:36 +0100
REM compiler GCC version 9.3.0
REM options -cpp -mtune=generic -march=x86-64 -g -O0
REM seed 1894911912 1998146855 842975098 -1302940785 -126260473 -370019539 -1025809586 -1347518763 -87092661 -2146019658 1280183925 -1147375528 1984100191 -1424675484 2058755198 1921825283 -394483970 1600018690 508808654 561677071 835733135 2137677465 -1147187206 -1351151551 316429399 -940338141 1103137229 1756392864 -1729839609 -104161108 281622296 141380718 1572932140
REM
CELL 1.54180   50.00000   50.00000   50.00000   90.00000   90.00000   90.00000
LATT -1
SFAC C  
C      1  0.4643210000000  0.4633490000000  0.4396150000000 1.0
C      1  0.4327990000000  0.4874050000000  0.5435760000000 1.0
C      1  0.4251060000000  0.4500860000000  0.4810020000000 1.0
C      1  0.4451130000000  0.5117570000000  0.4413490000000 1.0
C      1  0.4694950000000  0.5403010000000  0.5011930000000 1.0
C      1  0.4265030000000  0.4547810000000  0.5090490000000 1.0
C      1  0.4559110000000  0.4516900000000  0.5129420000000 1.0
C      1  0.5024620000000  0.5654250000000  0.4524760000000 1.0
C      1  0.5130930000000  0.4803020000000  0.4758680000000 1.0
C      1  0.4531390000000  0.5092940000000  0.5444060000000 1.0
C      1  0.5442180000000  0.5705210000000  0.4822480000000 1.0
C      1  0.5197960000000  0.4291330000000  0.5456500000000 1.0
C      1  0.4883210000000  0.5781000000000  0.4743470000000 1.0
C      1  0.4659180000000  0.4920080000000  0.4774640000000 1.0
C      1  0.4524190000000  0.5356790000000  0.5297290000000 1.0
C      1  0.4919500000000  0.5400610000000  0.4384260000000 1.0
C      1  0.5655190000000  0.4560090000000  0.4926180000000 1.0
C      1  0.4996970000000  0.4695620000000  0.5000070000000 1.0
C      1  0.4952160000000  0.5152270000000  0.5717410000000 1.0
C      1  0.5660900000000  0.4871030000000  0.4540430000000 1.0
C      1  0.5859450000000  0.5196220000000  0.5179380000000 1.0
C      1  0.4629090000000  0.4510760000000  0.5415910000000 1.0
C      1  0.4385700000000  0.5271470000000  0.4649900000000 1.0
C      1  0.4977100000000  0.5344050000000  0.5061740000000 1.0
C      1  0.5176340000000  0.4641740000000  0.4321810000000 1.0
C      1  0.5317040000000  0.5632350000000  0.4565430000000 1.0
C      1  0.5207250000000  0.4966020000000  0.5238960000000 1.0
C      1  0.4984010000000  0.5370240000000  0.5508840000000 1.0
C      1  0.4512380000000  0.5815100000000  0.5099050000000 1.0
C      1  0.5689410000000  0.5423190000000  0.5169060000000 1.0
C      1  0.5249860000000  0.5533640000000  0.5451480000000 1.0
C      1  0.5123180000000  0.4690560000000  0.5254540000000 1.0
C      1  0.5643680000000  0.5517220000000  0.4897570000000 1.0
C      1  0.5276920000000  0.5044550000000  0.4856250000000 1.0
C      1  0.4676920000000  0.5206480000000  0.4277670000000 1.0
C      1  0.4684400000000  0.5060480000000  0.5714730000000 1.0
C      1  0.4260100000000  0.5695970000000  0.5106080000000 1.0
C      1  0.4984800000000  0.5151260000000  0.5274940000000 1.0
C      1  0.4190860000000  0.4806070000000  0.5187910000000 1.0
C      1  0.4282100000000  0.5425630000000  0.5112980000000 1.0
C      1  0.4768150000000  0.4273440000000  0.5486700000000 1.0
C      1  0.4952580000000  0.4680040000000  0.5723580000000 1.0
C      1  0.5373600000000  0.4502890000000  0.5348300000000 1.0
C      1  0.5415490000000  0.4924990000000  0.5658330000000 1.0
C      1  0.4830490000000  0.4156790000000  0.5211960000000 1.0
C      1  0.4227700000000  0.4762630000000  0.4699710000000 1.0
C      1  0.4675360000000  0.4785060000000  0.5769520000000 1.0
C      1  0.4951470000000  0.5878260000000  0.5242150000000 1.0
C      1  0.5502150000000  0.4949860000000  0.4312460000000 1.0
C      1  0.5104880000000  0.5227970000000  0.4228430000000 1.0
C      1  0.5815430000000  0.4747660000000  0.5073400000000 1.0
C      1  0.5875110000000  0.5007220000000  0.4961130000000 1.0
C      1  0.5375390000000  0.5211740000000  0.4299930000000 1.0
C      1  0.5482330000000  0.4398660000000  0.5084280000000 1.0
C      1  0.4453090000000  0.4838180000000  0.4522570000000 1.0
C      1  0.4903400000000  0.5226260000000  0.4624590000000 1.0
C      1  0.4171950000000  0.4951640000000  0.4929020000000 1.0
C      1  0.5139340000000  0.4921970000000  0.5749360000000 1.0
C      1  0.4471930000000  0.4677390000000  0.5593110000000 1.0
C      1  0.5685570000000  0.5347880000000  0.4667580000000 1.0
C      1  0.5566710000000  0.4627220000000  0.4663200000000 1.0
C      1  0.4639700000000  0.5230990000000  0.4782740000000 1.0
C      1  0.4230890000000  0.5230320000000  0.4887690000000 1.0
C      1  0.5539810000000  0.4691090000000  0.5505460000000 1.0
C      1  0.5021040000000  0.5909110000000  0.4954130000000 1.0
C      1  0.5418380000000  0.5029120000000  0.5084830000000 1.0
C      1  0.4992680000000  0.4367280000000  0.5637200000000 1.0
C      1  0.5790410000000  0.5078680000000  0.4698410000000 1.0
C      1  0.4760620000000  0.4957210000000  0.5291730000000 1.0
C      1  0.5274360000000  0.4232800000000  0.4979130000000 1.0
C      1  0.5764580000000  0.4783640000000  0.5358260000000 1.0
C      1  0.5110430000000  0.4159780000000  0.5207830000000 1.0
C      1  0.4915420000000  0.4919700000000  0.4598200000000 1.0
C      1  0.4716110000000  0.5530700000000  0.5441670000000 1.0
C      1  0.4884880000000  0.5033060000000  0.4177830000000 1.0
C      1  0.4664620000000  0.4399240000000  0.4556970000000 1.0
C      1  0.4464310000000  0.4325450000000  0.4748340000000 1.0
C      1  0.5275360000000  0.4560360000000  0.4603500000000 1.0
C      1  0.5795540000000  0.5055720000000  0.5416190000000 1.0
C      1  0.4722020000000  0.4792730000000  0.5032170000000 1.0
C      1  0.5575880000000  0.5158480000000  0.5559620000000 1.0
C      1  0.4883190000000  0.4709770000000  0.5431070000000 1.0
C      1  0.5480360000000  0.5415130000000  0.4469800000000 1.0
C      1  0.5109750000000  0.5274040000000  0.4831250000000 1.0
C      1  0.4658610000000  0.5682850000000  0.4888770000000 1.0
C      1  0.4679710000000  0.4271590000000  0.4972140000000 1.0
C      1  0.5209560000000  0.5769680000000  0.5298700000000 1.0
C      1  0.5291750000000  0.5834160000000  0.5017390000000 1.0
C      1  0.4895520000000  0.4774730000000  0.4321120000000 1.0
C      1  0.4874600000000  0.4292570000000  0.4731670000000 1.0
C      1  0.4704810000000  0.5788260000000  0.5323660000000 1.0
C      1  0.5503440000000  0.5405360000000  0.5417750000000 1.0
C      1  0.5369760000000  0.4748250000000  0.4171270000000 1.0
C      1  0.5158310000000  0.4309480000000  0.4732450000000 1.0
END
