TITL C-2718-4360-3 7.21073259819064e-05 125000 -22.9478494916552 0 0 4 (D(inf)h) n - 1
REM
REM in /rds/project/t2_vol4/rds-t2-cs072/BORA/CARBON/from-Arr/AIRSS/Generating-Clusters/GAP-ML-2020/Only-C1/SD-CG/HFTN-CG
REM
REM
REM
REM
REM
REM ./C.cell (11c1c37f851c82e70ff6c80c92926a4b)
REM AIRSS Version 0.9.1 bugfix July 2018 build 013d7b7c2542+ Fri, 06 Jul 2018 19:26:36 +0100
REM compiler GCC version 9.3.0
REM options -cpp -mtune=generic -march=x86-64 -g -O0
REM seed 889437882 -1824423413 466544989 -991641231 1761432284 -464087392 -1760423631 121217174 -1008692777 614693958 1795275607 2009929186 462555001 -238263152 922606450 -882388341 -43697724 -1940166057 -1416578336 -513418389 822284571 -995945059 -1186139270 -1259432209 1090810692 1163914771 178030952 -1994976813 2061050343 1594888529 -152080372 1190773679 -2091597081
REM
CELL 1.54180   50.00000   50.00000   50.00000   90.00000   90.00000   90.00000
LATT -1
SFAC C  
C      1  0.5040970000000  0.4969330000000  0.4875440000000 1.0
C      1  0.5118230000000  0.4911500000000  0.4640530000000 1.0
C      1  0.4959030000000  0.5030670000000  0.5124560000000 1.0
C      1  0.4881770000000  0.5088500000000  0.5359470000000 1.0
END
