TITL C-2706-3913-1 -67.3939622494058 125000 -814.205208666459 0 0 116 (C1) n - 1
REM
REM in /rds/project/t2_vol4/rds-t2-cs072/BORA/CARBON/from-Arr/AIRSS/Generating-Clusters/GAP-ML-2020/Only-C1/SD-CG/HFTN-CG
REM
REM
REM
REM
REM
REM ./C.cell (11c1c37f851c82e70ff6c80c92926a4b)
REM AIRSS Version 0.9.1 bugfix July 2018 build 013d7b7c2542+ Fri, 06 Jul 2018 19:26:36 +0100
REM compiler GCC version 9.3.0
REM options -cpp -mtune=generic -march=x86-64 -g -O0
REM seed 621212798 563858386 237996058 -1271520240 1073887694 1019097383 724929614 -1225270843 -14412558 216713851 -1312103466 -50404585 1637697382 1731290468 1023614137 971578153 848373877 -430910223 1257876454 1993149921 -1429650629 585820146 -249561934 -277978290 -1375426245 -134691903 -1419503765 -65148964 -1472078536 291276366 1825492967 -1885435867 -415487520
REM
CELL 1.54180   50.00000   50.00000   50.00000   90.00000   90.00000   90.00000
LATT -1
SFAC C  
C      1  0.4730080000000  0.4320830000000  0.5597770000000 1.0
C      1  0.5772060000000  0.4970300000000  0.4471000000000 1.0
C      1  0.4189080000000  0.5484260000000  0.5047840000000 1.0
C      1  0.4168700000000  0.5035290000000  0.4677650000000 1.0
C      1  0.4497760000000  0.4742800000000  0.5432450000000 1.0
C      1  0.5314620000000  0.5849950000000  0.4810930000000 1.0
C      1  0.5314840000000  0.5060760000000  0.5857870000000 1.0
C      1  0.5144600000000  0.5433530000000  0.4291160000000 1.0
C      1  0.5590230000000  0.4748390000000  0.5553490000000 1.0
C      1  0.4647830000000  0.4711710000000  0.5862760000000 1.0
C      1  0.4892270000000  0.4976490000000  0.4660950000000 1.0
C      1  0.5288720000000  0.4854390000000  0.4811530000000 1.0
C      1  0.4246890000000  0.5693810000000  0.5214260000000 1.0
C      1  0.5252290000000  0.5237610000000  0.4093270000000 1.0
C      1  0.5002900000000  0.4354180000000  0.5702210000000 1.0
C      1  0.4281150000000  0.4535050000000  0.4920010000000 1.0
C      1  0.5442200000000  0.4814210000000  0.4179000000000 1.0
C      1  0.4391720000000  0.5462700000000  0.4811560000000 1.0
C      1  0.4959300000000  0.4599490000000  0.5222690000000 1.0
C      1  0.4739480000000  0.4259530000000  0.4615830000000 1.0
C      1  0.4661670000000  0.4770730000000  0.4186720000000 1.0
C      1  0.4623160000000  0.4146490000000  0.5097770000000 1.0
C      1  0.5022840000000  0.4079070000000  0.5332390000000 1.0
C      1  0.5136800000000  0.5019650000000  0.5476420000000 1.0
C      1  0.5615030000000  0.5329760000000  0.4882840000000 1.0
C      1  0.4562410000000  0.5495890000000  0.5504360000000 1.0
C      1  0.4745480000000  0.4143140000000  0.5360200000000 1.0
C      1  0.5017170000000  0.5185190000000  0.5082050000000 1.0
C      1  0.5143500000000  0.5457980000000  0.5064230000000 1.0
C      1  0.4936360000000  0.4844180000000  0.4098500000000 1.0
C      1  0.4621510000000  0.5040120000000  0.5404530000000 1.0
C      1  0.5055370000000  0.5519030000000  0.5775450000000 1.0
C      1  0.4080620000000  0.4999010000000  0.4944550000000 1.0
C      1  0.5166960000000  0.4164350000000  0.5083280000000 1.0
C      1  0.5170030000000  0.4993860000000  0.4604260000000 1.0
C      1  0.5146800000000  0.4802950000000  0.5272160000000 1.0
C      1  0.4186250000000  0.5101070000000  0.5392750000000 1.0
C      1  0.4493680000000  0.4398790000000  0.4497400000000 1.0
C      1  0.4791250000000  0.4465680000000  0.4815280000000 1.0
C      1  0.4650710000000  0.5180670000000  0.5786510000000 1.0
C      1  0.5147950000000  0.5684740000000  0.5542900000000 1.0
C      1  0.5809800000000  0.5510790000000  0.5276090000000 1.0
C      1  0.5745090000000  0.4523000000000  0.4804780000000 1.0
C      1  0.5456020000000  0.5854070000000  0.5043280000000 1.0
C      1  0.5444470000000  0.4278980000000  0.5195640000000 1.0
C      1  0.4292940000000  0.5279920000000  0.4597720000000 1.0
C      1  0.5153970000000  0.4465170000000  0.4352790000000 1.0
C      1  0.4496830000000  0.5723390000000  0.5325220000000 1.0
C      1  0.5164090000000  0.4178300000000  0.5550190000000 1.0
C      1  0.5475820000000  0.5098730000000  0.4165650000000 1.0
C      1  0.4990620000000  0.5119970000000  0.4059440000000 1.0
C      1  0.5676530000000  0.4755430000000  0.5271080000000 1.0
C      1  0.4150000000000  0.4744550000000  0.5073800000000 1.0
C      1  0.4948380000000  0.5812890000000  0.4489200000000 1.0
C      1  0.4637410000000  0.4839920000000  0.4998630000000 1.0
C      1  0.5398220000000  0.5694180000000  0.4582060000000 1.0
C      1  0.4221280000000  0.4818450000000  0.5342860000000 1.0
C      1  0.4445610000000  0.5222240000000  0.5552080000000 1.0
C      1  0.5411980000000  0.4295310000000  0.5477070000000 1.0
C      1  0.5635370000000  0.5228130000000  0.5585500000000 1.0
C      1  0.5180410000000  0.4689690000000  0.4171950000000 1.0
C      1  0.5425490000000  0.5666160000000  0.5522420000000 1.0
C      1  0.5002970000000  0.5895110000000  0.4756370000000 1.0
C      1  0.4546830000000  0.5076900000000  0.5103570000000 1.0
C      1  0.5345940000000  0.4439050000000  0.4569800000000 1.0
C      1  0.4983620000000  0.5644810000000  0.5286230000000 1.0
C      1  0.5614230000000  0.4513200000000  0.4539080000000 1.0
C      1  0.4758520000000  0.5841980000000  0.4901240000000 1.0
C      1  0.5167500000000  0.4588240000000  0.5759930000000 1.0
C      1  0.5517500000000  0.5396170000000  0.4606050000000 1.0
C      1  0.4101720000000  0.5217860000000  0.5137910000000 1.0
C      1  0.5500630000000  0.5456990000000  0.5698200000000 1.0
C      1  0.4851170000000  0.5228740000000  0.4825090000000 1.0
C      1  0.4565840000000  0.4551490000000  0.5661550000000 1.0
C      1  0.4449070000000  0.4942610000000  0.4309740000000 1.0
C      1  0.4658770000000  0.4637980000000  0.5203970000000 1.0
C      1  0.4778040000000  0.5434070000000  0.5742260000000 1.0
C      1  0.5638290000000  0.5203470000000  0.4388370000000 1.0
C      1  0.5277720000000  0.5349340000000  0.5837610000000 1.0
C      1  0.4792610000000  0.4940410000000  0.5870460000000 1.0
C      1  0.5290980000000  0.4555270000000  0.4844870000000 1.0
C      1  0.5188080000000  0.5701990000000  0.4387630000000 1.0
C      1  0.5644680000000  0.4729740000000  0.4360620000000 1.0
C      1  0.4570740000000  0.5700610000000  0.4723260000000 1.0
C      1  0.5429070000000  0.5404270000000  0.5131740000000 1.0
C      1  0.5382140000000  0.5216970000000  0.5383100000000 1.0
C      1  0.5562750000000  0.4984310000000  0.5716820000000 1.0
C      1  0.4837530000000  0.5436820000000  0.5444990000000 1.0
C      1  0.4746060000000  0.5802380000000  0.5181860000000 1.0
C      1  0.5051360000000  0.5433920000000  0.4775020000000 1.0
C      1  0.4873760000000  0.5355800000000  0.4186600000000 1.0
C      1  0.4274520000000  0.4826720000000  0.4512640000000 1.0
C      1  0.4603840000000  0.5293550000000  0.4947270000000 1.0
C      1  0.4893000000000  0.4362030000000  0.4375440000000 1.0
C      1  0.5561970000000  0.4513450000000  0.5051030000000 1.0
C      1  0.5889570000000  0.4940740000000  0.4727060000000 1.0
C      1  0.4656910000000  0.4506900000000  0.4285900000000 1.0
C      1  0.4637870000000  0.5440090000000  0.4304280000000 1.0
C      1  0.4542990000000  0.4415420000000  0.5027330000000 1.0
C      1  0.5795250000000  0.5010060000000  0.5195460000000 1.0
C      1  0.5823530000000  0.5253520000000  0.5372720000000 1.0
C      1  0.5212300000000  0.4966280000000  0.5053620000000 1.0
C      1  0.5041790000000  0.4444150000000  0.4985300000000 1.0
C      1  0.5551800000000  0.5667080000000  0.5253200000000 1.0
C      1  0.4899990000000  0.5159070000000  0.5364270000000 1.0
C      1  0.4307630000000  0.4564760000000  0.4630850000000 1.0
C      1  0.5421460000000  0.4536670000000  0.5632470000000 1.0
C      1  0.5028000000000  0.3969870000000  0.4924920000000 1.0
C      1  0.5795150000000  0.5113210000000  0.4929350000000 1.0
C      1  0.5227430000000  0.5292410000000  0.4580250000000 1.0
C      1  0.5089860000000  0.4882500000000  0.5788600000000 1.0
C      1  0.5961330000000  0.4680940000000  0.4802500000000 1.0
C      1  0.4442420000000  0.5233320000000  0.4360800000000 1.0
C      1  0.4745400000000  0.4762530000000  0.4757000000000 1.0
C      1  0.4689920000000  0.5675640000000  0.4473060000000 1.0
C      1  0.4775340000000  0.4041670000000  0.4854530000000 1.0
END
