TITL C-27304-6650-5 711.362825733531 125000 -557.761952173101 0 0 80 (C1) n - 1
REM
REM in /rds/project/t2_vol4/rds-t2-cs072/BORA/CARBON/from-Arr/AIRSS/Generating-Clusters/GAP-ML-2020/Only-C1/SD-CG/HFTN-CG
REM
REM
REM
REM
REM
REM ./C.cell (11c1c37f851c82e70ff6c80c92926a4b)
REM AIRSS Version 0.9.1 bugfix July 2018 build 013d7b7c2542+ Fri, 06 Jul 2018 19:26:36 +0100
REM compiler GCC version 9.3.0
REM options -cpp -mtune=generic -march=x86-64 -g -O0
REM seed -1856941465 -418756082 -199190000 1416166771 -1644520086 -414624922 -709378490 1527945588 -1763305396 -1580505523 -469108866 811391576 -1538909360 739299687 -890366215 1089660463 -1316635396 1534891745 -938961934 1903306707 -1425056169 -1008479401 -1163854513 1031089280 698150674 -314013691 306502601 860619788 225744112 -493512223 -1394993484 372409042 105941493
REM
CELL 1.54180   50.00000   50.00000   50.00000   90.00000   90.00000   90.00000
LATT -1
SFAC C  
C      1  0.5097250000000  0.4966760000000  0.5323960000000 1.0
C      1  0.4632550000000  0.5302870000000  0.4579300000000 1.0
C      1  0.4441200000000  0.4762430000000  0.4696960000000 1.0
C      1  0.5141900000000  0.4735470000000  0.4194770000000 1.0
C      1  0.4998780000000  0.5668590000000  0.5569760000000 1.0
C      1  0.5423480000000  0.4760810000000  0.5545970000000 1.0
C      1  0.5061670000000  0.5570900000000  0.4551390000000 1.0
C      1  0.5170470000000  0.5281650000000  0.4878390000000 1.0
C      1  0.5054300000000  0.4677560000000  0.4465750000000 1.0
C      1  0.5030810000000  0.4476930000000  0.5107810000000 1.0
C      1  0.5156090000000  0.5236710000000  0.5680760000000 1.0
C      1  0.4611580000000  0.4777470000000  0.4469290000000 1.0
C      1  0.4976950000000  0.5795920000000  0.5053530000000 1.0
C      1  0.4852600000000  0.5240240000000  0.5723350000000 1.0
C      1  0.4389600000000  0.5390570000000  0.5001600000000 1.0
C      1  0.4504380000000  0.4447120000000  0.5266340000000 1.0
C      1  0.4922230000000  0.5203680000000  0.5004740000000 1.0
C      1  0.5268380000000  0.4589760000000  0.4659610000000 1.0
C      1  0.4173210000000  0.4770540000000  0.5117000000000 1.0
C      1  0.4360990000000  0.5224350000000  0.5230420000000 1.0
C      1  0.4607210000000  0.5709790000000  0.5310850000000 1.0
C      1  0.4723080000000  0.4466960000000  0.5074370000000 1.0
C      1  0.5494370000000  0.4362140000000  0.4960650000000 1.0
C      1  0.5623240000000  0.4859320000000  0.4469400000000 1.0
C      1  0.4440370000000  0.5304390000000  0.5488430000000 1.0
C      1  0.5682670000000  0.4511600000000  0.4800600000000 1.0
C      1  0.5206700000000  0.4352540000000  0.4845190000000 1.0
C      1  0.5447310000000  0.5500480000000  0.5404180000000 1.0
C      1  0.5532620000000  0.5226840000000  0.5365150000000 1.0
C      1  0.5433820000000  0.5707310000000  0.5219630000000 1.0
C      1  0.4414160000000  0.4930400000000  0.5215010000000 1.0
C      1  0.4571200000000  0.4586410000000  0.5519540000000 1.0
C      1  0.4759950000000  0.4509430000000  0.5710430000000 1.0
C      1  0.5221800000000  0.4549960000000  0.5584100000000 1.0
C      1  0.5010390000000  0.4518460000000  0.5761370000000 1.0
C      1  0.5470630000000  0.5040710000000  0.4300240000000 1.0
C      1  0.4754870000000  0.5701180000000  0.4878450000000 1.0
C      1  0.5744200000000  0.4841630000000  0.5161040000000 1.0
C      1  0.4264860000000  0.4999180000000  0.4740670000000 1.0
C      1  0.4788000000000  0.5517410000000  0.5691770000000 1.0
C      1  0.5640080000000  0.5186720000000  0.4843920000000 1.0
C      1  0.4794620000000  0.4547650000000  0.4474510000000 1.0
C      1  0.4547330000000  0.5556230000000  0.5539140000000 1.0
C      1  0.4369350000000  0.4486590000000  0.4805950000000 1.0
C      1  0.4534410000000  0.5633880000000  0.5047100000000 1.0
C      1  0.4797410000000  0.4292850000000  0.4621060000000 1.0
C      1  0.5141470000000  0.5389160000000  0.4353360000000 1.0
C      1  0.4516860000000  0.4863600000000  0.5486870000000 1.0
C      1  0.5208850000000  0.4987320000000  0.4175240000000 1.0
C      1  0.5368340000000  0.5067330000000  0.4876440000000 1.0
C      1  0.5040910000000  0.4169700000000  0.4700240000000 1.0
C      1  0.5484690000000  0.4426440000000  0.5230540000000 1.0
C      1  0.5216710000000  0.4406650000000  0.5332820000000 1.0
C      1  0.5313600000000  0.4797110000000  0.4913170000000 1.0
C      1  0.5261120000000  0.5739180000000  0.5006390000000 1.0
C      1  0.5757910000000  0.4962410000000  0.4702530000000 1.0
C      1  0.5211260000000  0.5114170000000  0.4634720000000 1.0
C      1  0.4061330000000  0.4923610000000  0.4910030000000 1.0
C      1  0.5233280000000  0.5499550000000  0.5601870000000 1.0
C      1  0.5796660000000  0.4748220000000  0.4897100000000 1.0
C      1  0.5402310000000  0.5285320000000  0.4439200000000 1.0
C      1  0.4629770000000  0.4798280000000  0.4985760000000 1.0
C      1  0.5329480000000  0.5041830000000  0.5508650000000 1.0
C      1  0.4763230000000  0.5067010000000  0.4435300000000 1.0
C      1  0.5089310000000  0.4783550000000  0.5081800000000 1.0
C      1  0.4973850000000  0.4946500000000  0.4609880000000 1.0
C      1  0.4792090000000  0.5546950000000  0.4637890000000 1.0
C      1  0.4883370000000  0.4927620000000  0.4907590000000 1.0
C      1  0.4602070000000  0.5101180000000  0.5621870000000 1.0
C      1  0.5685890000000  0.5123960000000  0.5149190000000 1.0
C      1  0.4991380000000  0.5174430000000  0.4243590000000 1.0
C      1  0.5529760000000  0.5418060000000  0.4665910000000 1.0
C      1  0.4284140000000  0.4515070000000  0.5085860000000 1.0
C      1  0.5542980000000  0.4599680000000  0.4559930000000 1.0
C      1  0.5607840000000  0.4666730000000  0.5344370000000 1.0
C      1  0.4613160000000  0.4344180000000  0.4826480000000 1.0
C      1  0.4883750000000  0.5788380000000  0.5325830000000 1.0
C      1  0.5279410000000  0.5547940000000  0.4776220000000 1.0
C      1  0.4407460000000  0.5250220000000  0.4748190000000 1.0
C      1  0.4952690000000  0.5198250000000  0.5271720000000 1.0
END
