TITL C-27287-6528-8 0.0138972697702642 125000 -377.250969349632 0 0 56 (C1) n - 1
REM
REM in /rds/project/t2_vol4/rds-t2-cs072/BORA/CARBON/from-Arr/AIRSS/Generating-Clusters/GAP-ML-2020/Only-C1/SD-CG/HFTN-CG
REM
REM
REM
REM
REM
REM ./C.cell (11c1c37f851c82e70ff6c80c92926a4b)
REM AIRSS Version 0.9.1 bugfix July 2018 build 013d7b7c2542+ Fri, 06 Jul 2018 19:26:36 +0100
REM compiler GCC version 9.3.0
REM options -cpp -mtune=generic -march=x86-64 -g -O0
REM seed -1985569730 1963648624 -1712782441 1210682413 2007015189 -1455114755 -1634036761 -1422904499 1040177094 1993462050 -1359434449 1381209338 -219705185 -135907409 -745374337 1985753160 -1458410222 1156546504 1303345398 249156919 1955725372 -1099837182 1313992325 -878077967 -1669709863 1404289081 -390276554 2019025878 -314925795 2124383000 -1679225 -745594217 558384734
REM
CELL 1.54180   50.00000   50.00000   50.00000   90.00000   90.00000   90.00000
LATT -1
SFAC C  
C      1  0.5354970000000  0.4450600000000  0.4719770000000 1.0
C      1  0.4693630000000  0.4772360000000  0.4555630000000 1.0
C      1  0.5288370000000  0.5443340000000  0.5294020000000 1.0
C      1  0.5403350000000  0.5237560000000  0.5457460000000 1.0
C      1  0.5307740000000  0.5301330000000  0.4734400000000 1.0
C      1  0.5088840000000  0.4500820000000  0.4675570000000 1.0
C      1  0.5060290000000  0.4920660000000  0.4833100000000 1.0
C      1  0.4674760000000  0.4669300000000  0.5368290000000 1.0
C      1  0.4991450000000  0.4777850000000  0.4575680000000 1.0
C      1  0.5076520000000  0.5194450000000  0.4882930000000 1.0
C      1  0.4952310000000  0.5110380000000  0.5382960000000 1.0
C      1  0.4510280000000  0.4579560000000  0.5151690000000 1.0
C      1  0.4842990000000  0.4879350000000  0.5221140000000 1.0
C      1  0.5285660000000  0.5574830000000  0.4853610000000 1.0
C      1  0.5352510000000  0.4459230000000  0.5206120000000 1.0
C      1  0.4592530000000  0.5273800000000  0.4872450000000 1.0
C      1  0.4193630000000  0.5012870000000  0.4975380000000 1.0
C      1  0.4689590000000  0.5260730000000  0.5442550000000 1.0
C      1  0.5478040000000  0.4405450000000  0.4965250000000 1.0
C      1  0.4916580000000  0.5562820000000  0.5162800000000 1.0
C      1  0.4475040000000  0.4832330000000  0.5488090000000 1.0
C      1  0.5805020000000  0.5303100000000  0.4882210000000 1.0
C      1  0.4599730000000  0.5022060000000  0.4464000000000 1.0
C      1  0.5623100000000  0.4870830000000  0.4910950000000 1.0
C      1  0.4831620000000  0.5154870000000  0.4353860000000 1.0
C      1  0.4427720000000  0.5170500000000  0.4640840000000 1.0
C      1  0.5616220000000  0.5130270000000  0.4746250000000 1.0
C      1  0.5203050000000  0.5057530000000  0.5543880000000 1.0
C      1  0.4939940000000  0.4465210000000  0.4945530000000 1.0
C      1  0.4874230000000  0.5396720000000  0.4475610000000 1.0
C      1  0.5620610000000  0.5159090000000  0.5298260000000 1.0
C      1  0.5068760000000  0.4402410000000  0.5208080000000 1.0
C      1  0.4462060000000  0.5085450000000  0.5373560000000 1.0
C      1  0.4616610000000  0.5018780000000  0.5069900000000 1.0
C      1  0.5070180000000  0.5001040000000  0.4385710000000 1.0
C      1  0.5594390000000  0.4891780000000  0.5190800000000 1.0
C      1  0.5671020000000  0.5370340000000  0.5104850000000 1.0
C      1  0.4665930000000  0.5488510000000  0.5273080000000 1.0
C      1  0.5587820000000  0.4607740000000  0.4809020000000 1.0
C      1  0.4422340000000  0.4808770000000  0.4975120000000 1.0
C      1  0.4923290000000  0.4502060000000  0.5438440000000 1.0
C      1  0.5450370000000  0.5558340000000  0.5093090000000 1.0
C      1  0.4271780000000  0.5206620000000  0.5190230000000 1.0
C      1  0.4655670000000  0.4462550000000  0.4936540000000 1.0
C      1  0.5300080000000  0.5174790000000  0.4451960000000 1.0
C      1  0.5447610000000  0.4693470000000  0.5340660000000 1.0
C      1  0.4852820000000  0.5394480000000  0.4760020000000 1.0
C      1  0.4169200000000  0.5117480000000  0.4719370000000 1.0
C      1  0.4444070000000  0.5426330000000  0.5090450000000 1.0
C      1  0.5568240000000  0.5141510000000  0.4452400000000 1.0
C      1  0.4999390000000  0.5623450000000  0.4900580000000 1.0
C      1  0.5276330000000  0.4778950000000  0.5556000000000 1.0
C      1  0.4540650000000  0.4652480000000  0.4752130000000 1.0
C      1  0.5063690000000  0.5298080000000  0.5172870000000 1.0
C      1  0.5090950000000  0.4587640000000  0.5631570000000 1.0
C      1  0.5016470000000  0.4757180000000  0.5043270000000 1.0
END
