TITL C-27299-6702-6 194.238720116536 125000 -842.245715713357 0 0 118 (C1) n - 1
REM
REM in /rds/project/t2_vol4/rds-t2-cs072/BORA/CARBON/from-Arr/AIRSS/Generating-Clusters/GAP-ML-2020/Only-C1/SD-CG/HFTN-CG
REM
REM
REM
REM
REM
REM ./C.cell (11c1c37f851c82e70ff6c80c92926a4b)
REM AIRSS Version 0.9.1 bugfix July 2018 build 013d7b7c2542+ Fri, 06 Jul 2018 19:26:36 +0100
REM compiler GCC version 9.3.0
REM options -cpp -mtune=generic -march=x86-64 -g -O0
REM seed 496594766 -1489081489 1060065307 2138797991 1300659421 1198175873 1591547383 384955517 184863531 -1692068114 417080568 -750184185 -1021675116 -50547181 -982693209 -21030532 1021908991 1977043967 -2025198332 -1436114281 1704028938 -1641140508 -361157219 1539986623 2033370524 1175371988 1078404815 1465561019 1279595811 -1612553321 1008090563 -461004624 -967252381
REM
CELL 1.54180   50.00000   50.00000   50.00000   90.00000   90.00000   90.00000
LATT -1
SFAC C  
C      1  0.5047410000000  0.5736810000000  0.5650600000000 1.0
C      1  0.5491490000000  0.5865360000000  0.5132990000000 1.0
C      1  0.4275550000000  0.5622760000000  0.5082040000000 1.0
C      1  0.4887710000000  0.4700480000000  0.4229560000000 1.0
C      1  0.4414780000000  0.4569770000000  0.4488280000000 1.0
C      1  0.4851430000000  0.5466150000000  0.4122440000000 1.0
C      1  0.4523580000000  0.4770170000000  0.5603550000000 1.0
C      1  0.5380320000000  0.4364500000000  0.5532810000000 1.0
C      1  0.4743570000000  0.5209150000000  0.4170110000000 1.0
C      1  0.5499760000000  0.4875160000000  0.5615520000000 1.0
C      1  0.5684820000000  0.5578620000000  0.5455650000000 1.0
C      1  0.5722420000000  0.5254710000000  0.4485750000000 1.0
C      1  0.4625560000000  0.5207510000000  0.5365360000000 1.0
C      1  0.5949620000000  0.4877220000000  0.5044750000000 1.0
C      1  0.5432220000000  0.4208620000000  0.4889660000000 1.0
C      1  0.5174920000000  0.4090760000000  0.4512180000000 1.0
C      1  0.5559260000000  0.5637480000000  0.4732810000000 1.0
C      1  0.5955340000000  0.5138290000000  0.5154300000000 1.0
C      1  0.4773880000000  0.4394410000000  0.5329730000000 1.0
C      1  0.5482410000000  0.4971270000000  0.5125470000000 1.0
C      1  0.5492830000000  0.5742160000000  0.5578260000000 1.0
C      1  0.4359650000000  0.5211580000000  0.4856570000000 1.0
C      1  0.4666320000000  0.4673460000000  0.5350590000000 1.0
C      1  0.4848190000000  0.5380450000000  0.5019790000000 1.0
C      1  0.5663120000000  0.5000840000000  0.4373570000000 1.0
C      1  0.4409140000000  0.4358710000000  0.4705810000000 1.0
C      1  0.5893860000000  0.5187050000000  0.4701960000000 1.0
C      1  0.5073690000000  0.5286300000000  0.5211060000000 1.0
C      1  0.4858140000000  0.5535960000000  0.5673220000000 1.0
C      1  0.4737980000000  0.4075980000000  0.4928380000000 1.0
C      1  0.4301570000000  0.4813540000000  0.4573480000000 1.0
C      1  0.5379380000000  0.4643200000000  0.4326770000000 1.0
C      1  0.5537660000000  0.5468350000000  0.4495470000000 1.0
C      1  0.4761620000000  0.5045430000000  0.4656780000000 1.0
C      1  0.5367440000000  0.5822020000000  0.4878690000000 1.0
C      1  0.5772290000000  0.4445130000000  0.5240550000000 1.0
C      1  0.4521600000000  0.5768080000000  0.5048530000000 1.0
C      1  0.4629330000000  0.4162980000000  0.4663720000000 1.0
C      1  0.4595480000000  0.4241790000000  0.5134880000000 1.0
C      1  0.4743260000000  0.5653500000000  0.5190730000000 1.0
C      1  0.5278180000000  0.5343730000000  0.5795560000000 1.0
C      1  0.4307940000000  0.4250130000000  0.5174260000000 1.0
C      1  0.4898170000000  0.4860390000000  0.5258890000000 1.0
C      1  0.5140500000000  0.5329090000000  0.4643350000000 1.0
C      1  0.5701920000000  0.5682380000000  0.5181890000000 1.0
C      1  0.4796240000000  0.4794320000000  0.5754750000000 1.0
C      1  0.5324190000000  0.5200860000000  0.5084390000000 1.0
C      1  0.4368570000000  0.5532100000000  0.5545810000000 1.0
C      1  0.4506900000000  0.5253410000000  0.4338500000000 1.0
C      1  0.4512780000000  0.4732150000000  0.5106940000000 1.0
C      1  0.4992710000000  0.4471210000000  0.5122510000000 1.0
C      1  0.4178190000000  0.5015100000000  0.4964080000000 1.0
C      1  0.5208870000000  0.4065180000000  0.4777010000000 1.0
C      1  0.5300240000000  0.5626240000000  0.5742980000000 1.0
C      1  0.4225540000000  0.4439570000000  0.5378280000000 1.0
C      1  0.5283090000000  0.4657840000000  0.5551760000000 1.0
C      1  0.4725240000000  0.4922500000000  0.5023940000000 1.0
C      1  0.4090910000000  0.4647890000000  0.5233290000000 1.0
C      1  0.4901370000000  0.5776050000000  0.4409440000000 1.0
C      1  0.4998900000000  0.4596220000000  0.5695810000000 1.0
C      1  0.5121390000000  0.4536390000000  0.4272780000000 1.0
C      1  0.4620560000000  0.5201250000000  0.5067590000000 1.0
C      1  0.4258320000000  0.4885820000000  0.5214350000000 1.0
C      1  0.4065230000000  0.4576280000000  0.4955790000000 1.0
C      1  0.4402460000000  0.5642950000000  0.4635090000000 1.0
C      1  0.5155060000000  0.4685630000000  0.5231570000000 1.0
C      1  0.5076450000000  0.5583430000000  0.4255700000000 1.0
C      1  0.5438510000000  0.4120450000000  0.5155310000000 1.0
C      1  0.4938080000000  0.4990080000000  0.4179700000000 1.0
C      1  0.5172490000000  0.4051610000000  0.5240880000000 1.0
C      1  0.4898490000000  0.4823360000000  0.4795970000000 1.0
C      1  0.5010530000000  0.4013130000000  0.4990730000000 1.0
C      1  0.5183030000000  0.4875020000000  0.4795660000000 1.0
C      1  0.5916730000000  0.5331860000000  0.4937730000000 1.0
C      1  0.4390010000000  0.5033000000000  0.5458330000000 1.0
C      1  0.5268260000000  0.5143940000000  0.4802250000000 1.0
C      1  0.5210000000000  0.5098720000000  0.4218110000000 1.0
C      1  0.5073770000000  0.5868990000000  0.4895490000000 1.0
C      1  0.4123830000000  0.4801030000000  0.4792770000000 1.0
C      1  0.4990300000000  0.5298970000000  0.5797340000000 1.0
C      1  0.4592050000000  0.5811240000000  0.4774930000000 1.0
C      1  0.5702450000000  0.5308620000000  0.5558560000000 1.0
C      1  0.4956510000000  0.5851160000000  0.5165500000000 1.0
C      1  0.4473400000000  0.5533810000000  0.4384800000000 1.0
C      1  0.4266600000000  0.5488990000000  0.4832890000000 1.0
C      1  0.4760180000000  0.4283670000000  0.4432720000000 1.0
C      1  0.5350290000000  0.4731680000000  0.5004470000000 1.0
C      1  0.4868580000000  0.5855930000000  0.4685830000000 1.0
C      1  0.5761080000000  0.4859750000000  0.5475810000000 1.0
C      1  0.4462150000000  0.5073910000000  0.4584840000000 1.0
C      1  0.4569580000000  0.4488350000000  0.4942350000000 1.0
C      1  0.4685450000000  0.5666980000000  0.4261440000000 1.0
C      1  0.5756610000000  0.4790980000000  0.4549050000000 1.0
C      1  0.4658140000000  0.5510180000000  0.5460220000000 1.0
C      1  0.5857620000000  0.5120070000000  0.5422120000000 1.0
C      1  0.4350860000000  0.4540090000000  0.5594170000000 1.0
C      1  0.5257650000000  0.5382490000000  0.4375990000000 1.0
C      1  0.4858320000000  0.4539760000000  0.4873220000000 1.0
C      1  0.5863380000000  0.4693910000000  0.5255710000000 1.0
C      1  0.4191220000000  0.4332050000000  0.4908170000000 1.0
C      1  0.4243280000000  0.5283900000000  0.5532370000000 1.0
C      1  0.4881550000000  0.5304830000000  0.4731880000000 1.0
C      1  0.5563560000000  0.4582830000000  0.4556000000000 1.0
C      1  0.4908070000000  0.5106540000000  0.5409410000000 1.0
C      1  0.5092400000000  0.5893730000000  0.5407350000000 1.0
C      1  0.4660440000000  0.4535570000000  0.4340830000000 1.0
C      1  0.5370830000000  0.5913390000000  0.5380380000000 1.0
C      1  0.5037860000000  0.4278080000000  0.4374740000000 1.0
C      1  0.5502450000000  0.4483200000000  0.4828440000000 1.0
C      1  0.5420690000000  0.4918060000000  0.4252080000000 1.0
C      1  0.4929270000000  0.4342950000000  0.5573190000000 1.0
C      1  0.5580830000000  0.4286120000000  0.5341650000000 1.0
C      1  0.5487000000000  0.5165330000000  0.5697860000000 1.0
C      1  0.5907870000000  0.4908110000000  0.4758980000000 1.0
C      1  0.4907710000000  0.5050130000000  0.5707890000000 1.0
C      1  0.4203160000000  0.5506430000000  0.5328040000000 1.0
C      1  0.5763730000000  0.5568740000000  0.4932550000000 1.0
C      1  0.5154640000000  0.4194470000000  0.5494590000000 1.0
END
