TITL C-2719-4509-6 0.0783764685270393 125000 -739.858525795061 0 0 106 (C1) n - 1
REM
REM in /rds/project/t2_vol4/rds-t2-cs072/BORA/CARBON/from-Arr/AIRSS/Generating-Clusters/GAP-ML-2020/Only-C1/SD-CG/HFTN-CG
REM
REM
REM
REM
REM
REM ./C.cell (11c1c37f851c82e70ff6c80c92926a4b)
REM AIRSS Version 0.9.1 bugfix July 2018 build 013d7b7c2542+ Fri, 06 Jul 2018 19:26:36 +0100
REM compiler GCC version 9.3.0
REM options -cpp -mtune=generic -march=x86-64 -g -O0
REM seed 404137306 -2119456051 -1958160841 -163230354 -1436116447 -1495762477 -917778281 1760010568 1317213734 13724435 -568164906 -2095139594 721439893 -152244598 -1426361484 1837778325 551391845 1142465384 -570003563 2082999204 -22013165 1119545780 1736324137 -1148830985 -2039409203 -2034115325 -1873836437 -517079406 -814377853 -2043087379 -1878022577 1467987870 1209032671
REM
CELL 1.54180   50.00000   50.00000   50.00000   90.00000   90.00000   90.00000
LATT -1
SFAC C  
C      1  0.4898840000000  0.5309200000000  0.5767460000000 1.0
C      1  0.4932000000000  0.4851280000000  0.5649150000000 1.0
C      1  0.5819900000000  0.4757390000000  0.5345760000000 1.0
C      1  0.4383840000000  0.4460280000000  0.5228760000000 1.0
C      1  0.5800090000000  0.5478390000000  0.4772100000000 1.0
C      1  0.5870150000000  0.5490110000000  0.5052670000000 1.0
C      1  0.4206620000000  0.5357920000000  0.4584360000000 1.0
C      1  0.4578260000000  0.5779590000000  0.5081120000000 1.0
C      1  0.4889150000000  0.4231540000000  0.5275040000000 1.0
C      1  0.4758420000000  0.4380180000000  0.5494100000000 1.0
C      1  0.5408540000000  0.4632970000000  0.5577930000000 1.0
C      1  0.5620630000000  0.4849990000000  0.4434890000000 1.0
C      1  0.4978820000000  0.5117130000000  0.4852350000000 1.0
C      1  0.5357240000000  0.4350490000000  0.4594820000000 1.0
C      1  0.5399660000000  0.5572250000000  0.4513740000000 1.0
C      1  0.4263070000000  0.4837170000000  0.5795320000000 1.0
C      1  0.4931070000000  0.4209640000000  0.4795520000000 1.0
C      1  0.5472080000000  0.5051410000000  0.5214810000000 1.0
C      1  0.5169940000000  0.5215260000000  0.5827130000000 1.0
C      1  0.4509030000000  0.5076250000000  0.4908530000000 1.0
C      1  0.4302500000000  0.4752820000000  0.4694750000000 1.0
C      1  0.5644430000000  0.5144660000000  0.5637150000000 1.0
C      1  0.5233940000000  0.4514230000000  0.4392650000000 1.0
C      1  0.5416190000000  0.5317500000000  0.5685450000000 1.0
C      1  0.4302800000000  0.4661270000000  0.5587780000000 1.0
C      1  0.5323590000000  0.4869660000000  0.5381050000000 1.0
C      1  0.5921340000000  0.5054800000000  0.4882240000000 1.0
C      1  0.4453310000000  0.4532090000000  0.4316540000000 1.0
C      1  0.5544380000000  0.5603570000000  0.4755590000000 1.0
C      1  0.4699840000000  0.4570890000000  0.4178390000000 1.0
C      1  0.5660170000000  0.5137090000000  0.4455880000000 1.0
C      1  0.4937200000000  0.4544070000000  0.4378600000000 1.0
C      1  0.5211140000000  0.4223290000000  0.4811850000000 1.0
C      1  0.4786530000000  0.5917290000000  0.5181240000000 1.0
C      1  0.4916610000000  0.4867760000000  0.4351620000000 1.0
C      1  0.5119690000000  0.5591320000000  0.4567520000000 1.0
C      1  0.4351820000000  0.4458050000000  0.4754240000000 1.0
C      1  0.4484630000000  0.4446630000000  0.5492870000000 1.0
C      1  0.4279310000000  0.5406540000000  0.5242690000000 1.0
C      1  0.5250470000000  0.4706320000000  0.4907370000000 1.0
C      1  0.4762130000000  0.4210610000000  0.5026210000000 1.0
C      1  0.5059140000000  0.4959220000000  0.5372780000000 1.0
C      1  0.5149430000000  0.4935750000000  0.5838750000000 1.0
C      1  0.4531640000000  0.4412120000000  0.4988620000000 1.0
C      1  0.4700980000000  0.5302680000000  0.4510340000000 1.0
C      1  0.4491760000000  0.5648870000000  0.4835180000000 1.0
C      1  0.4603880000000  0.4859950000000  0.4723940000000 1.0
C      1  0.4180000000000  0.4929080000000  0.5203250000000 1.0
C      1  0.4869050000000  0.5385050000000  0.4947480000000 1.0
C      1  0.4710690000000  0.4855670000000  0.4122540000000 1.0
C      1  0.5831150000000  0.5219740000000  0.4666620000000 1.0
C      1  0.4988620000000  0.4678030000000  0.4978610000000 1.0
C      1  0.5105330000000  0.5686510000000  0.5516410000000 1.0
C      1  0.5382390000000  0.4791380000000  0.5834760000000 1.0
C      1  0.4233360000000  0.5577720000000  0.4776270000000 1.0
C      1  0.4949920000000  0.4546340000000  0.5615120000000 1.0
C      1  0.5371100000000  0.4763400000000  0.4327330000000 1.0
C      1  0.5453130000000  0.5329820000000  0.4373200000000 1.0
C      1  0.4916250000000  0.5563060000000  0.5674620000000 1.0
C      1  0.4712670000000  0.5079040000000  0.5654220000000 1.0
C      1  0.5317270000000  0.5481990000000  0.5473770000000 1.0
C      1  0.5095720000000  0.5589760000000  0.4865590000000 1.0
C      1  0.5177060000000  0.4264890000000  0.5298970000000 1.0
C      1  0.5604950000000  0.4434990000000  0.4705000000000 1.0
C      1  0.5059320000000  0.5248640000000  0.5323930000000 1.0
C      1  0.4208720000000  0.4969980000000  0.4906450000000 1.0
C      1  0.4809590000000  0.5022640000000  0.4592150000000 1.0
C      1  0.5216080000000  0.5810620000000  0.5037880000000 1.0
C      1  0.4627350000000  0.5387220000000  0.4791750000000 1.0
C      1  0.4369060000000  0.5021990000000  0.4248290000000 1.0
C      1  0.5202090000000  0.4439970000000  0.5527860000000 1.0
C      1  0.4406010000000  0.5264240000000  0.4408550000000 1.0
C      1  0.5607420000000  0.4400380000000  0.4991150000000 1.0
C      1  0.4626540000000  0.5152120000000  0.5362270000000 1.0
C      1  0.4647320000000  0.4970590000000  0.5143890000000 1.0
C      1  0.5175990000000  0.4961590000000  0.4266270000000 1.0
C      1  0.5739710000000  0.5725020000000  0.5135220000000 1.0
C      1  0.4128460000000  0.5423190000000  0.5003290000000 1.0
C      1  0.4522860000000  0.5561110000000  0.5251430000000 1.0
C      1  0.4201980000000  0.4675340000000  0.5310660000000 1.0
C      1  0.5645130000000  0.4901950000000  0.5777130000000 1.0
C      1  0.4796460000000  0.4401970000000  0.4605100000000 1.0
C      1  0.4793210000000  0.5376030000000  0.5241910000000 1.0
C      1  0.5044800000000  0.5849190000000  0.5267120000000 1.0
C      1  0.5769170000000  0.5065700000000  0.5339290000000 1.0
C      1  0.4503420000000  0.4371090000000  0.4536640000000 1.0
C      1  0.4401570000000  0.5038740000000  0.5673710000000 1.0
C      1  0.5193880000000  0.5240500000000  0.4288270000000 1.0
C      1  0.5785510000000  0.4617400000000  0.5095630000000 1.0
C      1  0.5334460000000  0.5407130000000  0.4932160000000 1.0
C      1  0.4920870000000  0.4916900000000  0.5110220000000 1.0
C      1  0.4501320000000  0.4986990000000  0.4005380000000 1.0
C      1  0.4293970000000  0.4768240000000  0.4399550000000 1.0
C      1  0.5867920000000  0.4775560000000  0.4866720000000 1.0
C      1  0.4972330000000  0.5411310000000  0.4411860000000 1.0
C      1  0.5739540000000  0.4673000000000  0.4627980000000 1.0
C      1  0.5326880000000  0.5322040000000  0.5218610000000 1.0
C      1  0.4312470000000  0.5147090000000  0.5375140000000 1.0
C      1  0.5391080000000  0.4942070000000  0.4946390000000 1.0
C      1  0.5506360000000  0.5792530000000  0.4992210000000 1.0
C      1  0.5265620000000  0.5150900000000  0.4812970000000 1.0
C      1  0.4747000000000  0.4612510000000  0.4832040000000 1.0
C      1  0.4081060000000  0.5209650000000  0.4810280000000 1.0
C      1  0.5703450000000  0.4681610000000  0.5588210000000 1.0
C      1  0.5354360000000  0.4258200000000  0.5064260000000 1.0
C      1  0.5914810000000  0.5213130000000  0.5129570000000 1.0
END
