TITL C-27289-6417-5 98.8071794400754 125000 -716.563939577767 0 0 102 (C1) n - 1
REM
REM in /rds/project/t2_vol4/rds-t2-cs072/BORA/CARBON/from-Arr/AIRSS/Generating-Clusters/GAP-ML-2020/Only-C1/SD-CG/HFTN-CG
REM
REM
REM
REM
REM
REM ./C.cell (11c1c37f851c82e70ff6c80c92926a4b)
REM AIRSS Version 0.9.1 bugfix July 2018 build 013d7b7c2542+ Fri, 06 Jul 2018 19:26:36 +0100
REM compiler GCC version 9.3.0
REM options -cpp -mtune=generic -march=x86-64 -g -O0
REM seed 433429239 -570509497 -293796352 110497389 -1324502823 1820275947 432686991 1386431057 -1603228790 915538284 1359573717 2024325576 -691635760 1498461540 2030183960 -1574714904 1459659652 -1084628350 1508557571 -47207065 2102429946 -485797064 -1104986015 1254090993 851785804 2013350603 -888275852 -318708924 -1838297183 -1174941907 -336454595 882560268 -1390751044
REM
CELL 1.54180   50.00000   50.00000   50.00000   90.00000   90.00000   90.00000
LATT -1
SFAC C  
C      1  0.4459240000000  0.5224450000000  0.4405400000000 1.0
C      1  0.4375650000000  0.5432690000000  0.4806600000000 1.0
C      1  0.4788150000000  0.5099340000000  0.4929240000000 1.0
C      1  0.4945320000000  0.5853470000000  0.5280830000000 1.0
C      1  0.5663940000000  0.5192580000000  0.4524450000000 1.0
C      1  0.5414730000000  0.4381870000000  0.4785070000000 1.0
C      1  0.4854650000000  0.4138670000000  0.4766980000000 1.0
C      1  0.5195380000000  0.5578220000000  0.5024630000000 1.0
C      1  0.4504770000000  0.4739140000000  0.5711380000000 1.0
C      1  0.4667800000000  0.5890660000000  0.5331250000000 1.0
C      1  0.4658230000000  0.5580210000000  0.5497780000000 1.0
C      1  0.5331830000000  0.4167820000000  0.4958250000000 1.0
C      1  0.5047190000000  0.4123360000000  0.4993660000000 1.0
C      1  0.5339020000000  0.5644730000000  0.5280550000000 1.0
C      1  0.4984290000000  0.4196640000000  0.5262420000000 1.0
C      1  0.4467590000000  0.4446910000000  0.4981460000000 1.0
C      1  0.5594190000000  0.4726820000000  0.4470530000000 1.0
C      1  0.4541090000000  0.5613220000000  0.4673390000000 1.0
C      1  0.4567060000000  0.5495330000000  0.4420110000000 1.0
C      1  0.5489010000000  0.5178010000000  0.5663110000000 1.0
C      1  0.5729430000000  0.4931570000000  0.4624480000000 1.0
C      1  0.5204830000000  0.4806460000000  0.4897340000000 1.0
C      1  0.4240300000000  0.5271430000000  0.5203650000000 1.0
C      1  0.5255150000000  0.4725500000000  0.4148220000000 1.0
C      1  0.5460690000000  0.4193180000000  0.5233840000000 1.0
C      1  0.5204610000000  0.4531930000000  0.5224630000000 1.0
C      1  0.5795190000000  0.5093010000000  0.5323600000000 1.0
C      1  0.4203240000000  0.4999170000000  0.5102940000000 1.0
C      1  0.5302880000000  0.5307370000000  0.4187490000000 1.0
C      1  0.5012990000000  0.5031040000000  0.4513370000000 1.0
C      1  0.5790760000000  0.4917490000000  0.4896180000000 1.0
C      1  0.4899630000000  0.5636350000000  0.5066320000000 1.0
C      1  0.5669030000000  0.4707410000000  0.5050360000000 1.0
C      1  0.4960150000000  0.4688040000000  0.4815300000000 1.0
C      1  0.4457620000000  0.4699930000000  0.4810210000000 1.0
C      1  0.5118450000000  0.5701730000000  0.5455540000000 1.0
C      1  0.5509350000000  0.5143930000000  0.4286790000000 1.0
C      1  0.5703220000000  0.4835970000000  0.5401940000000 1.0
C      1  0.5186120000000  0.4924780000000  0.5380330000000 1.0
C      1  0.4759600000000  0.4826000000000  0.4165550000000 1.0
C      1  0.5445990000000  0.4478600000000  0.4513850000000 1.0
C      1  0.4650680000000  0.5004740000000  0.5356340000000 1.0
C      1  0.4784380000000  0.4799450000000  0.5782450000000 1.0
C      1  0.4538880000000  0.5199660000000  0.5806540000000 1.0
C      1  0.4735500000000  0.4748330000000  0.5237380000000 1.0
C      1  0.4239220000000  0.5291070000000  0.5481630000000 1.0
C      1  0.4693600000000  0.5463530000000  0.5209230000000 1.0
C      1  0.4411150000000  0.5448440000000  0.5080010000000 1.0
C      1  0.4972690000000  0.4372140000000  0.4344010000000 1.0
C      1  0.5479100000000  0.4865630000000  0.4252370000000 1.0
C      1  0.4993580000000  0.5775150000000  0.4642670000000 1.0
C      1  0.5410480000000  0.4630510000000  0.5695250000000 1.0
C      1  0.4799540000000  0.4348910000000  0.5636780000000 1.0
C      1  0.4804290000000  0.5099080000000  0.5835040000000 1.0
C      1  0.5226390000000  0.4447100000000  0.5661400000000 1.0
C      1  0.5632160000000  0.5424670000000  0.4697230000000 1.0
C      1  0.5009230000000  0.4701010000000  0.5352490000000 1.0
C      1  0.5012610000000  0.5663250000000  0.4379440000000 1.0
C      1  0.4555220000000  0.4525470000000  0.4579770000000 1.0
C      1  0.4457200000000  0.5415050000000  0.5626520000000 1.0
C      1  0.5424270000000  0.5589600000000  0.4586980000000 1.0
C      1  0.5689270000000  0.4317580000000  0.5303370000000 1.0
C      1  0.5240250000000  0.4479840000000  0.4297900000000 1.0
C      1  0.4958220000000  0.4759430000000  0.4547050000000 1.0
C      1  0.4812180000000  0.5190160000000  0.5209130000000 1.0
C      1  0.5240820000000  0.5715550000000  0.4766320000000 1.0
C      1  0.4749700000000  0.5769870000000  0.4822730000000 1.0
C      1  0.5820070000000  0.5154190000000  0.5047280000000 1.0
C      1  0.4957930000000  0.4585650000000  0.5651330000000 1.0
C      1  0.4606440000000  0.4308770000000  0.4768140000000 1.0
C      1  0.5285440000000  0.5288170000000  0.5802860000000 1.0
C      1  0.5272220000000  0.5541200000000  0.4346430000000 1.0
C      1  0.4762190000000  0.4601250000000  0.4372440000000 1.0
C      1  0.5231600000000  0.4283490000000  0.5396160000000 1.0
C      1  0.5104600000000  0.5160220000000  0.5258890000000 1.0
C      1  0.5664130000000  0.5302870000000  0.5459490000000 1.0
C      1  0.4972930000000  0.5181990000000  0.4733060000000 1.0
C      1  0.4824560000000  0.5283750000000  0.4118000000000 1.0
C      1  0.4796250000000  0.5526130000000  0.4259530000000 1.0
C      1  0.4204720000000  0.4840460000000  0.5353290000000 1.0
C      1  0.5698430000000  0.5403620000000  0.4985370000000 1.0
C      1  0.4633990000000  0.5084350000000  0.4205100000000 1.0
C      1  0.4729970000000  0.4812010000000  0.4943980000000 1.0
C      1  0.5213320000000  0.5086890000000  0.4846690000000 1.0
C      1  0.5765570000000  0.4578160000000  0.5282920000000 1.0
C      1  0.5076910000000  0.5170360000000  0.4064240000000 1.0
C      1  0.4735290000000  0.4274160000000  0.5383410000000 1.0
C      1  0.4626480000000  0.5936530000000  0.5060140000000 1.0
C      1  0.4267260000000  0.4938280000000  0.4826560000000 1.0
C      1  0.5008440000000  0.5316180000000  0.5789070000000 1.0
C      1  0.4548220000000  0.4479120000000  0.5266120000000 1.0
C      1  0.5033210000000  0.4886170000000  0.4071390000000 1.0
C      1  0.5457150000000  0.4879120000000  0.5563230000000 1.0
C      1  0.5592660000000  0.5504550000000  0.5262120000000 1.0
C      1  0.4324640000000  0.5177360000000  0.4661750000000 1.0
C      1  0.5391170000000  0.4612450000000  0.4990520000000 1.0
C      1  0.4935320000000  0.5547110000000  0.5621610000000 1.0
C      1  0.4948000000000  0.4159490000000  0.4507420000000 1.0
C      1  0.5261460000000  0.5263420000000  0.5053440000000 1.0
C      1  0.4366550000000  0.4975780000000  0.5768060000000 1.0
C      1  0.4377350000000  0.4627980000000  0.5455270000000 1.0
C      1  0.4186550000000  0.5028540000000  0.5565640000000 1.0
END
