TITL C-2722-5076-9 -0.118682613673753 125000 -839.595792150052 0 0 122 (C1) n - 1
REM
REM in /rds/project/t2_vol4/rds-t2-cs072/BORA/CARBON/from-Arr/AIRSS/Generating-Clusters/GAP-ML-2020/Only-C1/SD-CG/HFTN-CG
REM
REM
REM
REM
REM
REM ./C.cell (11c1c37f851c82e70ff6c80c92926a4b)
REM AIRSS Version 0.9.1 bugfix July 2018 build 013d7b7c2542+ Fri, 06 Jul 2018 19:26:36 +0100
REM compiler GCC version 9.3.0
REM options -cpp -mtune=generic -march=x86-64 -g -O0
REM seed 1605145643 1002209425 1372762328 1439583043 1266827492 87287836 2132140785 2099795651 -741038014 -1062263179 -569479722 -1741005628 -1497449900 1221352779 -973840885 -1158342868 -2112100097 -557854940 1073395226 -559447797 -457306798 423582098 -1771402613 1882301615 1280743621 1434866034 -927299279 143988471 -848633845 646834752 -1945676530 -250276384 255697195
REM
CELL 1.54180   50.00000   50.00000   50.00000   90.00000   90.00000   90.00000
LATT -1
SFAC C  
C      1  0.4919220000000  0.5286140000000  0.4467920000000 1.0
C      1  0.5002310000000  0.4559350000000  0.4962580000000 1.0
C      1  0.4658160000000  0.4876260000000  0.5876700000000 1.0
C      1  0.5223380000000  0.5804770000000  0.4980080000000 1.0
C      1  0.4798030000000  0.4723900000000  0.4887550000000 1.0
C      1  0.4308010000000  0.4618450000000  0.5549920000000 1.0
C      1  0.5782390000000  0.4839990000000  0.5540930000000 1.0
C      1  0.4202460000000  0.4967210000000  0.5013090000000 1.0
C      1  0.5613920000000  0.4931350000000  0.5755540000000 1.0
C      1  0.4420760000000  0.5359030000000  0.5543620000000 1.0
C      1  0.5260300000000  0.4913430000000  0.4771240000000 1.0
C      1  0.4652330000000  0.5133330000000  0.4075320000000 1.0
C      1  0.5593240000000  0.4627790000000  0.5450080000000 1.0
C      1  0.5482070000000  0.5649560000000  0.5089680000000 1.0
C      1  0.5925310000000  0.4997220000000  0.5374410000000 1.0
C      1  0.4789120000000  0.4201220000000  0.4531590000000 1.0
C      1  0.5472490000000  0.5624440000000  0.5388410000000 1.0
C      1  0.4633330000000  0.5254270000000  0.4880590000000 1.0
C      1  0.4741990000000  0.4911760000000  0.5121520000000 1.0
C      1  0.5305870000000  0.4105750000000  0.5098440000000 1.0
C      1  0.5683070000000  0.5493860000000  0.4426480000000 1.0
C      1  0.5841990000000  0.5316960000000  0.5086460000000 1.0
C      1  0.5030470000000  0.4537560000000  0.4218250000000 1.0
C      1  0.5092370000000  0.5882740000000  0.5216060000000 1.0
C      1  0.4718150000000  0.5146970000000  0.5968570000000 1.0
C      1  0.4141790000000  0.5235230000000  0.4833810000000 1.0
C      1  0.4740340000000  0.5380210000000  0.4210590000000 1.0
C      1  0.5612540000000  0.4360930000000  0.4661040000000 1.0
C      1  0.5751770000000  0.5254860000000  0.4588040000000 1.0
C      1  0.4475240000000  0.5476940000000  0.4332830000000 1.0
C      1  0.4805730000000  0.5879180000000  0.5180020000000 1.0
C      1  0.4447080000000  0.5128220000000  0.5352110000000 1.0
C      1  0.4196350000000  0.4668720000000  0.4619880000000 1.0
C      1  0.5114520000000  0.5083340000000  0.4340070000000 1.0
C      1  0.5548120000000  0.5177070000000  0.5074950000000 1.0
C      1  0.4922350000000  0.4311440000000  0.4324910000000 1.0
C      1  0.5263480000000  0.5341000000000  0.4750540000000 1.0
C      1  0.4336140000000  0.4458880000000  0.5046510000000 1.0
C      1  0.5076970000000  0.5727290000000  0.5686200000000 1.0
C      1  0.4493770000000  0.5077070000000  0.5059070000000 1.0
C      1  0.5012290000000  0.5432880000000  0.4081970000000 1.0
C      1  0.5790610000000  0.5536390000000  0.4677690000000 1.0
C      1  0.4205360000000  0.4676390000000  0.4905370000000 1.0
C      1  0.5206600000000  0.5548690000000  0.4266190000000 1.0
C      1  0.5455370000000  0.5420160000000  0.4276770000000 1.0
C      1  0.5305590000000  0.4642220000000  0.4352990000000 1.0
C      1  0.4992820000000  0.5260960000000  0.5995280000000 1.0
C      1  0.4046400000000  0.4878340000000  0.4516960000000 1.0
C      1  0.5312150000000  0.4693950000000  0.5276610000000 1.0
C      1  0.5112150000000  0.4151640000000  0.5297600000000 1.0
C      1  0.4211020000000  0.5511850000000  0.5214830000000 1.0
C      1  0.4713200000000  0.4098780000000  0.4975510000000 1.0
C      1  0.5218710000000  0.5185290000000  0.5815190000000 1.0
C      1  0.5452530000000  0.5140920000000  0.4625860000000 1.0
C      1  0.5059800000000  0.5140430000000  0.4043870000000 1.0
C      1  0.5022130000000  0.5728740000000  0.4778820000000 1.0
C      1  0.4464980000000  0.5009090000000  0.4238550000000 1.0
C      1  0.5022770000000  0.4498670000000  0.5667890000000 1.0
C      1  0.4443930000000  0.5669680000000  0.4523370000000 1.0
C      1  0.4527840000000  0.4312910000000  0.4605120000000 1.0
C      1  0.4750640000000  0.5728180000000  0.4925920000000 1.0
C      1  0.4811090000000  0.4837860000000  0.4615610000000 1.0
C      1  0.5203970000000  0.4975470000000  0.5350940000000 1.0
C      1  0.4630740000000  0.5812520000000  0.5406050000000 1.0
C      1  0.5847180000000  0.4607490000000  0.5037380000000 1.0
C      1  0.4851490000000  0.4957010000000  0.3994240000000 1.0
C      1  0.4094030000000  0.4774890000000  0.5474050000000 1.0
C      1  0.5184250000000  0.4707210000000  0.5761080000000 1.0
C      1  0.4229860000000  0.5503030000000  0.4932680000000 1.0
C      1  0.5254620000000  0.4689640000000  0.4978840000000 1.0
C      1  0.4652130000000  0.5276860000000  0.5704990000000 1.0
C      1  0.5240930000000  0.5779260000000  0.5457600000000 1.0
C      1  0.5580250000000  0.5353450000000  0.5503070000000 1.0
C      1  0.5773910000000  0.4576380000000  0.4754640000000 1.0
C      1  0.4322590000000  0.5226840000000  0.4358110000000 1.0
C      1  0.5082360000000  0.5131690000000  0.4867320000000 1.0
C      1  0.5899890000000  0.5031750000000  0.4663890000000 1.0
C      1  0.4407200000000  0.4458120000000  0.5325980000000 1.0
C      1  0.5419340000000  0.4396380000000  0.4461170000000 1.0
C      1  0.4167390000000  0.5265170000000  0.5373810000000 1.0
C      1  0.4914810000000  0.4446730000000  0.5222310000000 1.0
C      1  0.5854190000000  0.5277120000000  0.5373470000000 1.0
C      1  0.4910400000000  0.4073390000000  0.4767340000000 1.0
C      1  0.4138110000000  0.5141410000000  0.4565640000000 1.0
C      1  0.4488320000000  0.4262050000000  0.4885410000000 1.0
C      1  0.4456070000000  0.5689570000000  0.4791780000000 1.0
C      1  0.4599890000000  0.4759760000000  0.4360830000000 1.0
C      1  0.5541820000000  0.4840330000000  0.4357740000000 1.0
C      1  0.4638720000000  0.4892340000000  0.5399280000000 1.0
C      1  0.4794920000000  0.4985420000000  0.5624680000000 1.0
C      1  0.4743270000000  0.4470690000000  0.5656130000000 1.0
C      1  0.4800640000000  0.5734060000000  0.5611310000000 1.0
C      1  0.5749650000000  0.5571420000000  0.4953990000000 1.0
C      1  0.4814690000000  0.4714960000000  0.4140350000000 1.0
C      1  0.4739800000000  0.5458020000000  0.5049050000000 1.0
C      1  0.4822770000000  0.4147530000000  0.5237530000000 1.0
C      1  0.4094220000000  0.4993660000000  0.5300400000000 1.0
C      1  0.5137910000000  0.4443820000000  0.5406630000000 1.0
C      1  0.5107970000000  0.4831260000000  0.4514310000000 1.0
C      1  0.5381450000000  0.4192250000000  0.4643910000000 1.0
C      1  0.5554890000000  0.4215390000000  0.5161250000000 1.0
C      1  0.4536660000000  0.4643350000000  0.5764640000000 1.0
C      1  0.5762030000000  0.4796840000000  0.4563920000000 1.0
C      1  0.5406380000000  0.5120210000000  0.4341680000000 1.0
C      1  0.5092490000000  0.4969210000000  0.5640100000000 1.0
C      1  0.4994990000000  0.5095560000000  0.5165410000000 1.0
C      1  0.5509180000000  0.5193770000000  0.5762210000000 1.0
C      1  0.4415140000000  0.5615240000000  0.5398670000000 1.0
C      1  0.5195470000000  0.4075780000000  0.4824030000000 1.0
C      1  0.5094410000000  0.5522040000000  0.4563150000000 1.0
C      1  0.5460610000000  0.4687310000000  0.5731780000000 1.0
C      1  0.5440340000000  0.5142260000000  0.5323150000000 1.0
C      1  0.4821010000000  0.5132740000000  0.4696950000000 1.0
C      1  0.4852590000000  0.5435010000000  0.5570810000000 1.0
C      1  0.4415200000000  0.4542450000000  0.4476280000000 1.0
C      1  0.5388870000000  0.5396020000000  0.4998230000000 1.0
C      1  0.4903680000000  0.5358160000000  0.5259810000000 1.0
C      1  0.5071600000000  0.5444890000000  0.5789150000000 1.0
C      1  0.5968570000000  0.5078710000000  0.4935990000000 1.0
C      1  0.4668330000000  0.4364180000000  0.5398020000000 1.0
C      1  0.5701460000000  0.4430020000000  0.5236180000000 1.0
C      1  0.5959540000000  0.4864220000000  0.5117100000000 1.0
END
