TITL C-27299-6702-4 -192.262185954163 125000 -704.368940715301 0 0 102 (C1) n - 1
REM
REM in /rds/project/t2_vol4/rds-t2-cs072/BORA/CARBON/from-Arr/AIRSS/Generating-Clusters/GAP-ML-2020/Only-C1/SD-CG/HFTN-CG
REM
REM
REM
REM
REM
REM ./C.cell (11c1c37f851c82e70ff6c80c92926a4b)
REM AIRSS Version 0.9.1 bugfix July 2018 build 013d7b7c2542+ Fri, 06 Jul 2018 19:26:36 +0100
REM compiler GCC version 9.3.0
REM options -cpp -mtune=generic -march=x86-64 -g -O0
REM seed -1250570435 -128831821 -535357269 1082884474 1383896458 -677728158 -817635108 -1853125618 175836339 -1471741843 2085341504 108727711 1522057824 2127253900 -2075113169 984205917 -1930113538 -921583401 -95052674 1027998814 -1007522208 -1345079000 639012854 -1341012116 1475151038 -976028320 342521411 -1636693858 -664242972 217633639 -1244864310 1197721698 -364575941
REM
CELL 1.54180   50.00000   50.00000   50.00000   90.00000   90.00000   90.00000
LATT -1
SFAC C  
C      1  0.4885750000000  0.4959560000000  0.4297190000000 1.0
C      1  0.4048890000000  0.5075140000000  0.5299340000000 1.0
C      1  0.5200590000000  0.5451110000000  0.4417990000000 1.0
C      1  0.4201130000000  0.5214300000000  0.5488650000000 1.0
C      1  0.5280380000000  0.4343240000000  0.5554580000000 1.0
C      1  0.5216760000000  0.5077150000000  0.5234060000000 1.0
C      1  0.5693450000000  0.5624560000000  0.4437700000000 1.0
C      1  0.5464340000000  0.4875980000000  0.4890650000000 1.0
C      1  0.4054600000000  0.5219530000000  0.5044920000000 1.0
C      1  0.5254800000000  0.5153630000000  0.5735870000000 1.0
C      1  0.4796930000000  0.5318040000000  0.5847330000000 1.0
C      1  0.5276380000000  0.4578220000000  0.4300800000000 1.0
C      1  0.5028860000000  0.5787860000000  0.5284290000000 1.0
C      1  0.5184040000000  0.5294010000000  0.4161290000000 1.0
C      1  0.5270630000000  0.4206350000000  0.4599210000000 1.0
C      1  0.4769260000000  0.4300020000000  0.5384840000000 1.0
C      1  0.5650250000000  0.5511950000000  0.5032540000000 1.0
C      1  0.5060530000000  0.4437110000000  0.5399430000000 1.0
C      1  0.4424220000000  0.5530360000000  0.4907590000000 1.0
C      1  0.4344200000000  0.5048830000000  0.5676870000000 1.0
C      1  0.5419280000000  0.4359810000000  0.5064170000000 1.0
C      1  0.5401210000000  0.5095490000000  0.4250420000000 1.0
C      1  0.5782780000000  0.5138230000000  0.5311370000000 1.0
C      1  0.5214560000000  0.5275600000000  0.5464010000000 1.0
C      1  0.4346020000000  0.4759650000000  0.5663930000000 1.0
C      1  0.4921850000000  0.5194260000000  0.4142330000000 1.0
C      1  0.6023940000000  0.5131400000000  0.5169370000000 1.0
C      1  0.4338310000000  0.4492180000000  0.4948200000000 1.0
C      1  0.4862920000000  0.4591020000000  0.4714260000000 1.0
C      1  0.4675220000000  0.5055500000000  0.4871120000000 1.0
C      1  0.5626810000000  0.4426120000000  0.5246680000000 1.0
C      1  0.4055960000000  0.4821330000000  0.5152570000000 1.0
C      1  0.4991120000000  0.5424390000000  0.5086340000000 1.0
C      1  0.4308200000000  0.5463010000000  0.5354880000000 1.0
C      1  0.4830630000000  0.5640280000000  0.5477880000000 1.0
C      1  0.5371060000000  0.4838270000000  0.5184460000000 1.0
C      1  0.4217980000000  0.5444330000000  0.5082710000000 1.0
C      1  0.5039030000000  0.5737300000000  0.4760230000000 1.0
C      1  0.4054700000000  0.4966610000000  0.4899030000000 1.0
C      1  0.5735890000000  0.5367580000000  0.4533380000000 1.0
C      1  0.5151350000000  0.5200890000000  0.4979810000000 1.0
C      1  0.5671320000000  0.5137470000000  0.4367770000000 1.0
C      1  0.4966710000000  0.4706240000000  0.4984270000000 1.0
C      1  0.5446000000000  0.5709500000000  0.5017970000000 1.0
C      1  0.5512650000000  0.4466820000000  0.5510420000000 1.0
C      1  0.5018640000000  0.5144240000000  0.5896400000000 1.0
C      1  0.5703980000000  0.4849850000000  0.4399030000000 1.0
C      1  0.4584360000000  0.4610970000000  0.5754620000000 1.0
C      1  0.5691410000000  0.5303590000000  0.4825100000000 1.0
C      1  0.5275160000000  0.5159000000000  0.4523420000000 1.0
C      1  0.5304040000000  0.5717740000000  0.5268450000000 1.0
C      1  0.5654810000000  0.5404570000000  0.5295810000000 1.0
C      1  0.4648790000000  0.5005280000000  0.5170700000000 1.0
C      1  0.5775560000000  0.4678130000000  0.4624140000000 1.0
C      1  0.4201460000000  0.4908950000000  0.4671920000000 1.0
C      1  0.5329730000000  0.4873010000000  0.5763840000000 1.0
C      1  0.5049000000000  0.4854290000000  0.5869760000000 1.0
C      1  0.4901180000000  0.5713840000000  0.5020250000000 1.0
C      1  0.4915760000000  0.4682800000000  0.5458370000000 1.0
C      1  0.4356020000000  0.4655390000000  0.4705400000000 1.0
C      1  0.5450560000000  0.4798540000000  0.4244630000000 1.0
C      1  0.4683400000000  0.5295830000000  0.4261220000000 1.0
C      1  0.5426000000000  0.5622710000000  0.4524300000000 1.0
C      1  0.4957290000000  0.5577600000000  0.4539910000000 1.0
C      1  0.4618790000000  0.4843420000000  0.4345820000000 1.0
C      1  0.4476980000000  0.4441060000000  0.4492870000000 1.0
C      1  0.4711030000000  0.5441810000000  0.4502840000000 1.0
C      1  0.4529030000000  0.5318130000000  0.4716920000000 1.0
C      1  0.4474180000000  0.5097200000000  0.4314880000000 1.0
C      1  0.5411440000000  0.5493190000000  0.5416120000000 1.0
C      1  0.4553660000000  0.5633950000000  0.5340080000000 1.0
C      1  0.4966240000000  0.5014010000000  0.4836770000000 1.0
C      1  0.4845200000000  0.5575890000000  0.5755110000000 1.0
C      1  0.4207040000000  0.4585100000000  0.5189190000000 1.0
C      1  0.5202400000000  0.4569420000000  0.5139420000000 1.0
C      1  0.4331960000000  0.5144240000000  0.4549280000000 1.0
C      1  0.4686120000000  0.4351640000000  0.4677790000000 1.0
C      1  0.5767130000000  0.4807780000000  0.4898210000000 1.0
C      1  0.5761190000000  0.4664350000000  0.5169090000000 1.0
C      1  0.4601290000000  0.5177950000000  0.5672590000000 1.0
C      1  0.5637660000000  0.4869050000000  0.5360200000000 1.0
C      1  0.5573390000000  0.4470100000000  0.4626600000000 1.0
C      1  0.5407510000000  0.4354000000000  0.4402550000000 1.0
C      1  0.5113160000000  0.4677150000000  0.4553640000000 1.0
C      1  0.4930530000000  0.5366110000000  0.5366000000000 1.0
C      1  0.4547540000000  0.4410970000000  0.5540400000000 1.0
C      1  0.4714230000000  0.5175930000000  0.5397540000000 1.0
C      1  0.5322560000000  0.5743150000000  0.4764360000000 1.0
C      1  0.5875870000000  0.5083850000000  0.4947440000000 1.0
C      1  0.4795480000000  0.4770180000000  0.5213010000000 1.0
C      1  0.5049670000000  0.4970200000000  0.4551090000000 1.0
C      1  0.4839560000000  0.4715650000000  0.5733000000000 1.0
C      1  0.5533860000000  0.4742150000000  0.5610670000000 1.0
C      1  0.5355040000000  0.4674780000000  0.4717230000000 1.0
C      1  0.4556500000000  0.4298610000000  0.4928790000000 1.0
C      1  0.5453590000000  0.4255620000000  0.4807150000000 1.0
C      1  0.4610970000000  0.5675790000000  0.5069300000000 1.0
C      1  0.4311190000000  0.4550810000000  0.5450780000000 1.0
C      1  0.5401190000000  0.5158750000000  0.4798760000000 1.0
C      1  0.4514050000000  0.4579700000000  0.4269160000000 1.0
C      1  0.4629440000000  0.4795380000000  0.4679110000000 1.0
C      1  0.4684650000000  0.4196350000000  0.5146240000000 1.0
END
