TITL C-27309-6531-6 -35.2985154509785 125000 -458.070855873013 0 0 66 (C1) n - 1
REM
REM in /rds/project/t2_vol4/rds-t2-cs072/BORA/CARBON/from-Arr/AIRSS/Generating-Clusters/GAP-ML-2020/Only-C1/SD-CG/HFTN-CG
REM
REM
REM
REM
REM
REM ./C.cell (11c1c37f851c82e70ff6c80c92926a4b)
REM AIRSS Version 0.9.1 bugfix July 2018 build 013d7b7c2542+ Fri, 06 Jul 2018 19:26:36 +0100
REM compiler GCC version 9.3.0
REM options -cpp -mtune=generic -march=x86-64 -g -O0
REM seed 724214184 -377908558 -27933541 -1176765716 -850537525 -2031619229 -590361230 -278918848 1250110112 -167350239 536912645 -1780060330 -199502101 -427057254 -874762932 -956753654 -1265616886 374186635 182348417 702771187 -1039421042 -853007962 759822514 1329919594 -878961447 -1442298731 -140434855 373253346 631575342 -1251634994 396472649 -589978909 1771857510
REM
CELL 1.54180   50.00000   50.00000   50.00000   90.00000   90.00000   90.00000
LATT -1
SFAC C  
C      1  0.4863990000000  0.5512150000000  0.5397320000000 1.0
C      1  0.5739000000000  0.4950370000000  0.4734940000000 1.0
C      1  0.4831840000000  0.5117670000000  0.5688690000000 1.0
C      1  0.5017020000000  0.5588060000000  0.5164820000000 1.0
C      1  0.4387420000000  0.4827930000000  0.4811530000000 1.0
C      1  0.5578860000000  0.4756370000000  0.4857240000000 1.0
C      1  0.4828030000000  0.4267020000000  0.4968870000000 1.0
C      1  0.4925900000000  0.4464450000000  0.5446160000000 1.0
C      1  0.5308970000000  0.5583450000000  0.5132190000000 1.0
C      1  0.4995810000000  0.5529740000000  0.4437730000000 1.0
C      1  0.4596750000000  0.5469540000000  0.5318460000000 1.0
C      1  0.4865300000000  0.4669620000000  0.5876400000000 1.0
C      1  0.5383420000000  0.5666390000000  0.4883420000000 1.0
C      1  0.4967610000000  0.5318480000000  0.4238570000000 1.0
C      1  0.4870630000000  0.4770930000000  0.4885580000000 1.0
C      1  0.4860780000000  0.4432830000000  0.4517570000000 1.0
C      1  0.5113650000000  0.4266450000000  0.4898300000000 1.0
C      1  0.4725140000000  0.4693370000000  0.4447920000000 1.0
C      1  0.5263890000000  0.5305010000000  0.4254090000000 1.0
C      1  0.5324970000000  0.4268730000000  0.5080620000000 1.0
C      1  0.5230780000000  0.5409050000000  0.5711200000000 1.0
C      1  0.4578870000000  0.5053880000000  0.5571270000000 1.0
C      1  0.4537610000000  0.4775010000000  0.5534960000000 1.0
C      1  0.4574310000000  0.5557330000000  0.5044040000000 1.0
C      1  0.5599960000000  0.4938980000000  0.5298530000000 1.0
C      1  0.5464440000000  0.5572970000000  0.4639590000000 1.0
C      1  0.4709390000000  0.4866770000000  0.4226670000000 1.0
C      1  0.4759900000000  0.4612670000000  0.5630810000000 1.0
C      1  0.5107750000000  0.4409340000000  0.4635800000000 1.0
C      1  0.5172920000000  0.4970590000000  0.4580690000000 1.0
C      1  0.4757680000000  0.5141230000000  0.4281360000000 1.0
C      1  0.5636390000000  0.5192920000000  0.5160060000000 1.0
C      1  0.4346450000000  0.5544640000000  0.4896800000000 1.0
C      1  0.4314840000000  0.5128150000000  0.5159740000000 1.0
C      1  0.5474540000000  0.5393470000000  0.5285300000000 1.0
C      1  0.5730980000000  0.5197360000000  0.4897310000000 1.0
C      1  0.5373300000000  0.5069370000000  0.4378380000000 1.0
C      1  0.5283300000000  0.5544370000000  0.4416530000000 1.0
C      1  0.4836690000000  0.5568320000000  0.4935700000000 1.0
C      1  0.4967030000000  0.5361170000000  0.5622840000000 1.0
C      1  0.4680960000000  0.4377640000000  0.4739190000000 1.0
C      1  0.5436460000000  0.4988600000000  0.5526900000000 1.0
C      1  0.4406480000000  0.4678930000000  0.5302090000000 1.0
C      1  0.4889190000000  0.5398110000000  0.4689760000000 1.0
C      1  0.4699060000000  0.5166280000000  0.4586920000000 1.0
C      1  0.4513410000000  0.4446740000000  0.5218450000000 1.0
C      1  0.5397400000000  0.4489250000000  0.5243180000000 1.0
C      1  0.5580280000000  0.4699820000000  0.5149370000000 1.0
C      1  0.4766380000000  0.4347990000000  0.5237290000000 1.0
C      1  0.4871580000000  0.4908140000000  0.4617750000000 1.0
C      1  0.4513220000000  0.4608790000000  0.4677570000000 1.0
C      1  0.4313470000000  0.4855170000000  0.5093940000000 1.0
C      1  0.4344380000000  0.5273980000000  0.4910020000000 1.0
C      1  0.5178770000000  0.5064570000000  0.4988660000000 1.0
C      1  0.5241030000000  0.4801060000000  0.5607280000000 1.0
C      1  0.5134520000000  0.5218700000000  0.4750800000000 1.0
C      1  0.4452990000000  0.5235650000000  0.5387590000000 1.0
C      1  0.5627610000000  0.5107830000000  0.4502510000000 1.0
C      1  0.4947660000000  0.4958170000000  0.5082900000000 1.0
C      1  0.5392350000000  0.5279490000000  0.5533340000000 1.0
C      1  0.5109320000000  0.4623210000000  0.4827480000000 1.0
C      1  0.5654650000000  0.5352650000000  0.4660120000000 1.0
C      1  0.4994790000000  0.4879140000000  0.5750390000000 1.0
C      1  0.5304080000000  0.4818170000000  0.4806220000000 1.0
C      1  0.4441430000000  0.5093690000000  0.4713830000000 1.0
C      1  0.5202420000000  0.4562060000000  0.5448490000000 1.0
END
