TITL C-27284-6467-5 53.4701017203117 125000 -446.751262381522 0 0 65 (C1) n - 1
REM
REM in /rds/project/t2_vol4/rds-t2-cs072/BORA/CARBON/from-Arr/AIRSS/Generating-Clusters/GAP-ML-2020/Only-C1/SD-CG/HFTN-CG
REM
REM
REM
REM
REM
REM ./C.cell (11c1c37f851c82e70ff6c80c92926a4b)
REM AIRSS Version 0.9.1 bugfix July 2018 build 013d7b7c2542+ Fri, 06 Jul 2018 19:26:36 +0100
REM compiler GCC version 9.3.0
REM options -cpp -mtune=generic -march=x86-64 -g -O0
REM seed -478994566 -1661642830 1044734065 -969327104 734861273 -891131921 -609446025 522447325 -846694617 1673333789 1755354383 324893489 -392453446 936321744 950518401 1470210292 -623543567 -839785857 -1431726042 -867195930 -1427850690 -57566496 -1939601413 -378281132 821064363 837046875 -468709380 -181166222 -1667835614 -145702742 -283425833 1147852090 820165804
REM
CELL 1.54180   50.00000   50.00000   50.00000   90.00000   90.00000   90.00000
LATT -1
SFAC C  
C      1  0.4841950000000  0.5648310000000  0.5303680000000 1.0
C      1  0.5082800000000  0.5224110000000  0.5034430000000 1.0
C      1  0.5184820000000  0.4967110000000  0.5114650000000 1.0
C      1  0.4955180000000  0.4918620000000  0.4302330000000 1.0
C      1  0.5622770000000  0.5375830000000  0.5365500000000 1.0
C      1  0.4583440000000  0.5026880000000  0.5621060000000 1.0
C      1  0.4562970000000  0.4859790000000  0.4593630000000 1.0
C      1  0.4682350000000  0.5595680000000  0.4858270000000 1.0
C      1  0.4616640000000  0.5574980000000  0.5137660000000 1.0
C      1  0.4689450000000  0.5291150000000  0.5639490000000 1.0
C      1  0.5322930000000  0.5138540000000  0.5629280000000 1.0
C      1  0.5328960000000  0.4477480000000  0.4890100000000 1.0
C      1  0.5200240000000  0.5571540000000  0.4703370000000 1.0
C      1  0.4776270000000  0.4834910000000  0.4834790000000 1.0
C      1  0.4465200000000  0.5239120000000  0.5474230000000 1.0
C      1  0.5432800000000  0.4711400000000  0.5468790000000 1.0
C      1  0.4714610000000  0.4346870000000  0.4940200000000 1.0
C      1  0.4779020000000  0.4467350000000  0.4473350000000 1.0
C      1  0.5021980000000  0.5176720000000  0.4736870000000 1.0
C      1  0.4458950000000  0.4722010000000  0.5201200000000 1.0
C      1  0.5239020000000  0.4858880000000  0.5619380000000 1.0
C      1  0.4859220000000  0.5211110000000  0.5243110000000 1.0
C      1  0.5044230000000  0.4877660000000  0.4748310000000 1.0
C      1  0.5291440000000  0.4797280000000  0.4889330000000 1.0
C      1  0.5198320000000  0.5394710000000  0.5559700000000 1.0
C      1  0.5249850000000  0.5286550000000  0.4576110000000 1.0
C      1  0.4742910000000  0.4771800000000  0.5103220000000 1.0
C      1  0.4723010000000  0.5022280000000  0.4404800000000 1.0
C      1  0.5409900000000  0.4917420000000  0.4349160000000 1.0
C      1  0.5608690000000  0.5415650000000  0.4879920000000 1.0
C      1  0.4786910000000  0.4454490000000  0.5227720000000 1.0
C      1  0.4308650000000  0.4643000000000  0.4976820000000 1.0
C      1  0.4894690000000  0.4331450000000  0.4699730000000 1.0
C      1  0.4475530000000  0.4455910000000  0.4828560000000 1.0
C      1  0.4561700000000  0.5399580000000  0.4676420000000 1.0
C      1  0.5036820000000  0.5726550000000  0.5120070000000 1.0
C      1  0.5202860000000  0.5090620000000  0.4342710000000 1.0
C      1  0.4970810000000  0.4626100000000  0.4329310000000 1.0
C      1  0.5693830000000  0.5007400000000  0.5093850000000 1.0
C      1  0.5027520000000  0.4497590000000  0.5393510000000 1.0
C      1  0.5311990000000  0.4473450000000  0.5350530000000 1.0
C      1  0.5176150000000  0.4375280000000  0.4669690000000 1.0
C      1  0.4151430000000  0.4822690000000  0.4841550000000 1.0
C      1  0.4311260000000  0.5278090000000  0.4681540000000 1.0
C      1  0.5453100000000  0.4665420000000  0.4379680000000 1.0
C      1  0.5409650000000  0.5612690000000  0.4895000000000 1.0
C      1  0.4566020000000  0.4569120000000  0.5413730000000 1.0
C      1  0.5222400000000  0.4521580000000  0.4424580000000 1.0
C      1  0.5385690000000  0.5534960000000  0.5387600000000 1.0
C      1  0.5310350000000  0.5686140000000  0.5156250000000 1.0
C      1  0.4976590000000  0.4755090000000  0.5527920000000 1.0
C      1  0.4534460000000  0.4567150000000  0.4561980000000 1.0
C      1  0.4924930000000  0.4915590000000  0.5267410000000 1.0
C      1  0.4305690000000  0.4996850000000  0.4689690000000 1.0
C      1  0.4687690000000  0.4768450000000  0.5590970000000 1.0
C      1  0.4564110000000  0.5305410000000  0.5216300000000 1.0
C      1  0.4959900000000  0.5668250000000  0.4843300000000 1.0
C      1  0.5586400000000  0.5138920000000  0.5521700000000 1.0
C      1  0.5547900000000  0.4957630000000  0.4844700000000 1.0
C      1  0.4774430000000  0.5252990000000  0.4559920000000 1.0
C      1  0.4913850000000  0.5415200000000  0.5486250000000 1.0
C      1  0.5411110000000  0.4356610000000  0.5120360000000 1.0
C      1  0.5721500000000  0.5294880000000  0.5113310000000 1.0
C      1  0.5513400000000  0.5208420000000  0.4706330000000 1.0
C      1  0.5630730000000  0.4904710000000  0.5365080000000 1.0
END
