TITL C-27286-6456-7 0.36558047256478 125000 -512.715474192196 0 0 73 (C1) n - 1
REM
REM in /rds/project/t2_vol4/rds-t2-cs072/BORA/CARBON/from-Arr/AIRSS/Generating-Clusters/GAP-ML-2020/Only-C1/SD-CG/HFTN-CG
REM
REM
REM
REM
REM
REM ./C.cell (11c1c37f851c82e70ff6c80c92926a4b)
REM AIRSS Version 0.9.1 bugfix July 2018 build 013d7b7c2542+ Fri, 06 Jul 2018 19:26:36 +0100
REM compiler GCC version 9.3.0
REM options -cpp -mtune=generic -march=x86-64 -g -O0
REM seed 1582958453 -313328707 -859383796 788960780 -1394015160 -848745257 256051612 -535931728 1244727705 -1773751991 456841434 1775091055 -180234616 -186980200 -2020101028 1110005681 -1946486303 -716863839 -1120941824 545930518 -524178873 -1868863028 1606480804 -1679936518 -1346892138 -1349834500 -1424059317 89628888 -1094648137 619919352 442753308 1158710340 657651173
REM
CELL 1.54180   50.00000   50.00000   50.00000   90.00000   90.00000   90.00000
LATT -1
SFAC C  
C      1  0.4757120000000  0.5734340000000  0.5605120000000 1.0
C      1  0.5254390000000  0.5034020000000  0.5170790000000 1.0
C      1  0.5021570000000  0.5128910000000  0.4809580000000 1.0
C      1  0.4266980000000  0.4707330000000  0.4955080000000 1.0
C      1  0.5453350000000  0.5509920000000  0.5429290000000 1.0
C      1  0.4976700000000  0.5622460000000  0.5484380000000 1.0
C      1  0.4529150000000  0.4792000000000  0.4459270000000 1.0
C      1  0.5682490000000  0.4241330000000  0.5155940000000 1.0
C      1  0.4587440000000  0.5560550000000  0.5040520000000 1.0
C      1  0.5327870000000  0.4836300000000  0.4379660000000 1.0
C      1  0.5485070000000  0.5283060000000  0.5591240000000 1.0
C      1  0.4844320000000  0.4600880000000  0.5427470000000 1.0
C      1  0.5221600000000  0.5176620000000  0.5674460000000 1.0
C      1  0.5337560000000  0.5585450000000  0.5192040000000 1.0
C      1  0.4827160000000  0.5158990000000  0.5057160000000 1.0
C      1  0.4652060000000  0.5008460000000  0.5601920000000 1.0
C      1  0.4634580000000  0.4409600000000  0.5062680000000 1.0
C      1  0.5212000000000  0.5524790000000  0.4457130000000 1.0
C      1  0.4292640000000  0.5200170000000  0.4983790000000 1.0
C      1  0.4870770000000  0.4164600000000  0.4580930000000 1.0
C      1  0.5059220000000  0.4513870000000  0.5245230000000 1.0
C      1  0.5713940000000  0.4752410000000  0.5221330000000 1.0
C      1  0.5270290000000  0.5184730000000  0.4926850000000 1.0
C      1  0.4884220000000  0.4820570000000  0.5600630000000 1.0
C      1  0.4778250000000  0.4829310000000  0.4320640000000 1.0
C      1  0.5614260000000  0.4769140000000  0.4765640000000 1.0
C      1  0.4852770000000  0.5676630000000  0.5003560000000 1.0
C      1  0.5829510000000  0.5159810000000  0.4907470000000 1.0
C      1  0.5554710000000  0.4493120000000  0.5160660000000 1.0
C      1  0.4403940000000  0.5012700000000  0.4584890000000 1.0
C      1  0.4133200000000  0.4670350000000  0.5193070000000 1.0
C      1  0.4758560000000  0.5317620000000  0.4425430000000 1.0
C      1  0.5632540000000  0.4852040000000  0.5481760000000 1.0
C      1  0.5004720000000  0.5319710000000  0.5545520000000 1.0
C      1  0.4731800000000  0.5269900000000  0.5645590000000 1.0
C      1  0.5372700000000  0.4720500000000  0.5560290000000 1.0
C      1  0.4521060000000  0.5277860000000  0.4583800000000 1.0
C      1  0.5564500000000  0.5203260000000  0.4542750000000 1.0
C      1  0.4348640000000  0.5212280000000  0.5262390000000 1.0
C      1  0.5202990000000  0.4594500000000  0.4440910000000 1.0
C      1  0.5322990000000  0.4521370000000  0.5368940000000 1.0
C      1  0.4894120000000  0.5085950000000  0.4298100000000 1.0
C      1  0.4485090000000  0.5459880000000  0.5295040000000 1.0
C      1  0.5400460000000  0.5479440000000  0.4915550000000 1.0
C      1  0.4769270000000  0.4402160000000  0.4500700000000 1.0
C      1  0.4727820000000  0.4896590000000  0.5005130000000 1.0
C      1  0.5688970000000  0.5094860000000  0.5591360000000 1.0
C      1  0.5162100000000  0.4892440000000  0.5658930000000 1.0
C      1  0.5057510000000  0.5675200000000  0.5211950000000 1.0
C      1  0.4534120000000  0.4537430000000  0.4593030000000 1.0
C      1  0.4930690000000  0.4593810000000  0.4356920000000 1.0
C      1  0.5412410000000  0.4595560000000  0.4882010000000 1.0
C      1  0.5256960000000  0.4447020000000  0.4684870000000 1.0
C      1  0.5551910000000  0.4915440000000  0.4533920000000 1.0
C      1  0.5767560000000  0.4898280000000  0.4975210000000 1.0
C      1  0.4266630000000  0.4967090000000  0.4830680000000 1.0
C      1  0.4447150000000  0.5398270000000  0.4839950000000 1.0
C      1  0.4427890000000  0.4984200000000  0.5424940000000 1.0
C      1  0.4967010000000  0.5675530000000  0.4750500000000 1.0
C      1  0.4369510000000  0.4725270000000  0.5323050000000 1.0
C      1  0.5017650000000  0.5165750000000  0.5269520000000 1.0
C      1  0.4965730000000  0.4845150000000  0.4853670000000 1.0
C      1  0.5643640000000  0.5325840000000  0.4792070000000 1.0
C      1  0.4454220000000  0.4507900000000  0.4859110000000 1.0
C      1  0.5337810000000  0.5290580000000  0.4394810000000 1.0
C      1  0.5184240000000  0.4758610000000  0.5048420000000 1.0
C      1  0.4913450000000  0.4346490000000  0.5039590000000 1.0
C      1  0.5028020000000  0.4288390000000  0.4777020000000 1.0
C      1  0.4592610000000  0.5511640000000  0.5557490000000 1.0
C      1  0.5180120000000  0.5070850000000  0.4303180000000 1.0
C      1  0.4594600000000  0.4540160000000  0.5311260000000 1.0
C      1  0.5256160000000  0.5637650000000  0.4718690000000 1.0
C      1  0.4924920000000  0.5535130000000  0.4497500000000 1.0
END
