TITL C-27305-6421-3 175.11648024014 125000 -597.529416615911 0 0 87 (C1) n - 1
REM
REM in /rds/project/t2_vol4/rds-t2-cs072/BORA/CARBON/from-Arr/AIRSS/Generating-Clusters/GAP-ML-2020/Only-C1/SD-CG/HFTN-CG
REM
REM
REM
REM
REM
REM ./C.cell (11c1c37f851c82e70ff6c80c92926a4b)
REM AIRSS Version 0.9.1 bugfix July 2018 build 013d7b7c2542+ Fri, 06 Jul 2018 19:26:36 +0100
REM compiler GCC version 9.3.0
REM options -cpp -mtune=generic -march=x86-64 -g -O0
REM seed -759523785 -1030748603 2052329172 -1545419931 1068121087 1032616417 -824841074 -754459901 -1985317409 -910400334 -1931475199 2140685691 -1722701571 -1443706891 -2088782403 -910751581 1920309645 1861841723 635321485 -2113272688 -281991577 168029077 1881316918 -1565741763 119053332 58281180 1172848273 1060283379 1886405769 -1297458244 1496419246 -842005203 -1345875414
REM
CELL 1.54180   50.00000   50.00000   50.00000   90.00000   90.00000   90.00000
LATT -1
SFAC C  
C      1  0.4457360000000  0.4579720000000  0.5295730000000 1.0
C      1  0.4813150000000  0.4259540000000  0.5388340000000 1.0
C      1  0.5485810000000  0.4449020000000  0.4685960000000 1.0
C      1  0.5403150000000  0.5713410000000  0.4992030000000 1.0
C      1  0.5346630000000  0.4404750000000  0.5434260000000 1.0
C      1  0.4345160000000  0.5171980000000  0.5511070000000 1.0
C      1  0.4290570000000  0.5149580000000  0.4578910000000 1.0
C      1  0.4659430000000  0.5052890000000  0.5217420000000 1.0
C      1  0.5351480000000  0.4729460000000  0.4782630000000 1.0
C      1  0.5722800000000  0.4474130000000  0.4872570000000 1.0
C      1  0.4258860000000  0.5350440000000  0.5288570000000 1.0
C      1  0.5279530000000  0.4927920000000  0.4572040000000 1.0
C      1  0.4879280000000  0.4953100000000  0.4227060000000 1.0
C      1  0.5514780000000  0.5328780000000  0.5408370000000 1.0
C      1  0.5179030000000  0.5143940000000  0.5653150000000 1.0
C      1  0.4663230000000  0.5721710000000  0.4882710000000 1.0
C      1  0.4961850000000  0.4416190000000  0.4778870000000 1.0
C      1  0.5390040000000  0.5080980000000  0.5470430000000 1.0
C      1  0.5179530000000  0.5651900000000  0.4817320000000 1.0
C      1  0.5480560000000  0.4943280000000  0.4962790000000 1.0
C      1  0.5359400000000  0.4894130000000  0.4288720000000 1.0
C      1  0.5014500000000  0.4069720000000  0.5333180000000 1.0
C      1  0.4753020000000  0.5820870000000  0.5323470000000 1.0
C      1  0.4211270000000  0.4953900000000  0.4978480000000 1.0
C      1  0.5185290000000  0.4710970000000  0.5809440000000 1.0
C      1  0.4637250000000  0.5621530000000  0.5494680000000 1.0
C      1  0.5811480000000  0.4693820000000  0.4477310000000 1.0
C      1  0.5257990000000  0.4151550000000  0.5344940000000 1.0
C      1  0.4198790000000  0.5239310000000  0.5029270000000 1.0
C      1  0.4983060000000  0.5276590000000  0.5043100000000 1.0
C      1  0.5213570000000  0.4324440000000  0.4636730000000 1.0
C      1  0.5007360000000  0.5092150000000  0.4032580000000 1.0
C      1  0.4449340000000  0.4818730000000  0.5111180000000 1.0
C      1  0.5095030000000  0.4658550000000  0.4909070000000 1.0
C      1  0.5249320000000  0.5339740000000  0.4355430000000 1.0
C      1  0.4650590000000  0.5134320000000  0.5519810000000 1.0
C      1  0.5712670000000  0.4603400000000  0.5124410000000 1.0
C      1  0.5026730000000  0.4935980000000  0.5767640000000 1.0
C      1  0.5270340000000  0.5728600000000  0.5252140000000 1.0
C      1  0.5753280000000  0.5291890000000  0.5287980000000 1.0
C      1  0.5134340000000  0.5349070000000  0.4808950000000 1.0
C      1  0.4180300000000  0.4721300000000  0.5691710000000 1.0
C      1  0.4310090000000  0.5346550000000  0.4789700000000 1.0
C      1  0.5476820000000  0.5341470000000  0.4522910000000 1.0
C      1  0.4700920000000  0.5350420000000  0.4527730000000 1.0
C      1  0.4869130000000  0.4454600000000  0.5590350000000 1.0
C      1  0.4604970000000  0.4647070000000  0.4422010000000 1.0
C      1  0.5511340000000  0.4601120000000  0.5308870000000 1.0
C      1  0.4429960000000  0.4689510000000  0.4641710000000 1.0
C      1  0.4581680000000  0.5455960000000  0.4780280000000 1.0
C      1  0.5649410000000  0.5623980000000  0.4894840000000 1.0
C      1  0.5684310000000  0.5474760000000  0.4640110000000 1.0
C      1  0.4702110000000  0.5337600000000  0.5077410000000 1.0
C      1  0.5369340000000  0.5159700000000  0.4756020000000 1.0
C      1  0.5148010000000  0.4510870000000  0.5636100000000 1.0
C      1  0.4628020000000  0.4370390000000  0.5199270000000 1.0
C      1  0.4613920000000  0.4907700000000  0.4294560000000 1.0
C      1  0.4993000000000  0.4990320000000  0.4546250000000 1.0
C      1  0.4234330000000  0.4898910000000  0.4693010000000 1.0
C      1  0.5773850000000  0.4890180000000  0.4975990000000 1.0
C      1  0.4522040000000  0.5154520000000  0.4412890000000 1.0
C      1  0.4214980000000  0.4973330000000  0.5640770000000 1.0
C      1  0.4942030000000  0.5777330000000  0.4913080000000 1.0
C      1  0.4929140000000  0.4995150000000  0.5102050000000 1.0
C      1  0.5248130000000  0.5132230000000  0.4163980000000 1.0
C      1  0.5348470000000  0.4610840000000  0.4267390000000 1.0
C      1  0.4397460000000  0.5591360000000  0.5309990000000 1.0
C      1  0.5853550000000  0.4712610000000  0.4744530000000 1.0
C      1  0.5078210000000  0.5401210000000  0.5594430000000 1.0
C      1  0.4997610000000  0.5293990000000  0.4541430000000 1.0
C      1  0.5102380000000  0.4774380000000  0.5189100000000 1.0
C      1  0.5304070000000  0.5533150000000  0.5451980000000 1.0
C      1  0.4535260000000  0.5774570000000  0.5133690000000 1.0
C      1  0.4854190000000  0.4498010000000  0.4486260000000 1.0
C      1  0.5589620000000  0.4536050000000  0.4416320000000 1.0
C      1  0.4707270000000  0.4423830000000  0.4935500000000 1.0
C      1  0.4674540000000  0.4646860000000  0.5648870000000 1.0
C      1  0.5000220000000  0.5821670000000  0.5191310000000 1.0
C      1  0.5855470000000  0.5171760000000  0.5061100000000 1.0
C      1  0.4755840000000  0.4914800000000  0.5694160000000 1.0
C      1  0.4878700000000  0.4866900000000  0.4820790000000 1.0
C      1  0.4791820000000  0.5400840000000  0.5569200000000 1.0
C      1  0.4402630000000  0.4600490000000  0.5570140000000 1.0
C      1  0.4604050000000  0.4697880000000  0.4869190000000 1.0
C      1  0.5126690000000  0.4451050000000  0.4389480000000 1.0
C      1  0.5374990000000  0.4865660000000  0.5261290000000 1.0
C      1  0.5812270000000  0.5395200000000  0.4883530000000 1.0
END
