TITL C-27286-6456-5 -210.862582095583 125000 -508.045704409757 0 0 75 (C1) n - 1
REM
REM in /rds/project/t2_vol4/rds-t2-cs072/BORA/CARBON/from-Arr/AIRSS/Generating-Clusters/GAP-ML-2020/Only-C1/SD-CG/HFTN-CG
REM
REM
REM
REM
REM
REM ./C.cell (11c1c37f851c82e70ff6c80c92926a4b)
REM AIRSS Version 0.9.1 bugfix July 2018 build 013d7b7c2542+ Fri, 06 Jul 2018 19:26:36 +0100
REM compiler GCC version 9.3.0
REM options -cpp -mtune=generic -march=x86-64 -g -O0
REM seed -1111594167 451298429 1912259170 1343077233 1631260674 1684869820 983671173 -1544876751 217825551 -679375924 -1403631235 -1079992518 1891619555 919905527 -1978051178 -1247244979 2074087805 -1124480118 1786523373 1659790178 1516459978 -371630563 -237204507 -512309058 -1979410164 49583758 2074876358 506684066 1086196486 -1645775711 987000 -281660294 586801945
REM
CELL 1.54180   50.00000   50.00000   50.00000   90.00000   90.00000   90.00000
LATT -1
SFAC C  
C      1  0.5413010000000  0.5582790000000  0.5064820000000 1.0
C      1  0.5551840000000  0.5234130000000  0.4675350000000 1.0
C      1  0.4379550000000  0.4798580000000  0.5378880000000 1.0
C      1  0.4379300000000  0.5434690000000  0.4971180000000 1.0
C      1  0.5687940000000  0.4777320000000  0.4846690000000 1.0
C      1  0.5730940000000  0.5329320000000  0.4880480000000 1.0
C      1  0.5024970000000  0.4737010000000  0.5296350000000 1.0
C      1  0.5323260000000  0.5391760000000  0.4557470000000 1.0
C      1  0.5153000000000  0.4965460000000  0.4427990000000 1.0
C      1  0.5039860000000  0.5533420000000  0.5316670000000 1.0
C      1  0.5239190000000  0.5345430000000  0.5174400000000 1.0
C      1  0.5395940000000  0.4738860000000  0.5686810000000 1.0
C      1  0.5742160000000  0.4965790000000  0.5063980000000 1.0
C      1  0.5502940000000  0.5357760000000  0.5496690000000 1.0
C      1  0.4211510000000  0.4752880000000  0.4926720000000 1.0
C      1  0.5851030000000  0.5206480000000  0.5125500000000 1.0
C      1  0.4431410000000  0.4563740000000  0.4986180000000 1.0
C      1  0.5726690000000  0.5399040000000  0.5318110000000 1.0
C      1  0.5172500000000  0.4928040000000  0.5494780000000 1.0
C      1  0.5484840000000  0.4936300000000  0.5194990000000 1.0
C      1  0.5177620000000  0.5240640000000  0.4362060000000 1.0
C      1  0.5375710000000  0.4792910000000  0.4463870000000 1.0
C      1  0.4638070000000  0.5518020000000  0.4544290000000 1.0
C      1  0.5232230000000  0.5732520000000  0.4918910000000 1.0
C      1  0.4992250000000  0.4144060000000  0.4985170000000 1.0
C      1  0.4660580000000  0.4973450000000  0.4448560000000 1.0
C      1  0.5573660000000  0.4542960000000  0.5005150000000 1.0
C      1  0.4916020000000  0.4941700000000  0.4583040000000 1.0
C      1  0.4715530000000  0.5155270000000  0.4213770000000 1.0
C      1  0.5230560000000  0.4828750000000  0.5885740000000 1.0
C      1  0.5372230000000  0.4342120000000  0.4983800000000 1.0
C      1  0.5260480000000  0.4548210000000  0.4466850000000 1.0
C      1  0.4777700000000  0.4503470000000  0.4630370000000 1.0
C      1  0.4567880000000  0.5069530000000  0.4929780000000 1.0
C      1  0.4245200000000  0.4864960000000  0.4664710000000 1.0
C      1  0.4649890000000  0.4792620000000  0.4978590000000 1.0
C      1  0.5362110000000  0.5130440000000  0.5376020000000 1.0
C      1  0.4948920000000  0.5313730000000  0.4210490000000 1.0
C      1  0.5088240000000  0.5171480000000  0.4989630000000 1.0
C      1  0.4724350000000  0.4215670000000  0.5031730000000 1.0
C      1  0.5058400000000  0.4383830000000  0.4555730000000 1.0
C      1  0.4327830000000  0.4659170000000  0.4487250000000 1.0
C      1  0.5585380000000  0.4925740000000  0.4627000000000 1.0
C      1  0.4338140000000  0.5172970000000  0.5088940000000 1.0
C      1  0.5068770000000  0.5449890000000  0.5770570000000 1.0
C      1  0.4972550000000  0.4438180000000  0.5338830000000 1.0
C      1  0.4875050000000  0.4742570000000  0.4801660000000 1.0
C      1  0.5166500000000  0.4245030000000  0.4783060000000 1.0
C      1  0.4778540000000  0.4892300000000  0.5250440000000 1.0
C      1  0.4460460000000  0.4528180000000  0.5282500000000 1.0
C      1  0.4698620000000  0.4365120000000  0.5288050000000 1.0
C      1  0.4683360000000  0.5224220000000  0.5552070000000 1.0
C      1  0.4596370000000  0.4670310000000  0.4453420000000 1.0
C      1  0.4429250000000  0.5386140000000  0.4684390000000 1.0
C      1  0.4593960000000  0.4960030000000  0.5468950000000 1.0
C      1  0.4885500000000  0.5235710000000  0.5758380000000 1.0
C      1  0.5095740000000  0.4725690000000  0.4988870000000 1.0
C      1  0.5016760000000  0.5749320000000  0.5110940000000 1.0
C      1  0.4219960000000  0.4927170000000  0.5159910000000 1.0
C      1  0.5588550000000  0.4617340000000  0.5546310000000 1.0
C      1  0.5154970000000  0.4265160000000  0.5182730000000 1.0
C      1  0.4775700000000  0.5721460000000  0.4971720000000 1.0
C      1  0.4450020000000  0.5088790000000  0.4643680000000 1.0
C      1  0.5042180000000  0.4987390000000  0.5758370000000 1.0
C      1  0.5261360000000  0.4944690000000  0.4973950000000 1.0
C      1  0.4756450000000  0.5399610000000  0.5307210000000 1.0
C      1  0.4817070000000  0.5159620000000  0.5091220000000 1.0
C      1  0.5233470000000  0.5517770000000  0.5570960000000 1.0
C      1  0.4848970000000  0.5631380000000  0.4698060000000 1.0
C      1  0.5682060000000  0.5550680000000  0.5068760000000 1.0
C      1  0.4600110000000  0.4364200000000  0.4832800000000 1.0
C      1  0.5554460000000  0.4663590000000  0.5271380000000 1.0
C      1  0.5146370000000  0.5607400000000  0.4676780000000 1.0
C      1  0.4703120000000  0.5428810000000  0.4276530000000 1.0
C      1  0.4582900000000  0.5569220000000  0.5121990000000 1.0
END
