TITL C-27301-6531-5 -0.243722468987372 125000 -739.878079852064 0 0 107 (C1) n - 1
REM
REM in /rds/project/t2_vol4/rds-t2-cs072/BORA/CARBON/from-Arr/AIRSS/Generating-Clusters/GAP-ML-2020/Only-C1/SD-CG/HFTN-CG
REM
REM
REM
REM
REM
REM ./C.cell (11c1c37f851c82e70ff6c80c92926a4b)
REM AIRSS Version 0.9.1 bugfix July 2018 build 013d7b7c2542+ Fri, 06 Jul 2018 19:26:36 +0100
REM compiler GCC version 9.3.0
REM options -cpp -mtune=generic -march=x86-64 -g -O0
REM seed -1741897870 1356712821 -938032249 -1391141541 499156092 1994067149 -1245915463 1182994514 1443430975 424813863 1864297386 -1691821907 2079284712 529134200 -1784410331 -1949865469 722850709 -682571014 -1314312435 -290730442 78529855 -211644140 1629122605 -1838687829 -372535573 -522835800 -1737951395 -588482314 478662217 -352430367 -906442583 -245661508 845326959
REM
CELL 1.54180   50.00000   50.00000   50.00000   90.00000   90.00000   90.00000
LATT -1
SFAC C  
C      1  0.4415740000000  0.5361430000000  0.4426470000000 1.0
C      1  0.5798220000000  0.5505350000000  0.5242980000000 1.0
C      1  0.4846850000000  0.4069250000000  0.5297660000000 1.0
C      1  0.5535560000000  0.4357190000000  0.4987500000000 1.0
C      1  0.5696180000000  0.5214780000000  0.5273070000000 1.0
C      1  0.5023930000000  0.5395910000000  0.5671210000000 1.0
C      1  0.4906630000000  0.4384660000000  0.4221540000000 1.0
C      1  0.5647640000000  0.5692040000000  0.5161020000000 1.0
C      1  0.4627440000000  0.4181660000000  0.4880790000000 1.0
C      1  0.4352280000000  0.4542120000000  0.4891350000000 1.0
C      1  0.5105430000000  0.5662140000000  0.4301790000000 1.0
C      1  0.4887650000000  0.4586870000000  0.4670510000000 1.0
C      1  0.4353500000000  0.4802720000000  0.5611250000000 1.0
C      1  0.5807290000000  0.4951780000000  0.5386920000000 1.0
C      1  0.5351450000000  0.4177870000000  0.5108740000000 1.0
C      1  0.5514150000000  0.4658350000000  0.5666350000000 1.0
C      1  0.5526460000000  0.4767610000000  0.4346290000000 1.0
C      1  0.4873140000000  0.4074970000000  0.5005710000000 1.0
C      1  0.4707280000000  0.5409160000000  0.5091800000000 1.0
C      1  0.4846600000000  0.5895550000000  0.4673690000000 1.0
C      1  0.5846000000000  0.4870090000000  0.4921800000000 1.0
C      1  0.5003980000000  0.4354510000000  0.4522150000000 1.0
C      1  0.4771690000000  0.5497190000000  0.5545720000000 1.0
C      1  0.5031240000000  0.4222980000000  0.5466560000000 1.0
C      1  0.4363330000000  0.5616590000000  0.4829160000000 1.0
C      1  0.5604670000000  0.4558070000000  0.4542660000000 1.0
C      1  0.4558880000000  0.4918190000000  0.5761120000000 1.0
C      1  0.5349820000000  0.5390010000000  0.4788120000000 1.0
C      1  0.5295290000000  0.4259090000000  0.5375150000000 1.0
C      1  0.4391000000000  0.4520330000000  0.5560150000000 1.0
C      1  0.4254230000000  0.5203260000000  0.4602630000000 1.0
C      1  0.4906630000000  0.4430470000000  0.5624070000000 1.0
C      1  0.5033000000000  0.5146690000000  0.5809760000000 1.0
C      1  0.4256680000000  0.4684830000000  0.4483440000000 1.0
C      1  0.5652830000000  0.5092390000000  0.4986820000000 1.0
C      1  0.4662740000000  0.4525390000000  0.5505280000000 1.0
C      1  0.4587090000000  0.4062960000000  0.5398060000000 1.0
C      1  0.5290170000000  0.6005990000000  0.4700420000000 1.0
C      1  0.5271780000000  0.4930500000000  0.4319160000000 1.0
C      1  0.5482800000000  0.4354530000000  0.4701000000000 1.0
C      1  0.5415520000000  0.4890870000000  0.5063620000000 1.0
C      1  0.4720640000000  0.5857740000000  0.5159790000000 1.0
C      1  0.4705980000000  0.5275630000000  0.4819660000000 1.0
C      1  0.5257350000000  0.5734020000000  0.5429580000000 1.0
C      1  0.4269420000000  0.4920990000000  0.4627570000000 1.0
C      1  0.5021760000000  0.5114680000000  0.5240190000000 1.0
C      1  0.4842080000000  0.4873770000000  0.4575980000000 1.0
C      1  0.4840010000000  0.4939840000000  0.5718810000000 1.0
C      1  0.5601290000000  0.5271310000000  0.4765000000000 1.0
C      1  0.5446930000000  0.5230360000000  0.5466370000000 1.0
C      1  0.5221520000000  0.5986270000000  0.4964800000000 1.0
C      1  0.5360190000000  0.5765600000000  0.5144920000000 1.0
C      1  0.5288730000000  0.5480750000000  0.4210730000000 1.0
C      1  0.5145760000000  0.4103580000000  0.4916650000000 1.0
C      1  0.5165550000000  0.4718820000000  0.5396070000000 1.0
C      1  0.4550460000000  0.4243790000000  0.4602730000000 1.0
C      1  0.4342440000000  0.4452350000000  0.4617950000000 1.0
C      1  0.5125030000000  0.5845500000000  0.4539120000000 1.0
C      1  0.5731590000000  0.4944220000000  0.4452980000000 1.0
C      1  0.5416920000000  0.4529620000000  0.5413290000000 1.0
C      1  0.4259810000000  0.4967160000000  0.5407880000000 1.0
C      1  0.5520240000000  0.5103940000000  0.5719970000000 1.0
C      1  0.5013130000000  0.5653250000000  0.4760010000000 1.0
C      1  0.4218490000000  0.5367470000000  0.4849980000000 1.0
C      1  0.4324320000000  0.5241780000000  0.5363350000000 1.0
C      1  0.4453690000000  0.4331980000000  0.5050730000000 1.0
C      1  0.5040770000000  0.4593840000000  0.4912590000000 1.0
C      1  0.5168090000000  0.5261950000000  0.4605680000000 1.0
C      1  0.4198280000000  0.5244990000000  0.5094680000000 1.0
C      1  0.4668120000000  0.5758340000000  0.4488860000000 1.0
C      1  0.4774820000000  0.5024430000000  0.5423830000000 1.0
C      1  0.4710790000000  0.4981970000000  0.4833590000000 1.0
C      1  0.5287920000000  0.5026040000000  0.5864750000000 1.0
C      1  0.4617910000000  0.5292980000000  0.5379540000000 1.0
C      1  0.4945230000000  0.4619160000000  0.4103430000000 1.0
C      1  0.5193930000000  0.4842700000000  0.4869070000000 1.0
C      1  0.4553480000000  0.5665010000000  0.5041660000000 1.0
C      1  0.4786380000000  0.5019820000000  0.4307000000000 1.0
C      1  0.5034340000000  0.4684570000000  0.5679170000000 1.0
C      1  0.4912470000000  0.5955600000000  0.4962750000000 1.0
C      1  0.4667720000000  0.5286360000000  0.4300290000000 1.0
C      1  0.5034780000000  0.5877210000000  0.5492900000000 1.0
C      1  0.5199030000000  0.5545660000000  0.4979640000000 1.0
C      1  0.4948110000000  0.4673760000000  0.5175690000000 1.0
C      1  0.5577260000000  0.4593490000000  0.5166090000000 1.0
C      1  0.5004720000000  0.4876060000000  0.4163760000000 1.0
C      1  0.4400990000000  0.4842740000000  0.4898020000000 1.0
C      1  0.4827750000000  0.5543170000000  0.4365200000000 1.0
C      1  0.5831430000000  0.4748290000000  0.5185440000000 1.0
C      1  0.4761270000000  0.4232380000000  0.4408600000000 1.0
C      1  0.4942060000000  0.4939800000000  0.5017160000000 1.0
C      1  0.5686110000000  0.4880880000000  0.5631880000000 1.0
C      1  0.5277420000000  0.4995670000000  0.5314270000000 1.0
C      1  0.4230450000000  0.4959960000000  0.5119540000000 1.0
C      1  0.4466510000000  0.4311150000000  0.5345150000000 1.0
C      1  0.4437650000000  0.5624660000000  0.4556000000000 1.0
C      1  0.5135790000000  0.4962600000000  0.4605500000000 1.0
C      1  0.4910730000000  0.5412690000000  0.4637230000000 1.0
C      1  0.4797790000000  0.5764600000000  0.5430030000000 1.0
C      1  0.5622040000000  0.5192930000000  0.4494150000000 1.0
C      1  0.5003050000000  0.5393790000000  0.5146820000000 1.0
C      1  0.5285710000000  0.4746360000000  0.5822910000000 1.0
C      1  0.5796110000000  0.4757150000000  0.4668990000000 1.0
C      1  0.4708670000000  0.4752170000000  0.5314580000000 1.0
C      1  0.5359180000000  0.5234310000000  0.4340020000000 1.0
C      1  0.5273950000000  0.5475020000000  0.5548870000000 1.0
C      1  0.5225080000000  0.4224990000000  0.4667100000000 1.0
END
