TITL C-2722-5076-2 -0.261475999038783 125000 -516.326120761241 0 0 75 (C1) n - 1
REM
REM in /rds/project/t2_vol4/rds-t2-cs072/BORA/CARBON/from-Arr/AIRSS/Generating-Clusters/GAP-ML-2020/Only-C1/SD-CG/HFTN-CG
REM
REM
REM
REM
REM
REM ./C.cell (11c1c37f851c82e70ff6c80c92926a4b)
REM AIRSS Version 0.9.1 bugfix July 2018 build 013d7b7c2542+ Fri, 06 Jul 2018 19:26:36 +0100
REM compiler GCC version 9.3.0
REM options -cpp -mtune=generic -march=x86-64 -g -O0
REM seed -840839455 219237812 1267893931 -1262002758 -1322304096 1661059215 731279612 960706209 -1385511642 -397345667 -927333374 -1730610636 -1767276181 1355339460 -1111898154 2003055592 -312901986 -1153244224 -236218252 -111417689 -2037006528 -1609061872 -204359019 1383722868 1148525008 765157069 -1391461863 -783423182 1593318979 36990577 -1452531412 -1671265950 -1997543807
REM
CELL 1.54180   50.00000   50.00000   50.00000   90.00000   90.00000   90.00000
LATT -1
SFAC C  
C      1  0.5364130000000  0.5669840000000  0.5324290000000 1.0
C      1  0.4714500000000  0.4275660000000  0.5021140000000 1.0
C      1  0.5131150000000  0.5811900000000  0.5344030000000 1.0
C      1  0.5352380000000  0.5026390000000  0.4593390000000 1.0
C      1  0.5191360000000  0.4836800000000  0.4399730000000 1.0
C      1  0.4688820000000  0.4843570000000  0.4665980000000 1.0
C      1  0.4774010000000  0.5736350000000  0.4878470000000 1.0
C      1  0.5395180000000  0.5113460000000  0.5352430000000 1.0
C      1  0.5692880000000  0.5391760000000  0.5387230000000 1.0
C      1  0.4854920000000  0.4326660000000  0.4785050000000 1.0
C      1  0.5179730000000  0.4817970000000  0.5718560000000 1.0
C      1  0.5620680000000  0.4936250000000  0.4722130000000 1.0
C      1  0.5058230000000  0.5788040000000  0.4811790000000 1.0
C      1  0.4729800000000  0.5057930000000  0.4883180000000 1.0
C      1  0.5107200000000  0.4580510000000  0.4466980000000 1.0
C      1  0.5566610000000  0.4532450000000  0.5174150000000 1.0
C      1  0.4463730000000  0.4709460000000  0.5064230000000 1.0
C      1  0.4282110000000  0.5022540000000  0.4893630000000 1.0
C      1  0.5315310000000  0.5643660000000  0.4847230000000 1.0
C      1  0.4839580000000  0.5662060000000  0.4422620000000 1.0
C      1  0.5253190000000  0.5296360000000  0.5550540000000 1.0
C      1  0.5363080000000  0.4488240000000  0.5378740000000 1.0
C      1  0.5386860000000  0.4695140000000  0.5574110000000 1.0
C      1  0.4864480000000  0.5075020000000  0.5710790000000 1.0
C      1  0.4689610000000  0.4964960000000  0.4380670000000 1.0
C      1  0.5511900000000  0.4367140000000  0.4952560000000 1.0
C      1  0.5664300000000  0.4799280000000  0.5194160000000 1.0
C      1  0.4656950000000  0.4420400000000  0.5403880000000 1.0
C      1  0.5346900000000  0.5477820000000  0.5083460000000 1.0
C      1  0.4762060000000  0.5252600000000  0.5524590000000 1.0
C      1  0.5117290000000  0.4685990000000  0.4886330000000 1.0
C      1  0.5471210000000  0.5503990000000  0.5533900000000 1.0
C      1  0.5085710000000  0.5312170000000  0.5127770000000 1.0
C      1  0.5293200000000  0.5294960000000  0.4450640000000 1.0
C      1  0.5579250000000  0.5266040000000  0.5157260000000 1.0
C      1  0.4410540000000  0.4777710000000  0.4761090000000 1.0
C      1  0.5670010000000  0.4681170000000  0.4635340000000 1.0
C      1  0.5068750000000  0.5252270000000  0.4275920000000 1.0
C      1  0.5534930000000  0.4449610000000  0.4676110000000 1.0
C      1  0.4460670000000  0.4774980000000  0.4298250000000 1.0
C      1  0.5176570000000  0.4962990000000  0.4873530000000 1.0
C      1  0.4251230000000  0.4898430000000  0.5145540000000 1.0
C      1  0.4503300000000  0.5397370000000  0.4616700000000 1.0
C      1  0.4978600000000  0.5189810000000  0.4875050000000 1.0
C      1  0.4525710000000  0.5400110000000  0.5128550000000 1.0
C      1  0.5083920000000  0.5735430000000  0.4527440000000 1.0
C      1  0.5153140000000  0.5104060000000  0.5755870000000 1.0
C      1  0.5273710000000  0.4374990000000  0.4562540000000 1.0
C      1  0.5145250000000  0.4327970000000  0.5246780000000 1.0
C      1  0.4467660000000  0.5249870000000  0.4869380000000 1.0
C      1  0.4562020000000  0.5183320000000  0.5329100000000 1.0
C      1  0.4693080000000  0.5633330000000  0.5131080000000 1.0
C      1  0.5553360000000  0.4886450000000  0.5443160000000 1.0
C      1  0.4902250000000  0.5665490000000  0.5331330000000 1.0
C      1  0.4329750000000  0.5009140000000  0.5401800000000 1.0
C      1  0.4902190000000  0.4803920000000  0.5594170000000 1.0
C      1  0.4324870000000  0.4678920000000  0.4495050000000 1.0
C      1  0.4833020000000  0.5414210000000  0.4286360000000 1.0
C      1  0.5270880000000  0.4224770000000  0.4998590000000 1.0
C      1  0.5305470000000  0.5556690000000  0.4568080000000 1.0
C      1  0.4863090000000  0.4258180000000  0.5281020000000 1.0
C      1  0.4953510000000  0.4846280000000  0.5280620000000 1.0
C      1  0.5168800000000  0.5029670000000  0.5183000000000 1.0
C      1  0.4625360000000  0.5258050000000  0.4395070000000 1.0
C      1  0.4886780000000  0.4604310000000  0.4671100000000 1.0
C      1  0.4642730000000  0.5648490000000  0.4637470000000 1.0
C      1  0.4983140000000  0.5392140000000  0.5418740000000 1.0
C      1  0.5049380000000  0.4607320000000  0.5149960000000 1.0
C      1  0.5122410000000  0.4225150000000  0.4760740000000 1.0
C      1  0.4982140000000  0.4982140000000  0.4284730000000 1.0
C      1  0.4694330000000  0.4929200000000  0.5149930000000 1.0
C      1  0.5678510000000  0.5016630000000  0.5004860000000 1.0
C      1  0.4651420000000  0.4641870000000  0.5582920000000 1.0
C      1  0.4513180000000  0.4438560000000  0.5153330000000 1.0
C      1  0.4436030000000  0.4805650000000  0.5554110000000 1.0
END
