TITL C-2715-4098-7 3.01663635273062 125000 -1033.42409983281 0 0 146 (C1) n - 1
REM
REM in /rds/project/t2_vol4/rds-t2-cs072/BORA/CARBON/from-Arr/AIRSS/Generating-Clusters/GAP-ML-2020/Only-C1/SD-CG/HFTN-CG
REM
REM
REM
REM
REM
REM ./C.cell (11c1c37f851c82e70ff6c80c92926a4b)
REM AIRSS Version 0.9.1 bugfix July 2018 build 013d7b7c2542+ Fri, 06 Jul 2018 19:26:36 +0100
REM compiler GCC version 9.3.0
REM options -cpp -mtune=generic -march=x86-64 -g -O0
REM seed 197557596 -197957593 272911295 -165575513 137142639 -1210090319 721744339 868748020 2125759006 1142731599 -1478458823 1306552772 -245236505 780891666 -953221030 -1609338070 1945843861 -1211169151 259712454 -69486627 947280058 1916390254 1921142669 -950971429 1138300841 -1566513392 -1623799425 -1384282045 -1901305120 1831680096 -13694388 -1289450265 -533220410
REM
CELL 1.54180   50.00000   50.00000   50.00000   90.00000   90.00000   90.00000
LATT -1
SFAC C  
C      1  0.5518470000000  0.4470830000000  0.4487450000000 1.0
C      1  0.4562480000000  0.4210050000000  0.5045350000000 1.0
C      1  0.5559030000000  0.5058480000000  0.4970830000000 1.0
C      1  0.4870120000000  0.5568030000000  0.4688240000000 1.0
C      1  0.4596960000000  0.4939060000000  0.5243890000000 1.0
C      1  0.5724320000000  0.5526300000000  0.5412820000000 1.0
C      1  0.5635900000000  0.5123950000000  0.4171180000000 1.0
C      1  0.5393050000000  0.5261760000000  0.5099480000000 1.0
C      1  0.5501420000000  0.5723290000000  0.5387480000000 1.0
C      1  0.5883660000000  0.4816990000000  0.4476170000000 1.0
C      1  0.5090800000000  0.5185300000000  0.4530430000000 1.0
C      1  0.4890310000000  0.4627390000000  0.4676180000000 1.0
C      1  0.4813390000000  0.4014180000000  0.5091280000000 1.0
C      1  0.4632810000000  0.4304050000000  0.4351130000000 1.0
C      1  0.4834590000000  0.5396790000000  0.4082690000000 1.0
C      1  0.4243010000000  0.4596330000000  0.4445900000000 1.0
C      1  0.5032440000000  0.5789520000000  0.5318980000000 1.0
C      1  0.4904640000000  0.4740930000000  0.4400770000000 1.0
C      1  0.4890690000000  0.5121600000000  0.4008710000000 1.0
C      1  0.5714140000000  0.5358050000000  0.4320420000000 1.0
C      1  0.4053230000000  0.4683330000000  0.5309580000000 1.0
C      1  0.4227940000000  0.4837970000000  0.4266740000000 1.0
C      1  0.3994470000000  0.5311420000000  0.4685000000000 1.0
C      1  0.4689000000000  0.5019220000000  0.5946650000000 1.0
C      1  0.4021680000000  0.4895170000000  0.5118750000000 1.0
C      1  0.5218420000000  0.5866600000000  0.4480100000000 1.0
C      1  0.5528040000000  0.4394850000000  0.5683060000000 1.0
C      1  0.5209250000000  0.4073360000000  0.5451940000000 1.0
C      1  0.5133840000000  0.5576880000000  0.5746910000000 1.0
C      1  0.4618010000000  0.5468640000000  0.4255680000000 1.0
C      1  0.4847220000000  0.5502440000000  0.5784960000000 1.0
C      1  0.4657710000000  0.4992030000000  0.4037560000000 1.0
C      1  0.5138360000000  0.4900120000000  0.6014720000000 1.0
C      1  0.4976060000000  0.5215560000000  0.5296020000000 1.0
C      1  0.4342850000000  0.4238580000000  0.5272120000000 1.0
C      1  0.5260380000000  0.4307380000000  0.5617360000000 1.0
C      1  0.4280680000000  0.5594920000000  0.4699520000000 1.0
C      1  0.5229570000000  0.5731580000000  0.5518160000000 1.0
C      1  0.5564100000000  0.5284640000000  0.5833880000000 1.0
C      1  0.5031830000000  0.3967630000000  0.4911610000000 1.0
C      1  0.4750460000000  0.5343170000000  0.4875280000000 1.0
C      1  0.5065760000000  0.4917640000000  0.4901480000000 1.0
C      1  0.4672670000000  0.4444320000000  0.5219770000000 1.0
C      1  0.4082950000000  0.5078480000000  0.5535570000000 1.0
C      1  0.5130960000000  0.5713250000000  0.5058820000000 1.0
C      1  0.5013490000000  0.4134260000000  0.4680350000000 1.0
C      1  0.5517430000000  0.4954170000000  0.4697070000000 1.0
C      1  0.5027910000000  0.4413640000000  0.4788880000000 1.0
C      1  0.4195510000000  0.4467960000000  0.5193200000000 1.0
C      1  0.5607190000000  0.5024800000000  0.5930310000000 1.0
C      1  0.5246860000000  0.4958520000000  0.4615770000000 1.0
C      1  0.5636860000000  0.4193650000000  0.5254470000000 1.0
C      1  0.5157940000000  0.5009350000000  0.4075230000000 1.0
C      1  0.4723960000000  0.5947910000000  0.4999300000000 1.0
C      1  0.4988390000000  0.5232370000000  0.5007570000000 1.0
C      1  0.4750190000000  0.5843170000000  0.5271990000000 1.0
C      1  0.5533280000000  0.5827930000000  0.5122550000000 1.0
C      1  0.5415440000000  0.5641850000000  0.4524800000000 1.0
C      1  0.4806680000000  0.4573470000000  0.5771140000000 1.0
C      1  0.5579180000000  0.4626330000000  0.5833780000000 1.0
C      1  0.4077410000000  0.5454100000000  0.5178860000000 1.0
C      1  0.5761840000000  0.4853690000000  0.5755380000000 1.0
C      1  0.4842880000000  0.4983830000000  0.5382310000000 1.0
C      1  0.5321480000000  0.5928770000000  0.4972980000000 1.0
C      1  0.5724960000000  0.5672160000000  0.4972270000000 1.0
C      1  0.5939490000000  0.4695040000000  0.5171250000000 1.0
C      1  0.4874170000000  0.4794770000000  0.5944000000000 1.0
C      1  0.4169740000000  0.4824920000000  0.4859900000000 1.0
C      1  0.5191190000000  0.4131060000000  0.4458370000000 1.0
C      1  0.4473330000000  0.5789340000000  0.4628110000000 1.0
C      1  0.4085670000000  0.5154910000000  0.5248870000000 1.0
C      1  0.5314220000000  0.3987830000000  0.4988370000000 1.0
C      1  0.5836220000000  0.5477480000000  0.5148960000000 1.0
C      1  0.5115260000000  0.4340620000000  0.4285540000000 1.0
C      1  0.4611670000000  0.5552140000000  0.5629210000000 1.0
C      1  0.5051370000000  0.5572100000000  0.4123290000000 1.0
C      1  0.4523670000000  0.5980800000000  0.4819840000000 1.0
C      1  0.5971340000000  0.5208310000000  0.4751170000000 1.0
C      1  0.5401100000000  0.4025920000000  0.5257380000000 1.0
C      1  0.4532380000000  0.4534070000000  0.5689630000000 1.0
C      1  0.5311800000000  0.4541110000000  0.4300480000000 1.0
C      1  0.5168940000000  0.5970130000000  0.4735560000000 1.0
C      1  0.5758020000000  0.4892790000000  0.4238010000000 1.0
C      1  0.6054580000000  0.4984160000000  0.4618380000000 1.0
C      1  0.5315930000000  0.5465400000000  0.4084110000000 1.0
C      1  0.4822490000000  0.5054530000000  0.4483130000000 1.0
C      1  0.5114130000000  0.5188070000000  0.6000660000000 1.0
C      1  0.5510490000000  0.4789070000000  0.5117560000000 1.0
C      1  0.4939530000000  0.4087530000000  0.5339010000000 1.0
C      1  0.5373200000000  0.5185510000000  0.4046850000000 1.0
C      1  0.4494800000000  0.4381720000000  0.5455210000000 1.0
C      1  0.5206770000000  0.4727540000000  0.5110080000000 1.0
C      1  0.4990130000000  0.5767290000000  0.4319200000000 1.0
C      1  0.5412400000000  0.4817460000000  0.5988170000000 1.0
C      1  0.4419720000000  0.5036940000000  0.4170850000000 1.0
C      1  0.5509250000000  0.5541130000000  0.4271980000000 1.0
C      1  0.5258640000000  0.5200330000000  0.5349850000000 1.0
C      1  0.4433960000000  0.4348530000000  0.4808910000000 1.0
C      1  0.5820300000000  0.5399880000000  0.4588050000000 1.0
C      1  0.5294640000000  0.5383010000000  0.5890460000000 1.0
C      1  0.5117950000000  0.4459030000000  0.5057100000000 1.0
C      1  0.5204530000000  0.5424460000000  0.4950550000000 1.0
C      1  0.5155980000000  0.5444140000000  0.4652390000000 1.0
C      1  0.4336620000000  0.4589830000000  0.4957160000000 1.0
C      1  0.5671200000000  0.5608810000000  0.4698920000000 1.0
C      1  0.4658680000000  0.5062210000000  0.4733810000000 1.0
C      1  0.5551730000000  0.4867290000000  0.5399400000000 1.0
C      1  0.4931150000000  0.4374000000000  0.5308930000000 1.0
C      1  0.4603800000000  0.4699960000000  0.5080710000000 1.0
C      1  0.5179870000000  0.4802950000000  0.4308340000000 1.0
C      1  0.4713770000000  0.5667980000000  0.4448300000000 1.0
C      1  0.5303960000000  0.4962520000000  0.5489170000000 1.0
C      1  0.5950810000000  0.4983510000000  0.5239570000000 1.0
C      1  0.4848870000000  0.5259610000000  0.5942970000000 1.0
C      1  0.5725860000000  0.4355230000000  0.5468140000000 1.0
C      1  0.5027220000000  0.4508020000000  0.5564990000000 1.0
C      1  0.3870000000000  0.5171650000000  0.4491580000000 1.0
C      1  0.5915630000000  0.4539300000000  0.5391040000000 1.0
C      1  0.4290130000000  0.5310130000000  0.4600190000000 1.0
C      1  0.4936300000000  0.5819800000000  0.4849710000000 1.0
C      1  0.4047190000000  0.4731270000000  0.4609620000000 1.0
C      1  0.4255040000000  0.5201010000000  0.5725980000000 1.0
C      1  0.5454080000000  0.4205560000000  0.4566970000000 1.0
C      1  0.5673930000000  0.4670420000000  0.4655480000000 1.0
C      1  0.4569150000000  0.5618090000000  0.5333010000000 1.0
C      1  0.4337160000000  0.4741150000000  0.5739810000000 1.0
C      1  0.3991450000000  0.4938960000000  0.4414450000000 1.0
C      1  0.4336590000000  0.5458920000000  0.5635450000000 1.0
C      1  0.4372520000000  0.5079890000000  0.4810080000000 1.0
C      1  0.4423360000000  0.4370470000000  0.4518610000000 1.0
C      1  0.5675380000000  0.4293320000000  0.4994970000000 1.0
C      1  0.5881840000000  0.5194830000000  0.5041250000000 1.0
C      1  0.5723190000000  0.4587080000000  0.4960200000000 1.0
C      1  0.4069920000000  0.5515200000000  0.4893240000000 1.0
C      1  0.4567260000000  0.5406450000000  0.5099690000000 1.0
C      1  0.5084760000000  0.4787300000000  0.5413870000000 1.0
C      1  0.5730090000000  0.5310070000000  0.5596330000000 1.0
C      1  0.4403550000000  0.5291840000000  0.4310970000000 1.0
C      1  0.4422900000000  0.4992950000000  0.5847910000000 1.0
C      1  0.4259180000000  0.5567420000000  0.5381430000000 1.0
C      1  0.5514210000000  0.4128180000000  0.4825070000000 1.0
C      1  0.4784550000000  0.4813630000000  0.4861850000000 1.0
C      1  0.4850380000000  0.4439450000000  0.4270370000000 1.0
C      1  0.4112610000000  0.4796820000000  0.5563790000000 1.0
C      1  0.5798000000000  0.5028150000000  0.5494700000000 1.0
C      1  0.4420550000000  0.5155750000000  0.5122650000000 1.0
END
