TITL C-2719-4509-9 -160.281938423388 125000 -554.551937786697 0 0 79 (C1) n - 1
REM
REM in /rds/project/t2_vol4/rds-t2-cs072/BORA/CARBON/from-Arr/AIRSS/Generating-Clusters/GAP-ML-2020/Only-C1/SD-CG/HFTN-CG
REM
REM
REM
REM
REM
REM ./C.cell (11c1c37f851c82e70ff6c80c92926a4b)
REM AIRSS Version 0.9.1 bugfix July 2018 build 013d7b7c2542+ Fri, 06 Jul 2018 19:26:36 +0100
REM compiler GCC version 9.3.0
REM options -cpp -mtune=generic -march=x86-64 -g -O0
REM seed -953672150 -769829401 -968504261 -455566713 -1178746676 1968021142 782502274 -1665629974 1385389774 2002151437 -421665447 -734337061 -1251692740 1097575361 1277405809 1384044809 -2115478948 -293750669 -165215933 -307627570 -1893399340 1186117517 1713610521 463560242 467586657 1947549393 2107590159 -1917719849 1733583494 1505665440 1803963720 -620596311 1060866823
REM
CELL 1.54180   50.00000   50.00000   50.00000   90.00000   90.00000   90.00000
LATT -1
SFAC C  
C      1  0.4674340000000  0.5148360000000  0.4357770000000 1.0
C      1  0.4731230000000  0.5403000000000  0.5595020000000 1.0
C      1  0.4839260000000  0.5604970000000  0.4899030000000 1.0
C      1  0.5727260000000  0.4867130000000  0.4927800000000 1.0
C      1  0.4572140000000  0.5153080000000  0.5584490000000 1.0
C      1  0.5653870000000  0.4788890000000  0.4648860000000 1.0
C      1  0.5256070000000  0.5698620000000  0.5078850000000 1.0
C      1  0.4933770000000  0.5081620000000  0.4772250000000 1.0
C      1  0.4425100000000  0.5364930000000  0.4721350000000 1.0
C      1  0.5036990000000  0.4641680000000  0.5689030000000 1.0
C      1  0.5164260000000  0.4305660000000  0.5222710000000 1.0
C      1  0.5478310000000  0.5552520000000  0.5183020000000 1.0
C      1  0.5064980000000  0.4778660000000  0.5082180000000 1.0
C      1  0.5445150000000  0.4342220000000  0.5282760000000 1.0
C      1  0.4480020000000  0.4579310000000  0.4669590000000 1.0
C      1  0.4881420000000  0.5301080000000  0.4967820000000 1.0
C      1  0.5662170000000  0.5102190000000  0.5102780000000 1.0
C      1  0.4874620000000  0.4353500000000  0.4762680000000 1.0
C      1  0.4319670000000  0.5242640000000  0.5454710000000 1.0
C      1  0.4789880000000  0.5426710000000  0.4354530000000 1.0
C      1  0.5118740000000  0.5005060000000  0.4193330000000 1.0
C      1  0.5571070000000  0.5001730000000  0.5367260000000 1.0
C      1  0.5173980000000  0.4587180000000  0.4357640000000 1.0
C      1  0.4566190000000  0.4753410000000  0.5291170000000 1.0
C      1  0.5150470000000  0.4375970000000  0.4780450000000 1.0
C      1  0.5309010000000  0.4440560000000  0.4554990000000 1.0
C      1  0.4648410000000  0.5658710000000  0.4420860000000 1.0
C      1  0.4886440000000  0.4653510000000  0.4366020000000 1.0
C      1  0.4686390000000  0.4919620000000  0.4873110000000 1.0
C      1  0.4415090000000  0.4874800000000  0.4705510000000 1.0
C      1  0.5673270000000  0.4736040000000  0.5366450000000 1.0
C      1  0.5064940000000  0.5254710000000  0.5178000000000 1.0
C      1  0.4841410000000  0.4484370000000  0.5536890000000 1.0
C      1  0.5141010000000  0.4934240000000  0.4853240000000 1.0
C      1  0.5125560000000  0.5675450000000  0.4826400000000 1.0
C      1  0.4638640000000  0.5559390000000  0.5369350000000 1.0
C      1  0.4227300000000  0.4865120000000  0.4942630000000 1.0
C      1  0.4405470000000  0.5447160000000  0.5268680000000 1.0
C      1  0.5110640000000  0.5122570000000  0.5713030000000 1.0
C      1  0.4617010000000  0.5585410000000  0.4685200000000 1.0
C      1  0.5070130000000  0.5721750000000  0.5292900000000 1.0
C      1  0.5233630000000  0.5574800000000  0.4583950000000 1.0
C      1  0.5027310000000  0.5001530000000  0.5296870000000 1.0
C      1  0.5689010000000  0.4326930000000  0.4818250000000 1.0
C      1  0.4852450000000  0.4931100000000  0.4272640000000 1.0
C      1  0.5076130000000  0.5455120000000  0.4373290000000 1.0
C      1  0.5304930000000  0.4985650000000  0.5525310000000 1.0
C      1  0.5580350000000  0.4507610000000  0.4635430000000 1.0
C      1  0.4813320000000  0.5693600000000  0.5193390000000 1.0
C      1  0.5496210000000  0.4548410000000  0.5480290000000 1.0
C      1  0.4460820000000  0.5131670000000  0.4551940000000 1.0
C      1  0.5230000000000  0.5255430000000  0.4254610000000 1.0
C      1  0.4731890000000  0.4505450000000  0.4559300000000 1.0
C      1  0.5637500000000  0.5376890000000  0.5016510000000 1.0
C      1  0.5004590000000  0.5387000000000  0.5663880000000 1.0
C      1  0.4372260000000  0.5304290000000  0.5004950000000 1.0
C      1  0.5318610000000  0.4814570000000  0.4271750000000 1.0
C      1  0.4454060000000  0.4463730000000  0.4929830000000 1.0
C      1  0.5535210000000  0.4937870000000  0.4426660000000 1.0
C      1  0.4735710000000  0.4394910000000  0.5019410000000 1.0
C      1  0.4160710000000  0.5101510000000  0.5074380000000 1.0
C      1  0.5298600000000  0.4702140000000  0.5608190000000 1.0
C      1  0.4895920000000  0.4333030000000  0.5287070000000 1.0
C      1  0.5219080000000  0.4511220000000  0.5030190000000 1.0
C      1  0.5481250000000  0.5221090000000  0.4388390000000 1.0
C      1  0.4635990000000  0.5149210000000  0.5060160000000 1.0
C      1  0.5503180000000  0.5451110000000  0.4564310000000 1.0
C      1  0.5412710000000  0.5492510000000  0.5443420000000 1.0
C      1  0.4341080000000  0.4656620000000  0.5100450000000 1.0
C      1  0.4615880000000  0.4653640000000  0.5561840000000 1.0
C      1  0.5666790000000  0.4381610000000  0.5077160000000 1.0
C      1  0.4774000000000  0.4699010000000  0.5060310000000 1.0
C      1  0.5764780000000  0.4653030000000  0.5112730000000 1.0
C      1  0.5689180000000  0.5462980000000  0.4758310000000 1.0
C      1  0.4685360000000  0.5028790000000  0.5318820000000 1.0
C      1  0.4098650000000  0.5130420000000  0.5344730000000 1.0
C      1  0.4930000000000  0.4902060000000  0.5776540000000 1.0
C      1  0.4656270000000  0.4900510000000  0.5728630000000 1.0
C      1  0.5164880000000  0.5579420000000  0.5525750000000 1.0
END
