TITL C-27308-6413-10 -0.0798914142622254 125000 -191.959434911758 0 0 29 (C1) n - 1
REM
REM in /rds/project/t2_vol4/rds-t2-cs072/BORA/CARBON/from-Arr/AIRSS/Generating-Clusters/GAP-ML-2020/Only-C1/SD-CG/HFTN-CG
REM
REM
REM
REM
REM
REM ./C.cell (11c1c37f851c82e70ff6c80c92926a4b)
REM AIRSS Version 0.9.1 bugfix July 2018 build 013d7b7c2542+ Fri, 06 Jul 2018 19:26:36 +0100
REM compiler GCC version 9.3.0
REM options -cpp -mtune=generic -march=x86-64 -g -O0
REM seed 1553151191 1730272196 1376603209 1458033743 1342656796 -1431494954 -1819686457 133852403 -1174913456 169041094 -1476925396 -518549798 627891529 -901181117 -9746305 -1840784382 -1896147377 740645208 -1671234066 1123993426 2114523361 -1537391897 733814491 702587003 -1374969020 -253137710 2118843554 -274000645 -799193719 1737184845 -540848730 -1128075662 -1864455532
REM
CELL 1.54180   50.00000   50.00000   50.00000   90.00000   90.00000   90.00000
LATT -1
SFAC C  
C      1  0.5052500000000  0.4929920000000  0.4997860000000 1.0
C      1  0.4623650000000  0.4971680000000  0.5059420000000 1.0
C      1  0.4738800000000  0.5552390000000  0.4891240000000 1.0
C      1  0.5264640000000  0.5239970000000  0.5223470000000 1.0
C      1  0.5341430000000  0.4737250000000  0.4990640000000 1.0
C      1  0.4927430000000  0.5333030000000  0.4825670000000 1.0
C      1  0.5447900000000  0.5242650000000  0.5014240000000 1.0
C      1  0.5185240000000  0.5324500000000  0.4691270000000 1.0
C      1  0.4965370000000  0.4939330000000  0.5413370000000 1.0
C      1  0.4503050000000  0.5147210000000  0.4882140000000 1.0
C      1  0.5410200000000  0.4828460000000  0.5455380000000 1.0
C      1  0.5303420000000  0.4658770000000  0.5261930000000 1.0
C      1  0.4785440000000  0.5123050000000  0.5264980000000 1.0
C      1  0.5405990000000  0.5439120000000  0.4823360000000 1.0
C      1  0.4841600000000  0.4540670000000  0.5134750000000 1.0
C      1  0.4739930000000  0.5110640000000  0.4742570000000 1.0
C      1  0.5245170000000  0.5036750000000  0.5412440000000 1.0
C      1  0.5013000000000  0.5220130000000  0.5091650000000 1.0
C      1  0.4622440000000  0.4694550000000  0.5016840000000 1.0
C      1  0.5242560000000  0.5046790000000  0.4676710000000 1.0
C      1  0.5007760000000  0.4693490000000  0.5288360000000 1.0
C      1  0.5430550000000  0.4985620000000  0.4884970000000 1.0
C      1  0.5100910000000  0.4823560000000  0.4592840000000 1.0
C      1  0.4722070000000  0.4643720000000  0.4756260000000 1.0
C      1  0.4547530000000  0.5425770000000  0.5037840000000 1.0
C      1  0.4608240000000  0.5343640000000  0.5306700000000 1.0
C      1  0.4938470000000  0.4492590000000  0.4870060000000 1.0
C      1  0.4814440000000  0.4861770000000  0.4605740000000 1.0
C      1  0.5170280000000  0.4613000000000  0.4787330000000 1.0
END
