TITL C-27304-6650-4 0.042682473853716 125000 -197.098554332088 0 0 30 (C1) n - 1
REM
REM in /rds/project/t2_vol4/rds-t2-cs072/BORA/CARBON/from-Arr/AIRSS/Generating-Clusters/GAP-ML-2020/Only-C1/SD-CG/HFTN-CG
REM
REM
REM
REM
REM
REM ./C.cell (11c1c37f851c82e70ff6c80c92926a4b)
REM AIRSS Version 0.9.1 bugfix July 2018 build 013d7b7c2542+ Fri, 06 Jul 2018 19:26:36 +0100
REM compiler GCC version 9.3.0
REM options -cpp -mtune=generic -march=x86-64 -g -O0
REM seed -1286898186 858014303 -3977915 1527582303 -377404065 226437877 -773093654 1182179627 -97976751 1469836 -1535938408 -1562268656 61180556 -745319316 -1126416618 -342471760 1234564074 1899514057 1658192017 276609510 -230324588 1120006814 -429291187 89130358 1170393973 -1252507700 1728535343 -683749094 816632036 1883930997 -792374118 -1108669622 -2042860244
REM
CELL 1.54180   50.00000   50.00000   50.00000   90.00000   90.00000   90.00000
LATT -1
SFAC C  
C      1  0.4988280000000  0.5104340000000  0.4639850000000 1.0
C      1  0.4646120000000  0.4495220000000  0.4895150000000 1.0
C      1  0.5108260000000  0.5528040000000  0.5230160000000 1.0
C      1  0.4900950000000  0.5371980000000  0.4703370000000 1.0
C      1  0.4792990000000  0.5223880000000  0.5466730000000 1.0
C      1  0.4764750000000  0.5310260000000  0.5714910000000 1.0
C      1  0.4528550000000  0.4711210000000  0.5010720000000 1.0
C      1  0.4793120000000  0.4896120000000  0.4673030000000 1.0
C      1  0.4569070000000  0.4951630000000  0.4839510000000 1.0
C      1  0.4610920000000  0.5073340000000  0.5289060000000 1.0
C      1  0.5265070000000  0.5048370000000  0.4704070000000 1.0
C      1  0.4600020000000  0.5172730000000  0.5018460000000 1.0
C      1  0.5546160000000  0.4561980000000  0.5181550000000 1.0
C      1  0.5438560000000  0.4682400000000  0.4961570000000 1.0
C      1  0.4858320000000  0.4603190000000  0.4710310000000 1.0
C      1  0.5097960000000  0.4492720000000  0.4659560000000 1.0
C      1  0.5067160000000  0.5275730000000  0.5309180000000 1.0
C      1  0.5358240000000  0.4566370000000  0.4683410000000 1.0
C      1  0.5428160000000  0.4911740000000  0.4522120000000 1.0
C      1  0.4978760000000  0.4682020000000  0.5437670000000 1.0
C      1  0.4727220000000  0.4615610000000  0.5448530000000 1.0
C      1  0.5164690000000  0.5725810000000  0.4830630000000 1.0
C      1  0.4575100000000  0.4788760000000  0.5285870000000 1.0
C      1  0.5213120000000  0.5036950000000  0.5243950000000 1.0
C      1  0.5065650000000  0.5591660000000  0.4637960000000 1.0
C      1  0.4736620000000  0.5388790000000  0.4928370000000 1.0
C      1  0.5322360000000  0.4946630000000  0.4983990000000 1.0
C      1  0.5172160000000  0.5738940000000  0.5099390000000 1.0
C      1  0.5494440000000  0.4673790000000  0.4448010000000 1.0
C      1  0.5187200000000  0.4829800000000  0.5442930000000 1.0
END
