TITL C-2712-4085-12 10.7030694536571 125000 -73.8212922179709 0 0 12 (C1) n - 1
REM
REM in /rds/project/t2_vol4/rds-t2-cs072/BORA/CARBON/from-Arr/AIRSS/Generating-Clusters/GAP-ML-2020/Only-C1/SD-CG/HFTN-CG
REM
REM
REM
REM
REM
REM ./C.cell (11c1c37f851c82e70ff6c80c92926a4b)
REM AIRSS Version 0.9.1 bugfix July 2018 build 013d7b7c2542+ Fri, 06 Jul 2018 19:26:36 +0100
REM compiler GCC version 9.3.0
REM options -cpp -mtune=generic -march=x86-64 -g -O0
REM seed 1986975985 984770579 684191177 -1645071140 1743376342 1592720002 1634902784 1179428469 1822656765 1366480496 912707079 95027019 1990317190 1510782792 -607288612 -111515103 1532797739 -736075502 -302269684 758318668 61704478 537761025 1029879114 741078101 1544487695 -119835589 -166399844 1826888324 -1677197904 -1759422563 1869067914 -571958006 1464574546
REM
CELL 1.54180   50.00000   50.00000   50.00000   90.00000   90.00000   90.00000
LATT -1
SFAC C  
C      1  0.5356900000000  0.4790460000000  0.4776740000000 1.0
C      1  0.5173570000000  0.5113990000000  0.5352190000000 1.0
C      1  0.5056140000000  0.5323640000000  0.5188800000000 1.0
C      1  0.4834750000000  0.5386390000000  0.5043800000000 1.0
C      1  0.4490770000000  0.4987470000000  0.5052380000000 1.0
C      1  0.5098810000000  0.4746110000000  0.4791190000000 1.0
C      1  0.4711010000000  0.5145230000000  0.5063340000000 1.0
C      1  0.5605920000000  0.4842360000000  0.4784470000000 1.0
C      1  0.4837030000000  0.4799000000000  0.4670830000000 1.0
C      1  0.4885510000000  0.4639480000000  0.4947120000000 1.0
C      1  0.5239320000000  0.5359450000000  0.5402150000000 1.0
C      1  0.4710280000000  0.4866420000000  0.4926980000000 1.0
END
