TITL C-27279-6572-5 0.0323362564665388 125000 -268.926733593521 0 0 41 (C1) n - 1
REM
REM in /rds/project/t2_vol4/rds-t2-cs072/BORA/CARBON/from-Arr/AIRSS/Generating-Clusters/GAP-ML-2020/Only-C1/SD-CG/HFTN-CG
REM
REM
REM
REM
REM
REM ./C.cell (11c1c37f851c82e70ff6c80c92926a4b)
REM AIRSS Version 0.9.1 bugfix July 2018 build 013d7b7c2542+ Fri, 06 Jul 2018 19:26:36 +0100
REM compiler GCC version 9.3.0
REM options -cpp -mtune=generic -march=x86-64 -g -O0
REM seed 883432398 -1027181518 -1208533085 1492944036 2097378876 -1979296909 -1579067059 1458677271 -1613984826 -1353127395 -1428473407 689263812 2012647307 1771114382 -132905486 -1228486227 957727101 -1592005653 1312185059 -46960504 -504845337 -439192464 958033747 -2003541143 1286882922 375746784 -1347750201 539713433 669705779 1632333561 -2080170620 1598663648 -1342088393
REM
CELL 1.54180   50.00000   50.00000   50.00000   90.00000   90.00000   90.00000
LATT -1
SFAC C  
C      1  0.5381440000000  0.4688770000000  0.5096670000000 1.0
C      1  0.4488270000000  0.4787720000000  0.4660690000000 1.0
C      1  0.5166720000000  0.4389980000000  0.4790350000000 1.0
C      1  0.4914150000000  0.5269730000000  0.5641330000000 1.0
C      1  0.5202080000000  0.5341840000000  0.5273650000000 1.0
C      1  0.4707780000000  0.5243570000000  0.4498510000000 1.0
C      1  0.5511990000000  0.5007920000000  0.4813960000000 1.0
C      1  0.5254170000000  0.4899250000000  0.5535640000000 1.0
C      1  0.5358270000000  0.5441670000000  0.5049310000000 1.0
C      1  0.4681660000000  0.5009920000000  0.5155690000000 1.0
C      1  0.5178120000000  0.4609310000000  0.5477730000000 1.0
C      1  0.5133850000000  0.4888110000000  0.5111740000000 1.0
C      1  0.5322720000000  0.5052400000000  0.5285210000000 1.0
C      1  0.5057470000000  0.4978940000000  0.4854680000000 1.0
C      1  0.5368780000000  0.5188540000000  0.4624130000000 1.0
C      1  0.4841140000000  0.4433300000000  0.5162710000000 1.0
C      1  0.4364780000000  0.5213270000000  0.4866760000000 1.0
C      1  0.4257510000000  0.5263190000000  0.5092850000000 1.0
C      1  0.4989950000000  0.5024260000000  0.5574650000000 1.0
C      1  0.5307710000000  0.4478440000000  0.5257320000000 1.0
C      1  0.4883450000000  0.4883210000000  0.5309710000000 1.0
C      1  0.4901480000000  0.4601590000000  0.5397630000000 1.0
C      1  0.4765290000000  0.5489180000000  0.4648670000000 1.0
C      1  0.5175660000000  0.5047880000000  0.4435970000000 1.0
C      1  0.5013920000000  0.5528620000000  0.4746840000000 1.0
C      1  0.4504610000000  0.5229190000000  0.5221080000000 1.0
C      1  0.5465850000000  0.4736360000000  0.4834440000000 1.0
C      1  0.4928250000000  0.5146000000000  0.4384170000000 1.0
C      1  0.4554090000000  0.5068080000000  0.4694850000000 1.0
C      1  0.4497940000000  0.4578780000000  0.4811190000000 1.0
C      1  0.4800490000000  0.5402860000000  0.4924730000000 1.0
C      1  0.5106570000000  0.4379880000000  0.5056190000000 1.0
C      1  0.4945510000000  0.5396400000000  0.5387850000000 1.0
C      1  0.4794970000000  0.5089520000000  0.4896680000000 1.0
C      1  0.5118760000000  0.4826390000000  0.4604760000000 1.0
C      1  0.4721130000000  0.5433810000000  0.5206280000000 1.0
C      1  0.5277380000000  0.4604390000000  0.4665910000000 1.0
C      1  0.5554130000000  0.5110990000000  0.5083500000000 1.0
C      1  0.4612820000000  0.4448160000000  0.5007430000000 1.0
C      1  0.5621060000000  0.5365220000000  0.5092010000000 1.0
C      1  0.5268080000000  0.5423370000000  0.4766530000000 1.0
END
