TITL C-28111-7369-33 28.9254585178594 125000 -1290.87591357402 0 0 181 (C1) n - 1
REM
REM in /rds/project/t2_vol4/rds-t2-cs072/BORA/CARBON/from-Arr/AIRSS/Generating-Clusters/GAP-ML-2020/Only-C1/SD-CG/HFTN-CG/C160-200
REM
REM
REM
REM
REM
REM ./C.cell (f2ad243b7eb7c0cd63fb1bbaf7e03044)
REM AIRSS Version 0.9.1 bugfix July 2018 build 013d7b7c2542+ Fri, 06 Jul 2018 19:26:36 +0100
REM compiler GCC version 9.3.0
REM options -cpp -mtune=generic -march=x86-64 -g -O0
REM seed -1778010034 2080936643 315501261 -814674988 -1494520442 -710601758 -561218616 1798231727 -2131115851 1067076541 507417858 -946154316 -948160404 -562895871 -725480464 1976472478 200466544 -574694770 985584777 1547295666 1443021018 -21578417 1886107896 956281391 1698879642 908009472 -1748508576 -1987936734 230684404 -1604867025 -371858917 -697799888 -1781493367
REM
CELL 1.54180   50.00000   50.00000   50.00000   90.00000   90.00000   90.00000
LATT -1
SFAC C  
C      1  0.6160280000000  0.5044880000000  0.4932140000000 1.0
C      1  0.4147330000000  0.5384480000000  0.4435280000000 1.0
C      1  0.4491330000000  0.4115050000000  0.5263760000000 1.0
C      1  0.4674910000000  0.4483860000000  0.4802520000000 1.0
C      1  0.5086460000000  0.5096210000000  0.5473010000000 1.0
C      1  0.5392480000000  0.4009280000000  0.5305310000000 1.0
C      1  0.4763170000000  0.5409280000000  0.4518990000000 1.0
C      1  0.3864360000000  0.5501310000000  0.5406670000000 1.0
C      1  0.4346710000000  0.5794480000000  0.4601750000000 1.0
C      1  0.4877280000000  0.4512220000000  0.5970020000000 1.0
C      1  0.4995160000000  0.5729280000000  0.5638640000000 1.0
C      1  0.5448780000000  0.5438850000000  0.4078860000000 1.0
C      1  0.5119270000000  0.5987500000000  0.4592270000000 1.0
C      1  0.5314240000000  0.3978950000000  0.4558320000000 1.0
C      1  0.4979790000000  0.5235330000000  0.4975620000000 1.0
C      1  0.5032120000000  0.4804520000000  0.5583030000000 1.0
C      1  0.4389090000000  0.5132190000000  0.5329170000000 1.0
C      1  0.5250940000000  0.4629460000000  0.5425330000000 1.0
C      1  0.4745030000000  0.4745210000000  0.5481450000000 1.0
C      1  0.5039160000000  0.3900380000000  0.4532810000000 1.0
C      1  0.4192200000000  0.5695840000000  0.5118760000000 1.0
C      1  0.4166640000000  0.5088360000000  0.5687340000000 1.0
C      1  0.4922460000000  0.3798310000000  0.4766750000000 1.0
C      1  0.5219820000000  0.5429940000000  0.5969960000000 1.0
C      1  0.4897270000000  0.5544720000000  0.5401330000000 1.0
C      1  0.4580820000000  0.4655590000000  0.5027630000000 1.0
C      1  0.6014190000000  0.4569260000000  0.4790760000000 1.0
C      1  0.4303030000000  0.4443960000000  0.5485200000000 1.0
C      1  0.4798850000000  0.4721900000000  0.4631290000000 1.0
C      1  0.4155800000000  0.5587400000000  0.4637360000000 1.0
C      1  0.5773000000000  0.5108070000000  0.5259860000000 1.0
C      1  0.5305670000000  0.5487650000000  0.4726290000000 1.0
C      1  0.5823400000000  0.5299140000000  0.5655710000000 1.0
C      1  0.4566020000000  0.5783800000000  0.4805720000000 1.0
C      1  0.3919870000000  0.5275080000000  0.5255660000000 1.0
C      1  0.5402860000000  0.5400020000000  0.5277670000000 1.0
C      1  0.5068750000000  0.5519010000000  0.4921420000000 1.0
C      1  0.4502680000000  0.5175450000000  0.4188850000000 1.0
C      1  0.5190290000000  0.5572320000000  0.4022960000000 1.0
C      1  0.4864230000000  0.3866130000000  0.5214160000000 1.0
C      1  0.4598210000000  0.5175870000000  0.4486830000000 1.0
C      1  0.5992340000000  0.5254960000000  0.5415890000000 1.0
C      1  0.4578290000000  0.4063970000000  0.4586690000000 1.0
C      1  0.5073670000000  0.4328260000000  0.4063920000000 1.0
C      1  0.5078200000000  0.5059260000000  0.5182020000000 1.0
C      1  0.4404530000000  0.4739770000000  0.5966110000000 1.0
C      1  0.4844890000000  0.4578920000000  0.4387870000000 1.0
C      1  0.5094110000000  0.5092040000000  0.4706310000000 1.0
C      1  0.4778460000000  0.5236770000000  0.4041060000000 1.0
C      1  0.5159850000000  0.4411800000000  0.4950160000000 1.0
C      1  0.5576230000000  0.5671090000000  0.5334390000000 1.0
C      1  0.4832320000000  0.5686410000000  0.5891330000000 1.0
C      1  0.5054200000000  0.3793990000000  0.5018920000000 1.0
C      1  0.5351350000000  0.4326730000000  0.4176730000000 1.0
C      1  0.5158920000000  0.5490830000000  0.4476180000000 1.0
C      1  0.5978570000000  0.4456060000000  0.5050710000000 1.0
C      1  0.4484090000000  0.5679960000000  0.4233230000000 1.0
C      1  0.6151540000000  0.5013530000000  0.5434350000000 1.0
C      1  0.5817660000000  0.5648280000000  0.5149450000000 1.0
C      1  0.4797090000000  0.4668530000000  0.5207420000000 1.0
C      1  0.3987870000000  0.4660950000000  0.5078440000000 1.0
C      1  0.5631990000000  0.4141460000000  0.5277740000000 1.0
C      1  0.4664010000000  0.5194290000000  0.5721490000000 1.0
C      1  0.4484800000000  0.5141250000000  0.5054800000000 1.0
C      1  0.5230150000000  0.6056580000000  0.5308070000000 1.0
C      1  0.5468610000000  0.4581110000000  0.4089390000000 1.0
C      1  0.3948960000000  0.4806340000000  0.4825170000000 1.0
C      1  0.5001330000000  0.5234750000000  0.4462680000000 1.0
C      1  0.4914620000000  0.4023840000000  0.5443120000000 1.0
C      1  0.5058480000000  0.4753220000000  0.5910440000000 1.0
C      1  0.5474320000000  0.5813630000000  0.4321570000000 1.0
C      1  0.5490890000000  0.4774200000000  0.4975120000000 1.0
C      1  0.5679060000000  0.4741700000000  0.4184360000000 1.0
C      1  0.4384380000000  0.5431120000000  0.5448460000000 1.0
C      1  0.5686420000000  0.5026850000000  0.4157820000000 1.0
C      1  0.5598480000000  0.5097440000000  0.5656600000000 1.0
C      1  0.4076350000000  0.4669040000000  0.4606240000000 1.0
C      1  0.5346930000000  0.5818000000000  0.5245860000000 1.0
C      1  0.6075810000000  0.5326200000000  0.4923340000000 1.0
C      1  0.4621460000000  0.5554870000000  0.5266500000000 1.0
C      1  0.4828120000000  0.6100370000000  0.5292230000000 1.0
C      1  0.4126740000000  0.4421430000000  0.5015070000000 1.0
C      1  0.4973250000000  0.5053630000000  0.4163040000000 1.0
C      1  0.5024130000000  0.5788920000000  0.4383750000000 1.0
C      1  0.5354190000000  0.4709890000000  0.5876200000000 1.0
C      1  0.4597800000000  0.5001800000000  0.5509480000000 1.0
C      1  0.5759180000000  0.5542900000000  0.5765830000000 1.0
C      1  0.4825180000000  0.4083040000000  0.4409860000000 1.0
C      1  0.5001670000000  0.6000310000000  0.5497410000000 1.0
C      1  0.4703100000000  0.6041720000000  0.4858060000000 1.0
C      1  0.4572950000000  0.5663880000000  0.5962760000000 1.0
C      1  0.5409840000000  0.5926830000000  0.4575950000000 1.0
C      1  0.5868820000000  0.5145330000000  0.4344000000000 1.0
C      1  0.4455140000000  0.4314020000000  0.4660440000000 1.0
C      1  0.5234660000000  0.5004850000000  0.4033310000000 1.0
C      1  0.5677980000000  0.4120200000000  0.4818270000000 1.0
C      1  0.5564850000000  0.5221620000000  0.5114570000000 1.0
C      1  0.5925770000000  0.5477760000000  0.4714520000000 1.0
C      1  0.4617180000000  0.3927520000000  0.5088260000000 1.0
C      1  0.5191220000000  0.4065220000000  0.5512080000000 1.0
C      1  0.5783010000000  0.4231560000000  0.5066580000000 1.0
C      1  0.4342590000000  0.5420760000000  0.4229450000000 1.0
C      1  0.5030300000000  0.4593890000000  0.3966230000000 1.0
C      1  0.5983860000000  0.4917110000000  0.4483070000000 1.0
C      1  0.4619680000000  0.4433080000000  0.4208130000000 1.0
C      1  0.5524400000000  0.5051560000000  0.4897660000000 1.0
C      1  0.5460380000000  0.4176410000000  0.4401900000000 1.0
C      1  0.4947280000000  0.5463680000000  0.6029440000000 1.0
C      1  0.6202950000000  0.4900970000000  0.5176350000000 1.0
C      1  0.4909200000000  0.5491480000000  0.4051270000000 1.0
C      1  0.5463490000000  0.5163810000000  0.4058770000000 1.0
C      1  0.5225070000000  0.4255950000000  0.5727400000000 1.0
C      1  0.4809700000000  0.4218340000000  0.4147880000000 1.0
C      1  0.5318650000000  0.3876240000000  0.5053810000000 1.0
C      1  0.4612960000000  0.4947500000000  0.4655890000000 1.0
C      1  0.5765480000000  0.5667870000000  0.4864990000000 1.0
C      1  0.4195030000000  0.4424970000000  0.4723410000000 1.0
C      1  0.5069300000000  0.4534190000000  0.5201270000000 1.0
C      1  0.4151310000000  0.4877200000000  0.4398490000000 1.0
C      1  0.5451040000000  0.3948000000000  0.4811090000000 1.0
C      1  0.4580800000000  0.4449960000000  0.5600390000000 1.0
C      1  0.4082020000000  0.5061250000000  0.5393650000000 1.0
C      1  0.5279700000000  0.5565730000000  0.5714650000000 1.0
C      1  0.4859190000000  0.5265180000000  0.5521340000000 1.0
C      1  0.6022380000000  0.5450860000000  0.5178510000000 1.0
C      1  0.4805100000000  0.5203290000000  0.6025610000000 1.0
C      1  0.4504330000000  0.4911640000000  0.4911250000000 1.0
C      1  0.5697520000000  0.4246750000000  0.4565770000000 1.0
C      1  0.5145460000000  0.5580020000000  0.5197910000000 1.0
C      1  0.5269300000000  0.4737010000000  0.3966710000000 1.0
C      1  0.4054690000000  0.5125380000000  0.4508630000000 1.0
C      1  0.4776180000000  0.5628030000000  0.4276360000000 1.0
C      1  0.5970560000000  0.4781930000000  0.5475800000000 1.0
C      1  0.4935180000000  0.4331780000000  0.4799800000000 1.0
C      1  0.5335880000000  0.5274050000000  0.5535130000000 1.0
C      1  0.5514540000000  0.5723100000000  0.4742300000000 1.0
C      1  0.5370540000000  0.4497960000000  0.5679490000000 1.0
C      1  0.5624690000000  0.5568300000000  0.4274250000000 1.0
C      1  0.4598940000000  0.4534900000000  0.5887930000000 1.0
C      1  0.5372980000000  0.5188710000000  0.4704690000000 1.0
C      1  0.4361810000000  0.5898030000000  0.4345490000000 1.0
C      1  0.4754070000000  0.5538410000000  0.4790420000000 1.0
C      1  0.5305020000000  0.4623380000000  0.4798420000000 1.0
C      1  0.4425190000000  0.4959520000000  0.6125510000000 1.0
C      1  0.4680770000000  0.5349470000000  0.5020170000000 1.0
C      1  0.5275200000000  0.5147910000000  0.6017460000000 1.0
C      1  0.5866800000000  0.4678930000000  0.4379870000000 1.0
C      1  0.4654440000000  0.3899150000000  0.4804830000000 1.0
C      1  0.4128440000000  0.5571580000000  0.5365800000000 1.0
C      1  0.4469580000000  0.5782000000000  0.5113070000000 1.0
C      1  0.5876980000000  0.4466030000000  0.4561710000000 1.0
C      1  0.4607170000000  0.6048700000000  0.5128770000000 1.0
C      1  0.4380110000000  0.5316080000000  0.5732640000000 1.0
C      1  0.4528640000000  0.5203310000000  0.6150020000000 1.0
C      1  0.5471330000000  0.4972250000000  0.5896660000000 1.0
C      1  0.4203870000000  0.4820160000000  0.5771490000000 1.0
C      1  0.4542570000000  0.4693540000000  0.4103690000000 1.0
C      1  0.4069960000000  0.5548380000000  0.4898380000000 1.0
C      1  0.4272570000000  0.4301340000000  0.5240560000000 1.0
C      1  0.5002040000000  0.4816120000000  0.5072780000000 1.0
C      1  0.4359730000000  0.4896050000000  0.4185190000000 1.0
C      1  0.5556620000000  0.5673450000000  0.5640940000000 1.0
C      1  0.4965510000000  0.4334020000000  0.4511390000000 1.0
C      1  0.5053780000000  0.4808030000000  0.4767870000000 1.0
C      1  0.5830210000000  0.5418530000000  0.4433940000000 1.0
C      1  0.4671630000000  0.4186520000000  0.5473800000000 1.0
C      1  0.4976920000000  0.6101600000000  0.4814380000000 1.0
C      1  0.6087810000000  0.4851160000000  0.4738760000000 1.0
C      1  0.6064020000000  0.4650810000000  0.5237150000000 1.0
C      1  0.4848460000000  0.4757990000000  0.4127890000000 1.0
C      1  0.5230540000000  0.5808550000000  0.4176220000000 1.0
C      1  0.5475990000000  0.4753290000000  0.5278520000000 1.0
C      1  0.3935550000000  0.5090300000000  0.4770740000000 1.0
C      1  0.5033580000000  0.5014160000000  0.6051640000000 1.0
C      1  0.5050320000000  0.6147430000000  0.5095970000000 1.0
C      1  0.4412190000000  0.5449230000000  0.5996990000000 1.0
C      1  0.4129000000000  0.4643950000000  0.5557510000000 1.0
C      1  0.5686070000000  0.4894600000000  0.5441310000000 1.0
C      1  0.4011140000000  0.4780860000000  0.5339100000000 1.0
C      1  0.3934720000000  0.5304880000000  0.4963280000000 1.0
C      1  0.5017060000000  0.4290120000000  0.5904980000000 1.0
END
