TITL C-28111-7369-16 -82.6711484532269 125000 -1335.96923750074 0 0 188 (C1) n - 1
REM
REM in /rds/project/t2_vol4/rds-t2-cs072/BORA/CARBON/from-Arr/AIRSS/Generating-Clusters/GAP-ML-2020/Only-C1/SD-CG/HFTN-CG/C160-200
REM
REM
REM
REM
REM
REM ./C.cell (f2ad243b7eb7c0cd63fb1bbaf7e03044)
REM AIRSS Version 0.9.1 bugfix July 2018 build 013d7b7c2542+ Fri, 06 Jul 2018 19:26:36 +0100
REM compiler GCC version 9.3.0
REM options -cpp -mtune=generic -march=x86-64 -g -O0
REM seed 2016687978 441976380 -556481898 414844314 1984116643 -1905726473 586450505 -26069033 -923985589 885179706 1830447771 -1988472267 216883084 1013133657 335309037 -15017747 870095713 835373191 427155322 1300339769 -241624413 -2045342592 -105151089 381612658 -248553653 54299257 1185371762 -255198463 479047526 -1484982151 65040546 478112574 1711855281
REM
CELL 1.54180   50.00000   50.00000   50.00000   90.00000   90.00000   90.00000
LATT -1
SFAC C  
C      1  0.4978590000000  0.4359090000000  0.4707290000000 1.0
C      1  0.5624570000000  0.4213250000000  0.5642770000000 1.0
C      1  0.4610150000000  0.5943130000000  0.5525770000000 1.0
C      1  0.4591760000000  0.5035880000000  0.4782580000000 1.0
C      1  0.5182530000000  0.4052080000000  0.5521170000000 1.0
C      1  0.5251470000000  0.4466290000000  0.4661750000000 1.0
C      1  0.4726270000000  0.4732080000000  0.5630040000000 1.0
C      1  0.3995740000000  0.5310010000000  0.5336990000000 1.0
C      1  0.4067180000000  0.4572110000000  0.5280820000000 1.0
C      1  0.4649600000000  0.5062810000000  0.5335530000000 1.0
C      1  0.4922970000000  0.5375040000000  0.4812690000000 1.0
C      1  0.5408320000000  0.5283630000000  0.4798350000000 1.0
C      1  0.4531360000000  0.3994660000000  0.4759470000000 1.0
C      1  0.4870860000000  0.5976540000000  0.5621220000000 1.0
C      1  0.4531050000000  0.5153720000000  0.5841830000000 1.0
C      1  0.4237570000000  0.5478360000000  0.4587730000000 1.0
C      1  0.5853800000000  0.5272200000000  0.5405940000000 1.0
C      1  0.5827280000000  0.4194120000000  0.5214440000000 1.0
C      1  0.4686260000000  0.5342220000000  0.4081650000000 1.0
C      1  0.4792610000000  0.5781480000000  0.4224390000000 1.0
C      1  0.5417480000000  0.4629120000000  0.5217480000000 1.0
C      1  0.4521110000000  0.5863020000000  0.4575720000000 1.0
C      1  0.4750550000000  0.4610540000000  0.5899810000000 1.0
C      1  0.4805800000000  0.5882510000000  0.4496400000000 1.0
C      1  0.4196620000000  0.5343040000000  0.5524880000000 1.0
C      1  0.4851180000000  0.5524700000000  0.5288540000000 1.0
C      1  0.5813100000000  0.5536800000000  0.4990320000000 1.0
C      1  0.5455370000000  0.4057850000000  0.4943650000000 1.0
C      1  0.5286280000000  0.5584540000000  0.5122240000000 1.0
C      1  0.4635070000000  0.5339700000000  0.5241460000000 1.0
C      1  0.4924370000000  0.4724550000000  0.3839530000000 1.0
C      1  0.4324750000000  0.4465840000000  0.5730630000000 1.0
C      1  0.5456790000000  0.4294340000000  0.4258050000000 1.0
C      1  0.3899500000000  0.5415610000000  0.4905990000000 1.0
C      1  0.4977990000000  0.3944650000000  0.5351440000000 1.0
C      1  0.4272930000000  0.4300460000000  0.4520230000000 1.0
C      1  0.4693800000000  0.4621810000000  0.3975740000000 1.0
C      1  0.5648100000000  0.5007870000000  0.4453230000000 1.0
C      1  0.5405670000000  0.5071140000000  0.5375580000000 1.0
C      1  0.5146600000000  0.5141640000000  0.5221360000000 1.0
C      1  0.4054820000000  0.4991730000000  0.4515230000000 1.0
C      1  0.4105370000000  0.4530230000000  0.4541940000000 1.0
C      1  0.5497950000000  0.5924800000000  0.4932530000000 1.0
C      1  0.5578200000000  0.5324440000000  0.3971540000000 1.0
C      1  0.5830420000000  0.5047810000000  0.5848810000000 1.0
C      1  0.4506380000000  0.5696350000000  0.5646660000000 1.0
C      1  0.5240790000000  0.6027300000000  0.4809110000000 1.0
C      1  0.5446460000000  0.5182510000000  0.5673610000000 1.0
C      1  0.6014730000000  0.4871220000000  0.4668630000000 1.0
C      1  0.5584510000000  0.5067360000000  0.4737580000000 1.0
C      1  0.5733170000000  0.5241200000000  0.5681550000000 1.0
C      1  0.4731690000000  0.4011750000000  0.5466660000000 1.0
C      1  0.4458650000000  0.4837740000000  0.4324930000000 1.0
C      1  0.5650420000000  0.5721580000000  0.5405220000000 1.0
C      1  0.3869280000000  0.5123400000000  0.4938280000000 1.0
C      1  0.5110740000000  0.5419710000000  0.5303130000000 1.0
C      1  0.4230280000000  0.5214030000000  0.4479980000000 1.0
C      1  0.4836130000000  0.4864240000000  0.4744110000000 1.0
C      1  0.4698320000000  0.4511020000000  0.5162270000000 1.0
C      1  0.5862610000000  0.4261880000000  0.5487860000000 1.0
C      1  0.4529420000000  0.4002670000000  0.5258470000000 1.0
C      1  0.4603740000000  0.4378100000000  0.5822580000000 1.0
C      1  0.5202590000000  0.3952170000000  0.4861780000000 1.0
C      1  0.5989900000000  0.5327980000000  0.4852370000000 1.0
C      1  0.4642130000000  0.5085580000000  0.3927370000000 1.0
C      1  0.6048170000000  0.5045180000000  0.5421730000000 1.0
C      1  0.5677570000000  0.4722530000000  0.4392820000000 1.0
C      1  0.4164200000000  0.4214270000000  0.5009560000000 1.0
C      1  0.5447940000000  0.4785820000000  0.5436760000000 1.0
C      1  0.4570390000000  0.5603890000000  0.4194810000000 1.0
C      1  0.5527570000000  0.4399120000000  0.5837990000000 1.0
C      1  0.5739320000000  0.5480500000000  0.4144400000000 1.0
C      1  0.4739830000000  0.5339760000000  0.5925560000000 1.0
C      1  0.4944660000000  0.5428630000000  0.3964200000000 1.0
C      1  0.5007210000000  0.4674070000000  0.5998550000000 1.0
C      1  0.5845930000000  0.5552680000000  0.5291710000000 1.0
C      1  0.4423440000000  0.4876810000000  0.5243880000000 1.0
C      1  0.4401180000000  0.5480530000000  0.4880130000000 1.0
C      1  0.5360790000000  0.4949110000000  0.5863090000000 1.0
C      1  0.5699770000000  0.4968090000000  0.4983050000000 1.0
C      1  0.4964850000000  0.4916770000000  0.5275190000000 1.0
C      1  0.5222400000000  0.4474230000000  0.5820960000000 1.0
C      1  0.5960970000000  0.4648580000000  0.5719250000000 1.0
C      1  0.4338310000000  0.5942240000000  0.4796260000000 1.0
C      1  0.4985670000000  0.4313130000000  0.4263540000000 1.0
C      1  0.5068710000000  0.6158400000000  0.4968340000000 1.0
C      1  0.4899390000000  0.5011350000000  0.3821880000000 1.0
C      1  0.5137860000000  0.4663440000000  0.5122740000000 1.0
C      1  0.4282500000000  0.4959670000000  0.5892520000000 1.0
C      1  0.4954990000000  0.3949070000000  0.5048540000000 1.0
C      1  0.6002290000000  0.5006100000000  0.4932930000000 1.0
C      1  0.4013770000000  0.4460980000000  0.5024790000000 1.0
C      1  0.4374250000000  0.5920060000000  0.5087040000000 1.0
C      1  0.4774770000000  0.4588640000000  0.4691130000000 1.0
C      1  0.5722140000000  0.4604970000000  0.5886550000000 1.0
C      1  0.4179360000000  0.4764880000000  0.4401170000000 1.0
C      1  0.5444430000000  0.5849610000000  0.5224980000000 1.0
C      1  0.4112510000000  0.4851290000000  0.5303780000000 1.0
C      1  0.5456410000000  0.4069290000000  0.5460670000000 1.0
C      1  0.4664410000000  0.4060890000000  0.4509670000000 1.0
C      1  0.5558640000000  0.4702250000000  0.4962770000000 1.0
C      1  0.5490080000000  0.5575350000000  0.4064310000000 1.0
C      1  0.4544890000000  0.4619000000000  0.5383890000000 1.0
C      1  0.4585990000000  0.4585510000000  0.4915900000000 1.0
C      1  0.4645860000000  0.5009410000000  0.5621160000000 1.0
C      1  0.5371110000000  0.5104980000000  0.4024650000000 1.0
C      1  0.5004230000000  0.5242540000000  0.5980210000000 1.0
C      1  0.5619600000000  0.5167840000000  0.5204380000000 1.0
C      1  0.4531470000000  0.4851410000000  0.4031900000000 1.0
C      1  0.5696050000000  0.5758320000000  0.4813900000000 1.0
C      1  0.4971900000000  0.5340840000000  0.4515940000000 1.0
C      1  0.4238610000000  0.4705770000000  0.5841750000000 1.0
C      1  0.5162480000000  0.5475050000000  0.5903810000000 1.0
C      1  0.5578830000000  0.4060100000000  0.5196180000000 1.0
C      1  0.4293680000000  0.4165050000000  0.5261380000000 1.0
C      1  0.5135080000000  0.5067010000000  0.4464870000000 1.0
C      1  0.5142750000000  0.5177660000000  0.4910890000000 1.0
C      1  0.5261390000000  0.5679820000000  0.4187220000000 1.0
C      1  0.5010240000000  0.5686670000000  0.4070240000000 1.0
C      1  0.5072130000000  0.5818110000000  0.4646950000000 1.0
C      1  0.5033080000000  0.5642250000000  0.4901000000000 1.0
C      1  0.5951680000000  0.5068040000000  0.4486370000000 1.0
C      1  0.5418710000000  0.5440630000000  0.4539450000000 1.0
C      1  0.4158600000000  0.5487800000000  0.5939670000000 1.0
C      1  0.5009110000000  0.5738310000000  0.5797330000000 1.0
C      1  0.4658770000000  0.3932560000000  0.5007020000000 1.0
C      1  0.5101310000000  0.4965980000000  0.6005360000000 1.0
C      1  0.4727700000000  0.4696420000000  0.4409200000000 1.0
C      1  0.4496500000000  0.5096530000000  0.4478630000000 1.0
C      1  0.4272790000000  0.4417530000000  0.5432600000000 1.0
C      1  0.4285330000000  0.4136990000000  0.4759980000000 1.0
C      1  0.4781060000000  0.4193990000000  0.5695120000000 1.0
C      1  0.4951060000000  0.4129400000000  0.4483730000000 1.0
C      1  0.5198770000000  0.3995720000000  0.4573820000000 1.0
C      1  0.4404370000000  0.5507290000000  0.5397740000000 1.0
C      1  0.5112870000000  0.4940490000000  0.4737220000000 1.0
C      1  0.4520590000000  0.4258010000000  0.4367600000000 1.0
C      1  0.5439830000000  0.4127520000000  0.4486060000000 1.0
C      1  0.5182860000000  0.4670130000000  0.3888300000000 1.0
C      1  0.5067420000000  0.4240400000000  0.5704340000000 1.0
C      1  0.6013730000000  0.4496940000000  0.5493230000000 1.0
C      1  0.5659200000000  0.5636950000000  0.4556220000000 1.0
C      1  0.5283200000000  0.5850230000000  0.5668900000000 1.0
C      1  0.4912730000000  0.4946850000000  0.4308480000000 1.0
C      1  0.5517960000000  0.4267080000000  0.4744600000000 1.0
C      1  0.5023310000000  0.6088010000000  0.5414090000000 1.0
C      1  0.4266810000000  0.5703570000000  0.5856490000000 1.0
C      1  0.5926300000000  0.4400240000000  0.5047380000000 1.0
C      1  0.4744260000000  0.5596400000000  0.5808340000000 1.0
C      1  0.6008080000000  0.5334330000000  0.4566220000000 1.0
C      1  0.4407120000000  0.5654600000000  0.4420050000000 1.0
C      1  0.4989030000000  0.4236070000000  0.4966970000000 1.0
C      1  0.4853560000000  0.5741870000000  0.5100720000000 1.0
C      1  0.5630960000000  0.4865030000000  0.5954520000000 1.0
C      1  0.5286780000000  0.6000480000000  0.5429210000000 1.0
C      1  0.5524960000000  0.5407930000000  0.5036580000000 1.0
C      1  0.4280920000000  0.5639640000000  0.5150250000000 1.0
C      1  0.3965340000000  0.4617910000000  0.4782500000000 1.0
C      1  0.4992550000000  0.4803970000000  0.5537910000000 1.0
C      1  0.5852530000000  0.4639530000000  0.4601070000000 1.0
C      1  0.4632970000000  0.5312710000000  0.4917690000000 1.0
C      1  0.5235070000000  0.4453710000000  0.4343640000000 1.0
C      1  0.6053250000000  0.4597010000000  0.5224290000000 1.0
C      1  0.4451320000000  0.4836360000000  0.4948310000000 1.0
C      1  0.4878120000000  0.6060790000000  0.5160990000000 1.0
C      1  0.4009400000000  0.5516910000000  0.5146720000000 1.0
C      1  0.4966040000000  0.4441690000000  0.5158440000000 1.0
C      1  0.3910620000000  0.4910460000000  0.4746580000000 1.0
C      1  0.5185840000000  0.5593440000000  0.4463510000000 1.0
C      1  0.5272100000000  0.4708280000000  0.4827450000000 1.0
C      1  0.5253310000000  0.4734500000000  0.5655550000000 1.0
C      1  0.3991450000000  0.5598390000000  0.4695600000000 1.0
C      1  0.5099030000000  0.5194240000000  0.3903620000000 1.0
C      1  0.4583690000000  0.6023700000000  0.5250770000000 1.0
C      1  0.4081290000000  0.5847160000000  0.4755170000000 1.0
C      1  0.6015580000000  0.4922790000000  0.5677980000000 1.0
C      1  0.5419320000000  0.5449040000000  0.5785250000000 1.0
C      1  0.5491940000000  0.4600760000000  0.4210400000000 1.0
C      1  0.4241700000000  0.5241860000000  0.5795780000000 1.0
C      1  0.5505230000000  0.5684500000000  0.5652210000000 1.0
C      1  0.4727840000000  0.4446170000000  0.4218450000000 1.0
C      1  0.6095180000000  0.4882310000000  0.5188280000000 1.0
C      1  0.5739970000000  0.4474970000000  0.4820020000000 1.0
C      1  0.5390190000000  0.4796030000000  0.4002490000000 1.0
C      1  0.5400460000000  0.5158010000000  0.4343880000000 1.0
C      1  0.3941090000000  0.5063710000000  0.5213510000000 1.0
C      1  0.4746730000000  0.5209210000000  0.4350110000000 1.0
C      1  0.5864940000000  0.5525140000000  0.4399610000000 1.0
END
