TITL C-28111-7369-7 37.730485474414 125000 -1294.34300089134 0 0 184 (C1) n - 1
REM
REM in /rds/project/t2_vol4/rds-t2-cs072/BORA/CARBON/from-Arr/AIRSS/Generating-Clusters/GAP-ML-2020/Only-C1/SD-CG/HFTN-CG/C160-200
REM
REM
REM
REM
REM
REM ./C.cell (f2ad243b7eb7c0cd63fb1bbaf7e03044)
REM AIRSS Version 0.9.1 bugfix July 2018 build 013d7b7c2542+ Fri, 06 Jul 2018 19:26:36 +0100
REM compiler GCC version 9.3.0
REM options -cpp -mtune=generic -march=x86-64 -g -O0
REM seed -1828022668 -978523827 2042745703 -738003015 974498601 522368156 2128195396 -1720404356 -753999138 731785094 1219230761 337413745 13908018 1397710539 -163017828 1921409705 -40442810 762331223 -1245678295 1722143596 -1057722906 1812779795 1361213464 -1214116858 1562050153 123630347 -680130894 692819989 1532487095 -1752537761 -1840524313 -164016216 -1245311511
REM
CELL 1.54180   50.00000   50.00000   50.00000   90.00000   90.00000   90.00000
LATT -1
SFAC C  
C      1  0.4560230000000  0.4681110000000  0.4680740000000 1.0
C      1  0.4401800000000  0.5817370000000  0.4914180000000 1.0
C      1  0.5026330000000  0.4872070000000  0.3696480000000 1.0
C      1  0.4782990000000  0.4643650000000  0.4850440000000 1.0
C      1  0.4953410000000  0.3959020000000  0.4591340000000 1.0
C      1  0.4925380000000  0.4850240000000  0.6142350000000 1.0
C      1  0.5106930000000  0.5776160000000  0.4247780000000 1.0
C      1  0.5524700000000  0.5290830000000  0.5901950000000 1.0
C      1  0.4451290000000  0.4821910000000  0.5201610000000 1.0
C      1  0.5632150000000  0.5623010000000  0.5588470000000 1.0
C      1  0.5195280000000  0.5660150000000  0.4717990000000 1.0
C      1  0.4906940000000  0.4056300000000  0.4322730000000 1.0
C      1  0.5078510000000  0.4436350000000  0.6006500000000 1.0
C      1  0.4088420000000  0.5172020000000  0.4362680000000 1.0
C      1  0.4434160000000  0.5212020000000  0.4888230000000 1.0
C      1  0.4390810000000  0.5301320000000  0.5952740000000 1.0
C      1  0.4442850000000  0.5252430000000  0.5370250000000 1.0
C      1  0.4418240000000  0.4413060000000  0.4637650000000 1.0
C      1  0.6135520000000  0.5078940000000  0.5174030000000 1.0
C      1  0.4338980000000  0.4616540000000  0.5674500000000 1.0
C      1  0.3981080000000  0.5063990000000  0.4605130000000 1.0
C      1  0.5717920000000  0.5385830000000  0.5720330000000 1.0
C      1  0.5478270000000  0.4540340000000  0.4668330000000 1.0
C      1  0.4538280000000  0.5745100000000  0.4638260000000 1.0
C      1  0.4444930000000  0.5311970000000  0.4096350000000 1.0
C      1  0.5822660000000  0.4389490000000  0.4971320000000 1.0
C      1  0.5173070000000  0.4690630000000  0.6101160000000 1.0
C      1  0.4569230000000  0.5114920000000  0.4621400000000 1.0
C      1  0.5236350000000  0.4287750000000  0.4097300000000 1.0
C      1  0.4020310000000  0.4776030000000  0.4602620000000 1.0
C      1  0.4297070000000  0.5036850000000  0.5921880000000 1.0
C      1  0.5284320000000  0.5069580000000  0.4066530000000 1.0
C      1  0.4697920000000  0.4699610000000  0.6057930000000 1.0
C      1  0.5648020000000  0.5951120000000  0.4847660000000 1.0
C      1  0.4068500000000  0.4744220000000  0.5624050000000 1.0
C      1  0.5222460000000  0.4837020000000  0.3918230000000 1.0
C      1  0.4754830000000  0.5322000000000  0.4504420000000 1.0
C      1  0.5807110000000  0.5619530000000  0.4586990000000 1.0
C      1  0.4629980000000  0.4874510000000  0.4493240000000 1.0
C      1  0.4762760000000  0.5953330000000  0.4593010000000 1.0
C      1  0.5143420000000  0.5307930000000  0.4180530000000 1.0
C      1  0.5714380000000  0.5250120000000  0.4577950000000 1.0
C      1  0.4744340000000  0.3919430000000  0.5301410000000 1.0
C      1  0.3868020000000  0.5060780000000  0.5360200000000 1.0
C      1  0.4954340000000  0.5544480000000  0.4155450000000 1.0
C      1  0.4492490000000  0.4598580000000  0.5405120000000 1.0
C      1  0.5752000000000  0.4592230000000  0.4770230000000 1.0
C      1  0.4175710000000  0.5410840000000  0.4862440000000 1.0
C      1  0.5487310000000  0.4410460000000  0.4063720000000 1.0
C      1  0.4957870000000  0.5152330000000  0.4967080000000 1.0
C      1  0.5777860000000  0.4679620000000  0.5683400000000 1.0
C      1  0.4433470000000  0.5617900000000  0.4386580000000 1.0
C      1  0.6105180000000  0.5204480000000  0.4743600000000 1.0
C      1  0.4752630000000  0.3965520000000  0.4788860000000 1.0
C      1  0.5837700000000  0.5155890000000  0.5571350000000 1.0
C      1  0.4598400000000  0.4260730000000  0.5918830000000 1.0
C      1  0.5222230000000  0.6087880000000  0.4614130000000 1.0
C      1  0.5393600000000  0.5708070000000  0.4261160000000 1.0
C      1  0.5368600000000  0.5693300000000  0.5705610000000 1.0
C      1  0.5182470000000  0.4897780000000  0.5564930000000 1.0
C      1  0.5292730000000  0.5428010000000  0.4785000000000 1.0
C      1  0.3969800000000  0.5214350000000  0.4842840000000 1.0
C      1  0.5630560000000  0.5276290000000  0.5077950000000 1.0
C      1  0.4904680000000  0.4851060000000  0.5034040000000 1.0
C      1  0.5639790000000  0.4815390000000  0.5201120000000 1.0
C      1  0.4958260000000  0.5366970000000  0.5396310000000 1.0
C      1  0.4482670000000  0.4581080000000  0.3972270000000 1.0
C      1  0.4516770000000  0.4142510000000  0.5675060000000 1.0
C      1  0.5633230000000  0.5095120000000  0.4833730000000 1.0
C      1  0.4707670000000  0.5744500000000  0.5756510000000 1.0
C      1  0.4843340000000  0.5986490000000  0.4867600000000 1.0
C      1  0.4317750000000  0.4447550000000  0.4358590000000 1.0
C      1  0.5012190000000  0.5971760000000  0.4440940000000 1.0
C      1  0.4573710000000  0.4112840000000  0.5407670000000 1.0
C      1  0.5497460000000  0.5974950000000  0.5071280000000 1.0
C      1  0.5671390000000  0.4805370000000  0.4133090000000 1.0
C      1  0.5196440000000  0.4076810000000  0.4285440000000 1.0
C      1  0.5097970000000  0.4715570000000  0.4476480000000 1.0
C      1  0.5507430000000  0.4088750000000  0.4707380000000 1.0
C      1  0.5693570000000  0.4389840000000  0.4275890000000 1.0
C      1  0.5597430000000  0.4340920000000  0.5448350000000 1.0
C      1  0.5949370000000  0.4707290000000  0.4561620000000 1.0
C      1  0.4371580000000  0.5043940000000  0.4018570000000 1.0
C      1  0.4013190000000  0.4617140000000  0.4851960000000 1.0
C      1  0.5018750000000  0.3936930000000  0.5253160000000 1.0
C      1  0.5123050000000  0.4664250000000  0.5159040000000 1.0
C      1  0.4002020000000  0.5061130000000  0.5089690000000 1.0
C      1  0.4449280000000  0.5566080000000  0.5375750000000 1.0
C      1  0.4965170000000  0.4726560000000  0.4077150000000 1.0
C      1  0.5158890000000  0.5858390000000  0.5580670000000 1.0
C      1  0.3943560000000  0.5203730000000  0.5591810000000 1.0
C      1  0.3923090000000  0.4774150000000  0.5378140000000 1.0
C      1  0.4202170000000  0.4406500000000  0.4841560000000 1.0
C      1  0.5208020000000  0.4297890000000  0.5789530000000 1.0
C      1  0.5115210000000  0.4345820000000  0.5531620000000 1.0
C      1  0.5968270000000  0.4546880000000  0.5166730000000 1.0
C      1  0.4635020000000  0.5931090000000  0.5075410000000 1.0
C      1  0.5257430000000  0.3994420000000  0.4565200000000 1.0
C      1  0.4322660000000  0.5076600000000  0.5146320000000 1.0
C      1  0.4679780000000  0.5313580000000  0.6007820000000 1.0
C      1  0.5707310000000  0.5657360000000  0.5320870000000 1.0
C      1  0.5314490000000  0.5047470000000  0.5343120000000 1.0
C      1  0.5506340000000  0.6001100000000  0.4604190000000 1.0
C      1  0.4951970000000  0.5616610000000  0.5208260000000 1.0
C      1  0.4167210000000  0.5585270000000  0.5310370000000 1.0
C      1  0.4762590000000  0.4395070000000  0.5018970000000 1.0
C      1  0.5766450000000  0.4585460000000  0.5390520000000 1.0
C      1  0.4458660000000  0.5663230000000  0.5654910000000 1.0
C      1  0.4146450000000  0.4692930000000  0.4355960000000 1.0
C      1  0.5403640000000  0.5436350000000  0.4229700000000 1.0
C      1  0.5778690000000  0.4850040000000  0.4938430000000 1.0
C      1  0.4863990000000  0.5913550000000  0.5587220000000 1.0
C      1  0.4499090000000  0.4826490000000  0.5858600000000 1.0
C      1  0.5602360000000  0.5790750000000  0.4437300000000 1.0
C      1  0.5484050000000  0.4185060000000  0.5238980000000 1.0
C      1  0.3953010000000  0.4760710000000  0.5085550000000 1.0
C      1  0.4800600000000  0.4830010000000  0.3834270000000 1.0
C      1  0.4832230000000  0.3879790000000  0.5048220000000 1.0
C      1  0.4067520000000  0.5456930000000  0.5568850000000 1.0
C      1  0.4726130000000  0.4900020000000  0.5249080000000 1.0
C      1  0.4889020000000  0.5113250000000  0.6053560000000 1.0
C      1  0.5376190000000  0.5428940000000  0.5066150000000 1.0
C      1  0.4655070000000  0.5629520000000  0.5172470000000 1.0
C      1  0.5353280000000  0.4834240000000  0.5101370000000 1.0
C      1  0.4731650000000  0.4956180000000  0.5659760000000 1.0
C      1  0.4532900000000  0.4348240000000  0.5241680000000 1.0
C      1  0.5447390000000  0.5708430000000  0.5201550000000 1.0
C      1  0.5171910000000  0.5830010000000  0.5295640000000 1.0
C      1  0.5183650000000  0.4185140000000  0.5285520000000 1.0
C      1  0.5960840000000  0.5372450000000  0.4565900000000 1.0
C      1  0.5473470000000  0.4349910000000  0.5709530000000 1.0
C      1  0.4774920000000  0.4263010000000  0.4163490000000 1.0
C      1  0.4358420000000  0.4253120000000  0.5011510000000 1.0
C      1  0.5366050000000  0.4973390000000  0.4801360000000 1.0
C      1  0.6101840000000  0.4901060000000  0.4731230000000 1.0
C      1  0.5848460000000  0.5514360000000  0.5075560000000 1.0
C      1  0.4249340000000  0.5411110000000  0.4290240000000 1.0
C      1  0.4985720000000  0.4424450000000  0.4072610000000 1.0
C      1  0.4995690000000  0.5065050000000  0.5762970000000 1.0
C      1  0.4999280000000  0.4545870000000  0.4665570000000 1.0
C      1  0.4505440000000  0.4381290000000  0.4150740000000 1.0
C      1  0.4669350000000  0.5473340000000  0.4238660000000 1.0
C      1  0.5479540000000  0.4984370000000  0.4274480000000 1.0
C      1  0.4788830000000  0.4435600000000  0.6028280000000 1.0
C      1  0.5845390000000  0.4640220000000  0.4298290000000 1.0
C      1  0.4185480000000  0.5645840000000  0.5020240000000 1.0
C      1  0.4521500000000  0.4835900000000  0.3889080000000 1.0
C      1  0.5591260000000  0.4303440000000  0.4527660000000 1.0
C      1  0.5479600000000  0.4673130000000  0.3966150000000 1.0
C      1  0.4369390000000  0.4347860000000  0.5788850000000 1.0
C      1  0.5584470000000  0.4564180000000  0.5853300000000 1.0
C      1  0.5610690000000  0.4179970000000  0.4980020000000 1.0
C      1  0.4586850000000  0.4209670000000  0.4823110000000 1.0
C      1  0.5149880000000  0.5175280000000  0.4728920000000 1.0
C      1  0.4750680000000  0.5524490000000  0.4732780000000 1.0
C      1  0.5786580000000  0.4944540000000  0.5769100000000 1.0
C      1  0.5292160000000  0.5458170000000  0.5845820000000 1.0
C      1  0.5076120000000  0.4383820000000  0.5065570000000 1.0
C      1  0.4736310000000  0.6008820000000  0.5353600000000 1.0
C      1  0.4901110000000  0.4885250000000  0.4354520000000 1.0
C      1  0.5207050000000  0.4430600000000  0.4809460000000 1.0
C      1  0.5008320000000  0.5166830000000  0.4442130000000 1.0
C      1  0.5619250000000  0.5095640000000  0.5321180000000 1.0
C      1  0.5568420000000  0.5245630000000  0.4344430000000 1.0
C      1  0.4268510000000  0.5500910000000  0.5780500000000 1.0
C      1  0.4170910000000  0.4948330000000  0.4205750000000 1.0
C      1  0.4063910000000  0.4997990000000  0.5760980000000 1.0
C      1  0.5582470000000  0.5008990000000  0.5955840000000 1.0
C      1  0.4771810000000  0.4714590000000  0.5486040000000 1.0
C      1  0.6080780000000  0.5129400000000  0.5428530000000 1.0
C      1  0.5148770000000  0.5260930000000  0.5205500000000 1.0
C      1  0.5058340000000  0.4640990000000  0.5459840000000 1.0
C      1  0.4683830000000  0.5357670000000  0.4965770000000 1.0
C      1  0.5235070000000  0.6065340000000  0.5102230000000 1.0
C      1  0.5366200000000  0.4798030000000  0.4547220000000 1.0
C      1  0.6089810000000  0.5306260000000  0.5008730000000 1.0
C      1  0.4819400000000  0.5507400000000  0.5862650000000 1.0
C      1  0.5811500000000  0.5712830000000  0.4853020000000 1.0
C      1  0.5097740000000  0.6129640000000  0.4871980000000 1.0
C      1  0.4968710000000  0.5679160000000  0.4868700000000 1.0
C      1  0.5441730000000  0.4758200000000  0.6018640000000 1.0
C      1  0.5036610000000  0.5362470000000  0.5714610000000 1.0
C      1  0.6072270000000  0.4824460000000  0.5017800000000 1.0
C      1  0.4706710000000  0.5155470000000  0.5417580000000 1.0
END
