TITL C-33283-4968-6 192.653600371486 125000 -149.844573126678 0 0 23 (C1) n - 1
REM
REM in /rds/project/t2_vol4/rds-t2-cs072/BORA/CARBON/from-Arr/AIRSS/Generating-Clusters/GAP-ML-2020/Only-C1/SD-CG/HFTN-CG
REM
REM
REM
REM
REM
REM ./C.cell (11c1c37f851c82e70ff6c80c92926a4b)
REM AIRSS Version 0.9.1 bugfix July 2018 build 013d7b7c2542+ Fri, 06 Jul 2018 19:26:36 +0100
REM compiler GCC version 9.3.0
REM options -cpp -mtune=generic -march=x86-64 -g -O0
REM seed 544883603 8302990 -1171800870 -685431014 1922478652 -767748085 -1874162174 1100815236 -590790796 19056851 -1258819552 -1612527003 1950659305 179425880 -1985158979 897064088 -10318221 -80108112 563289834 -173654919 1008997703 1216141791 -2001156134 -503327222 -1543612877 -885023308 431974100 973880912 776822555 110479789 917798524 -1634164706 -1838228248
REM
CELL 1.54180   50.00000   50.00000   50.00000   90.00000   90.00000   90.00000
LATT -1
SFAC C  
C      1  0.5269070000000  0.4415730000000  0.4848950000000 1.0
C      1  0.5524600000000  0.4764620000000  0.5110000000000 1.0
C      1  0.4681130000000  0.5051040000000  0.4470080000000 1.0
C      1  0.4738550000000  0.5148100000000  0.5584640000000 1.0
C      1  0.4922860000000  0.5380720000000  0.5019610000000 1.0
C      1  0.4777860000000  0.4868870000000  0.4309010000000 1.0
C      1  0.4639120000000  0.5341250000000  0.5388960000000 1.0
C      1  0.4623990000000  0.5175610000000  0.4678600000000 1.0
C      1  0.5384040000000  0.4554660000000  0.5030400000000 1.0
C      1  0.5081960000000  0.4980100000000  0.5416600000000 1.0
C      1  0.5152470000000  0.4370610000000  0.4623740000000 1.0
C      1  0.5173300000000  0.5245970000000  0.5005070000000 1.0
C      1  0.4900220000000  0.4642540000000  0.4291050000000 1.0
C      1  0.4885570000000  0.5487870000000  0.5280010000000 1.0
C      1  0.5020650000000  0.5180950000000  0.5612760000000 1.0
C      1  0.4609930000000  0.5131790000000  0.5188610000000 1.0
C      1  0.4769220000000  0.4949780000000  0.5374940000000 1.0
C      1  0.5114040000000  0.5397360000000  0.5444740000000 1.0
C      1  0.5231710000000  0.5197710000000  0.5275290000000 1.0
C      1  0.4692340000000  0.5234950000000  0.4935590000000 1.0
C      1  0.5033110000000  0.4452630000000  0.4410070000000 1.0
C      1  0.5464970000000  0.4926400000000  0.4910840000000 1.0
C      1  0.5309300000000  0.5100720000000  0.4790450000000 1.0
END
