TITL C-33277-4850-9 30.8117102182841 125000 -300.143607652647 0 0 45 (C1) n - 1
REM
REM in /rds/project/t2_vol4/rds-t2-cs072/BORA/CARBON/from-Arr/AIRSS/Generating-Clusters/GAP-ML-2020/Only-C1/SD-CG/HFTN-CG
REM
REM
REM
REM
REM
REM ./C.cell (11c1c37f851c82e70ff6c80c92926a4b)
REM AIRSS Version 0.9.1 bugfix July 2018 build 013d7b7c2542+ Fri, 06 Jul 2018 19:26:36 +0100
REM compiler GCC version 9.3.0
REM options -cpp -mtune=generic -march=x86-64 -g -O0
REM seed 1446209261 -1930213297 1509637991 -223404572 1199461811 -1482940685 -2005843736 1038899473 339584833 2080506596 -1094567596 -372937022 -839240246 761399558 -1752132750 933798720 -1975204377 1868132661 1638407471 -637489531 -190122985 -1226142511 -1807100715 -694955177 -1967685813 -572857590 -1679960809 -1254439992 -570287827 -355241303 -1502375609 -1502178788 -599690851
REM
CELL 1.54180   50.00000   50.00000   50.00000   90.00000   90.00000   90.00000
LATT -1
SFAC C  
C      1  0.4498650000000  0.5389790000000  0.5275570000000 1.0
C      1  0.5109950000000  0.4909490000000  0.4726260000000 1.0
C      1  0.5341260000000  0.4772930000000  0.5433420000000 1.0
C      1  0.4643960000000  0.4627980000000  0.5373310000000 1.0
C      1  0.5075690000000  0.4929470000000  0.5117810000000 1.0
C      1  0.4898750000000  0.5401230000000  0.4912100000000 1.0
C      1  0.5573700000000  0.4983030000000  0.4634770000000 1.0
C      1  0.4668900000000  0.5062560000000  0.4644900000000 1.0
C      1  0.5419690000000  0.4770410000000  0.4510710000000 1.0
C      1  0.5149420000000  0.4865910000000  0.5609630000000 1.0
C      1  0.4580800000000  0.4934030000000  0.4906250000000 1.0
C      1  0.5527490000000  0.4982660000000  0.5379340000000 1.0
C      1  0.5210940000000  0.4508710000000  0.4985090000000 1.0
C      1  0.4966440000000  0.4377110000000  0.4911070000000 1.0
C      1  0.5239700000000  0.5381420000000  0.5258690000000 1.0
C      1  0.5036370000000  0.5261900000000  0.4466380000000 1.0
C      1  0.4769070000000  0.4876550000000  0.4455110000000 1.0
C      1  0.5254440000000  0.4843020000000  0.4294740000000 1.0
C      1  0.4831050000000  0.5293450000000  0.4659310000000 1.0
C      1  0.4707950000000  0.4441460000000  0.5017940000000 1.0
C      1  0.5510020000000  0.5250390000000  0.4581470000000 1.0
C      1  0.4276480000000  0.5259420000000  0.5151740000000 1.0
C      1  0.4607260000000  0.4642970000000  0.4830020000000 1.0
C      1  0.4893830000000  0.5280260000000  0.5629830000000 1.0
C      1  0.4984960000000  0.4485430000000  0.4636560000000 1.0
C      1  0.5470070000000  0.5239950000000  0.5323970000000 1.0
C      1  0.4676600000000  0.5432960000000  0.5711180000000 1.0
C      1  0.5235760000000  0.5063920000000  0.4924800000000 1.0
C      1  0.4723600000000  0.4885400000000  0.5390580000000 1.0
C      1  0.4991150000000  0.5349600000000  0.5374040000000 1.0
C      1  0.5228550000000  0.4634870000000  0.4699990000000 1.0
C      1  0.5281310000000  0.5378530000000  0.4511890000000 1.0
C      1  0.5524160000000  0.4999220000000  0.4913470000000 1.0
C      1  0.4600890000000  0.4393470000000  0.5278710000000 1.0
C      1  0.5378450000000  0.5458970000000  0.4761870000000 1.0
C      1  0.5191780000000  0.5374550000000  0.4966970000000 1.0
C      1  0.5641060000000  0.5097290000000  0.5141370000000 1.0
C      1  0.5193460000000  0.4681000000000  0.5202050000000 1.0
C      1  0.4498570000000  0.5504560000000  0.5533360000000 1.0
C      1  0.5032260000000  0.4981160000000  0.4390720000000 1.0
C      1  0.4785740000000  0.5003880000000  0.5133420000000 1.0
C      1  0.4747550000000  0.4621730000000  0.4581610000000 1.0
C      1  0.4773130000000  0.5312970000000  0.5164490000000 1.0
C      1  0.4332820000000  0.5058790000000  0.5008710000000 1.0
C      1  0.4916310000000  0.4995580000000  0.5584810000000 1.0
END
