TITL C-33256-5109-11 135.680902860269 125000 -283.782501919292 0 0 43 (C1) n - 1
REM
REM in /rds/project/t2_vol4/rds-t2-cs072/BORA/CARBON/from-Arr/AIRSS/Generating-Clusters/GAP-ML-2020/Only-C1/SD-CG/HFTN-CG
REM
REM
REM
REM
REM
REM ./C.cell (11c1c37f851c82e70ff6c80c92926a4b)
REM AIRSS Version 0.9.1 bugfix July 2018 build 013d7b7c2542+ Fri, 06 Jul 2018 19:26:36 +0100
REM compiler GCC version 9.3.0
REM options -cpp -mtune=generic -march=x86-64 -g -O0
REM seed -520302895 139993429 1047039164 728562194 -1505479196 -513877162 941276226 155386917 -856989279 375436106 887947402 2076081515 214487487 173335518 -1210456639 -1594428082 1847800356 1378024186 -133196078 -63098228 -1577683208 590782217 1123422472 1943781276 -340747406 1410518358 416612006 -1328762800 -1660636639 -1766986556 682785017 -60962921 1815685438
REM
CELL 1.54180   50.00000   50.00000   50.00000   90.00000   90.00000   90.00000
LATT -1
SFAC C  
C      1  0.5443820000000  0.5197420000000  0.4817280000000 1.0
C      1  0.4617460000000  0.5147690000000  0.5431540000000 1.0
C      1  0.5284130000000  0.4666060000000  0.5277000000000 1.0
C      1  0.4627350000000  0.4848970000000  0.4857950000000 1.0
C      1  0.5426390000000  0.5086480000000  0.5095850000000 1.0
C      1  0.5531580000000  0.4988750000000  0.4659570000000 1.0
C      1  0.4494590000000  0.5362890000000  0.5304730000000 1.0
C      1  0.4692700000000  0.5515340000000  0.5155000000000 1.0
C      1  0.5078080000000  0.5743910000000  0.5007620000000 1.0
C      1  0.4928790000000  0.5138490000000  0.5444750000000 1.0
C      1  0.5109070000000  0.4843900000000  0.4802280000000 1.0
C      1  0.4992880000000  0.5125930000000  0.4754760000000 1.0
C      1  0.4966290000000  0.4977380000000  0.4361300000000 1.0
C      1  0.5093740000000  0.5368850000000  0.5338570000000 1.0
C      1  0.5154050000000  0.5587990000000  0.4824740000000 1.0
C      1  0.4421490000000  0.4848800000000  0.5083640000000 1.0
C      1  0.4615110000000  0.5348510000000  0.4917160000000 1.0
C      1  0.5188000000000  0.4441950000000  0.5082380000000 1.0
C      1  0.5338750000000  0.5287660000000  0.5265790000000 1.0
C      1  0.5241300000000  0.4779620000000  0.5545200000000 1.0
C      1  0.4950590000000  0.5583940000000  0.5211230000000 1.0
C      1  0.4353960000000  0.5293950000000  0.5051380000000 1.0
C      1  0.5192030000000  0.4883800000000  0.5092360000000 1.0
C      1  0.4928310000000  0.4963120000000  0.5198880000000 1.0
C      1  0.5202020000000  0.5328050000000  0.4755890000000 1.0
C      1  0.5157360000000  0.4803710000000  0.4353040000000 1.0
C      1  0.4861950000000  0.4680880000000  0.4818030000000 1.0
C      1  0.5654490000000  0.4865610000000  0.5075530000000 1.0
C      1  0.4745870000000  0.4474980000000  0.5210210000000 1.0
C      1  0.4784760000000  0.5092460000000  0.4966420000000 1.0
C      1  0.4269810000000  0.5052990000000  0.4946660000000 1.0
C      1  0.5521410000000  0.4579820000000  0.4712460000000 1.0
C      1  0.4559350000000  0.5216470000000  0.4585740000000 1.0
C      1  0.5092600000000  0.4969770000000  0.5629590000000 1.0
C      1  0.5562460000000  0.4618640000000  0.5172720000000 1.0
C      1  0.4824760000000  0.5156170000000  0.4508350000000 1.0
C      1  0.5319090000000  0.4775310000000  0.4598330000000 1.0
C      1  0.5447820000000  0.4451400000000  0.4953110000000 1.0
C      1  0.4923570000000  0.4468620000000  0.4997940000000 1.0
C      1  0.4423720000000  0.5000370000000  0.4692380000000 1.0
C      1  0.4524470000000  0.4894230000000  0.5339450000000 1.0
C      1  0.5704070000000  0.4809350000000  0.4795320000000 1.0
C      1  0.4749960000000  0.4729760000000  0.5307870000000 1.0
END
