TITL C-33276-4985-1 0.0438708221234762 125000 -214.012437431543 0 0 33 (C1) n - 1
REM
REM in /rds/project/t2_vol4/rds-t2-cs072/BORA/CARBON/from-Arr/AIRSS/Generating-Clusters/GAP-ML-2020/Only-C1/SD-CG/HFTN-CG
REM
REM
REM
REM
REM
REM ./C.cell (11c1c37f851c82e70ff6c80c92926a4b)
REM AIRSS Version 0.9.1 bugfix July 2018 build 013d7b7c2542+ Fri, 06 Jul 2018 19:26:36 +0100
REM compiler GCC version 9.3.0
REM options -cpp -mtune=generic -march=x86-64 -g -O0
REM seed -1084925943 -454522318 -989120685 1828215447 -1728289803 -734182306 1132430020 -915004757 -454246250 548929105 2105675917 -633155062 -352835517 -113258311 1807977946 -643183805 359367387 860772671 -1126327176 -319376202 -1370139652 -361385858 1333925828 -1498490328 904297946 -1971529379 -1183896121 298190660 -842881511 943517763 -309509564 -1023368413 -1853036037
REM
CELL 1.54180   50.00000   50.00000   50.00000   90.00000   90.00000   90.00000
LATT -1
SFAC C  
C      1  0.5450850000000  0.4889950000000  0.5107860000000 1.0
C      1  0.4917780000000  0.5508980000000  0.5003000000000 1.0
C      1  0.5110850000000  0.4679130000000  0.4546090000000 1.0
C      1  0.5092800000000  0.5368940000000  0.4809450000000 1.0
C      1  0.4672040000000  0.5120940000000  0.4863690000000 1.0
C      1  0.4862550000000  0.4713910000000  0.4406820000000 1.0
C      1  0.5378340000000  0.4665780000000  0.4626650000000 1.0
C      1  0.5078980000000  0.5093810000000  0.5609080000000 1.0
C      1  0.5374370000000  0.4719010000000  0.5306870000000 1.0
C      1  0.4702400000000  0.5230860000000  0.5333300000000 1.0
C      1  0.4992240000000  0.4834370000000  0.4998150000000 1.0
C      1  0.4542170000000  0.4995700000000  0.4651010000000 1.0
C      1  0.5371530000000  0.5149460000000  0.5196800000000 1.0
C      1  0.4816350000000  0.4429380000000  0.5004070000000 1.0
C      1  0.4663560000000  0.4743080000000  0.4610510000000 1.0
C      1  0.4920360000000  0.5167850000000  0.4377070000000 1.0
C      1  0.4881370000000  0.4956280000000  0.4244010000000 1.0
C      1  0.5131910000000  0.5532770000000  0.5178520000000 1.0
C      1  0.4897490000000  0.5321580000000  0.5521260000000 1.0
C      1  0.5121530000000  0.4648720000000  0.5376920000000 1.0
C      1  0.5384790000000  0.4852760000000  0.4829550000000 1.0
C      1  0.5125020000000  0.5455800000000  0.5435150000000 1.0
C      1  0.5080060000000  0.5040860000000  0.5178690000000 1.0
C      1  0.4959930000000  0.5159800000000  0.4669940000000 1.0
C      1  0.5300690000000  0.5364680000000  0.5005990000000 1.0
C      1  0.4697300000000  0.5336130000000  0.5062370000000 1.0
C      1  0.5309360000000  0.5229970000000  0.5484420000000 1.0
C      1  0.4658330000000  0.4622230000000  0.4876050000000 1.0
C      1  0.5024770000000  0.4565380000000  0.5123380000000 1.0
C      1  0.4713200000000  0.4942510000000  0.5325660000000 1.0
C      1  0.5095820000000  0.4905200000000  0.4745260000000 1.0
C      1  0.4696560000000  0.4871360000000  0.5038690000000 1.0
C      1  0.4974710000000  0.4882820000000  0.5453710000000 1.0
END
