TITL C-33275-7044-6 0.21085928502687 125000 -856.16438857735 0 0 123 (C1) n - 1
REM
REM in /rds/project/t2_vol4/rds-t2-cs072/BORA/CARBON/from-Arr/AIRSS/Generating-Clusters/GAP-ML-2020/Only-C1/SD-CG/HFTN-CG
REM
REM
REM
REM
REM
REM ./C.cell (11c1c37f851c82e70ff6c80c92926a4b)
REM AIRSS Version 0.9.1 bugfix July 2018 build 013d7b7c2542+ Fri, 06 Jul 2018 19:26:36 +0100
REM compiler GCC version 9.3.0
REM options -cpp -mtune=generic -march=x86-64 -g -O0
REM seed 786230064 -580823722 -427064350 1037280355 1727081669 1787590598 -1724319424 322880732 -845641352 2126001745 -278854145 -1058489331 -198459394 2046196120 -877548721 212567587 -117449257 -1667079590 -783776131 -994962616 -1361786753 1542009603 -1133857600 -1222414112 1598719664 288958230 -1216883985 1812252608 -1416878660 -156170366 -1830950285 2064965599 494424650
REM
CELL 1.54180   50.00000   50.00000   50.00000   90.00000   90.00000   90.00000
LATT -1
SFAC C  
C      1  0.4774710000000  0.5789160000000  0.4778160000000 1.0
C      1  0.4932910000000  0.4129260000000  0.5064010000000 1.0
C      1  0.4680110000000  0.4131040000000  0.4931670000000 1.0
C      1  0.4660820000000  0.4870720000000  0.4782860000000 1.0
C      1  0.5163390000000  0.4711640000000  0.4630640000000 1.0
C      1  0.5430980000000  0.4199430000000  0.5065940000000 1.0
C      1  0.5231200000000  0.5899310000000  0.4846260000000 1.0
C      1  0.4721850000000  0.4271650000000  0.5724020000000 1.0
C      1  0.4452750000000  0.4284340000000  0.5028320000000 1.0
C      1  0.5379300000000  0.4320420000000  0.4485730000000 1.0
C      1  0.5246970000000  0.4892600000000  0.5787760000000 1.0
C      1  0.4509340000000  0.5254940000000  0.4846490000000 1.0
C      1  0.4935800000000  0.4167850000000  0.4507280000000 1.0
C      1  0.4374780000000  0.5329960000000  0.5298660000000 1.0
C      1  0.5820430000000  0.5428090000000  0.4971860000000 1.0
C      1  0.4929610000000  0.4249640000000  0.5324510000000 1.0
C      1  0.5188160000000  0.4117190000000  0.4919670000000 1.0
C      1  0.5622040000000  0.5786860000000  0.4740590000000 1.0
C      1  0.4506210000000  0.5781860000000  0.5482350000000 1.0
C      1  0.5717710000000  0.4885330000000  0.4611020000000 1.0
C      1  0.4937950000000  0.5212790000000  0.5083260000000 1.0
C      1  0.4709840000000  0.4429290000000  0.5441130000000 1.0
C      1  0.6125900000000  0.5056390000000  0.5021710000000 1.0
C      1  0.4587130000000  0.5871470000000  0.5224370000000 1.0
C      1  0.5345850000000  0.5464060000000  0.4900150000000 1.0
C      1  0.5227970000000  0.4769590000000  0.5337920000000 1.0
C      1  0.3967640000000  0.5340310000000  0.4860060000000 1.0
C      1  0.5034000000000  0.5199720000000  0.5366840000000 1.0
C      1  0.4957240000000  0.4824460000000  0.4106970000000 1.0
C      1  0.4021830000000  0.5124900000000  0.5028710000000 1.0
C      1  0.5901380000000  0.5199650000000  0.5398280000000 1.0
C      1  0.5143060000000  0.5026310000000  0.4946230000000 1.0
C      1  0.5738130000000  0.5706430000000  0.4972220000000 1.0
C      1  0.5297200000000  0.5062460000000  0.5330740000000 1.0
C      1  0.4586750000000  0.4383090000000  0.4279470000000 1.0
C      1  0.4764990000000  0.5848340000000  0.5588760000000 1.0
C      1  0.4709110000000  0.5324640000000  0.4632300000000 1.0
C      1  0.4910280000000  0.5521900000000  0.4728060000000 1.0
C      1  0.5779860000000  0.4727750000000  0.4870980000000 1.0
C      1  0.4746420000000  0.4607970000000  0.4795690000000 1.0
C      1  0.4730290000000  0.5283450000000  0.4185680000000 1.0
C      1  0.4460530000000  0.4433270000000  0.5276880000000 1.0
C      1  0.5578990000000  0.5200160000000  0.5763790000000 1.0
C      1  0.4870640000000  0.5609210000000  0.5685150000000 1.0
C      1  0.5446120000000  0.4842100000000  0.3967310000000 1.0
C      1  0.4361060000000  0.4926930000000  0.5918220000000 1.0
C      1  0.5315930000000  0.5541950000000  0.5622130000000 1.0
C      1  0.5123370000000  0.5644460000000  0.4180050000000 1.0
C      1  0.5110160000000  0.4702910000000  0.5603350000000 1.0
C      1  0.4178330000000  0.4875630000000  0.5430120000000 1.0
C      1  0.4483030000000  0.4226200000000  0.4498020000000 1.0
C      1  0.4760560000000  0.4687890000000  0.5855140000000 1.0
C      1  0.5200310000000  0.4965710000000  0.4053360000000 1.0
C      1  0.5663260000000  0.4780410000000  0.5521320000000 1.0
C      1  0.4251690000000  0.4636800000000  0.5269280000000 1.0
C      1  0.5067820000000  0.5504920000000  0.5477320000000 1.0
C      1  0.5608690000000  0.4744550000000  0.4139740000000 1.0
C      1  0.5295670000000  0.5204980000000  0.4502040000000 1.0
C      1  0.4390700000000  0.5481830000000  0.4986180000000 1.0
C      1  0.5115010000000  0.5134300000000  0.5852670000000 1.0
C      1  0.5070550000000  0.4767430000000  0.5086490000000 1.0
C      1  0.5037380000000  0.5674030000000  0.5229870000000 1.0
C      1  0.4790360000000  0.5024830000000  0.5500610000000 1.0
C      1  0.4817110000000  0.5039780000000  0.4578710000000 1.0
C      1  0.5496020000000  0.4633720000000  0.5311880000000 1.0
C      1  0.5958790000000  0.4844530000000  0.5088960000000 1.0
C      1  0.5206590000000  0.5473720000000  0.4652440000000 1.0
C      1  0.5267000000000  0.5797100000000  0.4327290000000 1.0
C      1  0.4971160000000  0.5971790000000  0.4831140000000 1.0
C      1  0.4995830000000  0.5395570000000  0.4148630000000 1.0
C      1  0.5863090000000  0.4917960000000  0.5378490000000 1.0
C      1  0.4691820000000  0.4118490000000  0.4650140000000 1.0
C      1  0.4589730000000  0.5695470000000  0.4997160000000 1.0
C      1  0.4276900000000  0.4436270000000  0.4851950000000 1.0
C      1  0.4304150000000  0.4434840000000  0.4571150000000 1.0
C      1  0.4863740000000  0.5903530000000  0.5325540000000 1.0
C      1  0.5011230000000  0.4603470000000  0.4861830000000 1.0
C      1  0.4682040000000  0.5065610000000  0.5028640000000 1.0
C      1  0.4137570000000  0.4909380000000  0.4883160000000 1.0
C      1  0.6008210000000  0.5288680000000  0.5134910000000 1.0
C      1  0.5023920000000  0.4557660000000  0.4198410000000 1.0
C      1  0.5295230000000  0.5715870000000  0.5076860000000 1.0
C      1  0.4550890000000  0.5385620000000  0.4392200000000 1.0
C      1  0.4457600000000  0.4882040000000  0.4279720000000 1.0
C      1  0.5723290000000  0.5350100000000  0.5563090000000 1.0
C      1  0.4798920000000  0.5144050000000  0.5794940000000 1.0
C      1  0.5638480000000  0.4429300000000  0.4534570000000 1.0
C      1  0.4409810000000  0.4607980000000  0.4335150000000 1.0
C      1  0.5124450000000  0.4433750000000  0.5707470000000 1.0
C      1  0.5693850000000  0.4690850000000  0.4403550000000 1.0
C      1  0.4185350000000  0.5441800000000  0.4740610000000 1.0
C      1  0.4317410000000  0.5069240000000  0.4447650000000 1.0
C      1  0.4641800000000  0.4923960000000  0.5943620000000 1.0
C      1  0.5556220000000  0.5715670000000  0.5218690000000 1.0
C      1  0.4579360000000  0.5079860000000  0.5295500000000 1.0
C      1  0.4866270000000  0.4342190000000  0.4280770000000 1.0
C      1  0.5561450000000  0.5577880000000  0.5471420000000 1.0
C      1  0.5576580000000  0.5138510000000  0.4616600000000 1.0
C      1  0.5109800000000  0.4998580000000  0.4643310000000 1.0
C      1  0.5403230000000  0.4341280000000  0.5312290000000 1.0
C      1  0.4464110000000  0.5501150000000  0.5530670000000 1.0
C      1  0.5328330000000  0.5328850000000  0.5814420000000 1.0
C      1  0.5355470000000  0.5754540000000  0.4606270000000 1.0
C      1  0.4884990000000  0.4416870000000  0.5878010000000 1.0
C      1  0.5172510000000  0.4282840000000  0.5469510000000 1.0
C      1  0.5530090000000  0.4922010000000  0.5731990000000 1.0
C      1  0.4168750000000  0.4653980000000  0.4999560000000 1.0
C      1  0.4368880000000  0.5002320000000  0.4726620000000 1.0
C      1  0.5225910000000  0.4551790000000  0.4394450000000 1.0
C      1  0.5193400000000  0.4153640000000  0.4629430000000 1.0
C      1  0.5753300000000  0.4432030000000  0.4795910000000 1.0
C      1  0.5558230000000  0.4784080000000  0.5049170000000 1.0
C      1  0.5686430000000  0.4223360000000  0.4956240000000 1.0
C      1  0.4224590000000  0.4886600000000  0.5707100000000 1.0
C      1  0.4815980000000  0.4726140000000  0.5565750000000 1.0
C      1  0.4743810000000  0.4984890000000  0.4246530000000 1.0
C      1  0.5572760000000  0.5272180000000  0.4890860000000 1.0
C      1  0.4882300000000  0.5504870000000  0.5039080000000 1.0
C      1  0.4279410000000  0.5349270000000  0.4459460000000 1.0
C      1  0.4143170000000  0.5135120000000  0.5283450000000 1.0
C      1  0.5209450000000  0.5205910000000  0.4213080000000 1.0
C      1  0.5427350000000  0.5057890000000  0.5057070000000 1.0
C      1  0.4673840000000  0.5416860000000  0.5730580000000 1.0
END
