TITL C-33273-4823-5 195.118085485282 125000 -344.922491293085 0 0 51 (C1) n - 1
REM
REM in /rds/project/t2_vol4/rds-t2-cs072/BORA/CARBON/from-Arr/AIRSS/Generating-Clusters/GAP-ML-2020/Only-C1/SD-CG/HFTN-CG
REM
REM
REM
REM
REM
REM ./C.cell (11c1c37f851c82e70ff6c80c92926a4b)
REM AIRSS Version 0.9.1 bugfix July 2018 build 013d7b7c2542+ Fri, 06 Jul 2018 19:26:36 +0100
REM compiler GCC version 9.3.0
REM options -cpp -mtune=generic -march=x86-64 -g -O0
REM seed -2017955468 1558334196 1115713529 -1401911759 -1471386592 -2142592255 884328991 -1247042246 -417107603 -1451159281 2014380094 528623543 -1719283669 -1280007195 -453840364 -642664926 -1550540216 -630362530 -1188677658 -228959091 853522741 784665173 -231559440 514182499 1138837641 -642433699 1207165931 -1794846991 -454941468 392392115 -959004400 -1881124646 1882845348
REM
CELL 1.54180   50.00000   50.00000   50.00000   90.00000   90.00000   90.00000
LATT -1
SFAC C  
C      1  0.5290210000000  0.5576630000000  0.5314760000000 1.0
C      1  0.5153560000000  0.4442680000000  0.5000360000000 1.0
C      1  0.5367300000000  0.5112720000000  0.5483040000000 1.0
C      1  0.4832180000000  0.4809640000000  0.5080600000000 1.0
C      1  0.5472740000000  0.5362280000000  0.5348590000000 1.0
C      1  0.5308190000000  0.5279720000000  0.4717890000000 1.0
C      1  0.5524530000000  0.4801170000000  0.4641550000000 1.0
C      1  0.5111730000000  0.4520160000000  0.4726530000000 1.0
C      1  0.5239990000000  0.5067660000000  0.4945260000000 1.0
C      1  0.4342910000000  0.4997110000000  0.4466860000000 1.0
C      1  0.4599240000000  0.5349820000000  0.4720850000000 1.0
C      1  0.4559380000000  0.4873900000000  0.4398460000000 1.0
C      1  0.5072500000000  0.5183040000000  0.5143040000000 1.0
C      1  0.4806070000000  0.4775000000000  0.4474270000000 1.0
C      1  0.4556850000000  0.5379850000000  0.5008150000000 1.0
C      1  0.5088270000000  0.5033380000000  0.5423470000000 1.0
C      1  0.4946900000000  0.5022770000000  0.4942880000000 1.0
C      1  0.4913240000000  0.5680820000000  0.5009880000000 1.0
C      1  0.5281630000000  0.4624750000000  0.5178130000000 1.0
C      1  0.5077570000000  0.5564510000000  0.5495000000000 1.0
C      1  0.4601210000000  0.4528160000000  0.5417330000000 1.0
C      1  0.4842420000000  0.5443810000000  0.5442460000000 1.0
C      1  0.5048700000000  0.4745580000000  0.5330800000000 1.0
C      1  0.4967110000000  0.5615110000000  0.4728990000000 1.0
C      1  0.4688930000000  0.4271000000000  0.5032930000000 1.0
C      1  0.4475410000000  0.4399440000000  0.5197920000000 1.0
C      1  0.5710510000000  0.5109830000000  0.4929440000000 1.0
C      1  0.5640740000000  0.4834650000000  0.4909620000000 1.0
C      1  0.4884220000000  0.4502220000000  0.5389560000000 1.0
C      1  0.4858790000000  0.5381930000000  0.4605750000000 1.0
C      1  0.5594800000000  0.5209380000000  0.4668680000000 1.0
C      1  0.4636020000000  0.4982660000000  0.5609100000000 1.0
C      1  0.5655690000000  0.5197380000000  0.5195940000000 1.0
C      1  0.5077540000000  0.5196610000000  0.4531130000000 1.0
C      1  0.4632400000000  0.4441450000000  0.4810360000000 1.0
C      1  0.5565010000000  0.4960150000000  0.5345200000000 1.0
C      1  0.5059430000000  0.4918260000000  0.4479220000000 1.0
C      1  0.4733540000000  0.5529180000000  0.5172340000000 1.0
C      1  0.4409340000000  0.5130090000000  0.4705180000000 1.0
C      1  0.4441840000000  0.4596400000000  0.4991020000000 1.0
C      1  0.5622000000000  0.5011990000000  0.4480310000000 1.0
C      1  0.5246620000000  0.5564880000000  0.4795540000000 1.0
C      1  0.5200580000000  0.5673910000000  0.5064400000000 1.0
C      1  0.5529590000000  0.4748340000000  0.5161820000000 1.0
C      1  0.5257060000000  0.4730830000000  0.4600240000000 1.0
C      1  0.4521760000000  0.4806730000000  0.5435800000000 1.0
C      1  0.4935150000000  0.4339310000000  0.5151190000000 1.0
C      1  0.4836040000000  0.4534530000000  0.4636400000000 1.0
C      1  0.4839710000000  0.5159130000000  0.5545340000000 1.0
C      1  0.4524240000000  0.4861850000000  0.5119700000000 1.0
C      1  0.4418610000000  0.5117580000000  0.4996750000000 1.0
END
