TITL C-33262-4899-7 -0.044289746387009 125000 -126.750074402081 0 0 20 (C1) n - 1
REM
REM in /rds/project/t2_vol4/rds-t2-cs072/BORA/CARBON/from-Arr/AIRSS/Generating-Clusters/GAP-ML-2020/Only-C1/SD-CG/HFTN-CG
REM
REM
REM
REM
REM
REM ./C.cell (11c1c37f851c82e70ff6c80c92926a4b)
REM AIRSS Version 0.9.1 bugfix July 2018 build 013d7b7c2542+ Fri, 06 Jul 2018 19:26:36 +0100
REM compiler GCC version 9.3.0
REM options -cpp -mtune=generic -march=x86-64 -g -O0
REM seed 1898813672 1504226926 1976837827 1958555677 -774515649 1350830871 -803949446 1272286203 695292017 1865137139 -579461808 -478717230 568385692 -1426273257 723980970 -382926645 382499583 -2067268695 2145325344 -934669388 889479993 511600743 1344373779 -1956063360 1051943146 211436416 -1382948609 585646761 -224539811 1123260600 -1459622993 1932205893 -916132684
REM
CELL 1.54180   50.00000   50.00000   50.00000   90.00000   90.00000   90.00000
LATT -1
SFAC C  
C      1  0.5458680000000  0.4663270000000  0.5064290000000 1.0
C      1  0.5154680000000  0.5331440000000  0.4938890000000 1.0
C      1  0.4750020000000  0.5484290000000  0.4964090000000 1.0
C      1  0.4972000000000  0.5522250000000  0.5092960000000 1.0
C      1  0.4520300000000  0.4957290000000  0.4883300000000 1.0
C      1  0.5317270000000  0.4859070000000  0.4916260000000 1.0
C      1  0.4834280000000  0.4861380000000  0.5286280000000 1.0
C      1  0.5208050000000  0.5083650000000  0.5063030000000 1.0
C      1  0.4587400000000  0.5424000000000  0.4767130000000 1.0
C      1  0.4964460000000  0.4653020000000  0.5435480000000 1.0
C      1  0.5132760000000  0.4439510000000  0.5360140000000 1.0
C      1  0.5189040000000  0.4839040000000  0.4664580000000 1.0
C      1  0.4777930000000  0.5064680000000  0.4478860000000 1.0
C      1  0.4622210000000  0.5151870000000  0.4693100000000 1.0
C      1  0.5084500000000  0.5027620000000  0.5312510000000 1.0
C      1  0.5213600000000  0.4823190000000  0.5480390000000 1.0
C      1  0.4995640000000  0.4924540000000  0.4525820000000 1.0
C      1  0.5211600000000  0.5378720000000  0.4676270000000 1.0
C      1  0.5351290000000  0.4623490000000  0.5310860000000 1.0
C      1  0.4654300000000  0.4887690000000  0.5085790000000 1.0
END
