TITL C-33263-4851-4 -514.774001302821 125000 -653.462136571939 0 0 95 (C1) n - 1
REM
REM in /rds/project/t2_vol4/rds-t2-cs072/BORA/CARBON/from-Arr/AIRSS/Generating-Clusters/GAP-ML-2020/Only-C1/SD-CG/HFTN-CG
REM
REM
REM
REM
REM
REM ./C.cell (11c1c37f851c82e70ff6c80c92926a4b)
REM AIRSS Version 0.9.1 bugfix July 2018 build 013d7b7c2542+ Fri, 06 Jul 2018 19:26:36 +0100
REM compiler GCC version 9.3.0
REM options -cpp -mtune=generic -march=x86-64 -g -O0
REM seed 1337519875 -1343444975 1505342890 1105516245 819830141 -1244072076 -1683663774 278216467 -1135021716 1634068802 1465259304 -1980897695 1231052912 -1028583723 -1103122547 -2009395274 364514897 -205870234 629756565 1855989116 -1119972329 912121865 979133078 1152431063 1518616914 1376329630 447246546 939464148 -1679490441 1212858908 1674042917 -2065168840 -1008929697
REM
CELL 1.54180   50.00000   50.00000   50.00000   90.00000   90.00000   90.00000
LATT -1
SFAC C  
C      1  0.5387630000000  0.4893780000000  0.5617880000000 1.0
C      1  0.5117130000000  0.4209310000000  0.4674360000000 1.0
C      1  0.4465480000000  0.5016460000000  0.4527390000000 1.0
C      1  0.4372940000000  0.4302710000000  0.5161150000000 1.0
C      1  0.4233580000000  0.4532690000000  0.5069200000000 1.0
C      1  0.5225170000000  0.5809330000000  0.5150720000000 1.0
C      1  0.5449330000000  0.5462550000000  0.5498760000000 1.0
C      1  0.4222900000000  0.4759510000000  0.4888220000000 1.0
C      1  0.4933250000000  0.5063650000000  0.4311520000000 1.0
C      1  0.5361640000000  0.4151650000000  0.4545390000000 1.0
C      1  0.5698080000000  0.5084500000000  0.5286970000000 1.0
C      1  0.4747390000000  0.5539530000000  0.5566720000000 1.0
C      1  0.5225860000000  0.5550840000000  0.5650380000000 1.0
C      1  0.5078350000000  0.4784750000000  0.4708850000000 1.0
C      1  0.5507630000000  0.5040490000000  0.4336490000000 1.0
C      1  0.5434170000000  0.4298360000000  0.5175540000000 1.0
C      1  0.5179800000000  0.4377330000000  0.5567170000000 1.0
C      1  0.4830540000000  0.5496250000000  0.4517960000000 1.0
C      1  0.5366060000000  0.4780090000000  0.4338430000000 1.0
C      1  0.4260330000000  0.5266120000000  0.4890500000000 1.0
C      1  0.5523750000000  0.4620990000000  0.4522860000000 1.0
C      1  0.5513890000000  0.4363440000000  0.4645100000000 1.0
C      1  0.4615060000000  0.4164700000000  0.5171160000000 1.0
C      1  0.4685630000000  0.4419150000000  0.4461000000000 1.0
C      1  0.4544820000000  0.5840450000000  0.5265080000000 1.0
C      1  0.5422820000000  0.4436960000000  0.5428760000000 1.0
C      1  0.4728190000000  0.4473910000000  0.5585300000000 1.0
C      1  0.5324580000000  0.4905430000000  0.5098360000000 1.0
C      1  0.4244460000000  0.5469080000000  0.5104150000000 1.0
C      1  0.5815290000000  0.5417390000000  0.4898110000000 1.0
C      1  0.5022350000000  0.5074700000000  0.5334960000000 1.0
C      1  0.5204270000000  0.4125060000000  0.5174190000000 1.0
C      1  0.5680220000000  0.5669420000000  0.4988670000000 1.0
C      1  0.4919840000000  0.5165160000000  0.5082060000000 1.0
C      1  0.4684640000000  0.5090690000000  0.4740000000000 1.0
C      1  0.4428790000000  0.5698130000000  0.5067380000000 1.0
C      1  0.4608310000000  0.5588800000000  0.4851510000000 1.0
C      1  0.4856480000000  0.4914030000000  0.4890830000000 1.0
C      1  0.5303610000000  0.4957230000000  0.4800010000000 1.0
C      1  0.4435830000000  0.4904240000000  0.5517370000000 1.0
C      1  0.5096540000000  0.5276530000000  0.4183010000000 1.0
C      1  0.4908240000000  0.5607840000000  0.4803740000000 1.0
C      1  0.5088480000000  0.5364490000000  0.4930080000000 1.0
C      1  0.4627940000000  0.5093750000000  0.5606040000000 1.0
C      1  0.5671450000000  0.4669590000000  0.4966330000000 1.0
C      1  0.4843600000000  0.4709240000000  0.5093940000000 1.0
C      1  0.5057270000000  0.5866040000000  0.5380830000000 1.0
C      1  0.5667170000000  0.5250750000000  0.5068040000000 1.0
C      1  0.5495650000000  0.5161360000000  0.5485660000000 1.0
C      1  0.5581720000000  0.5801860000000  0.4777060000000 1.0
C      1  0.4206180000000  0.5005640000000  0.5026340000000 1.0
C      1  0.4813260000000  0.4231430000000  0.4635230000000 1.0
C      1  0.4765610000000  0.5794340000000  0.5424590000000 1.0
C      1  0.4264250000000  0.5045980000000  0.5310970000000 1.0
C      1  0.5604360000000  0.4820420000000  0.4715940000000 1.0
C      1  0.4477690000000  0.4620310000000  0.5538070000000 1.0
C      1  0.5456890000000  0.5622990000000  0.5211880000000 1.0
C      1  0.5372720000000  0.5368840000000  0.5083680000000 1.0
C      1  0.5292430000000  0.5160480000000  0.5269530000000 1.0
C      1  0.4342080000000  0.5289460000000  0.4583850000000 1.0
C      1  0.4791510000000  0.4664940000000  0.4336160000000 1.0
C      1  0.4307750000000  0.4503780000000  0.5341360000000 1.0
C      1  0.5061110000000  0.4068820000000  0.4941510000000 1.0
C      1  0.4893120000000  0.5208200000000  0.4565890000000 1.0
C      1  0.4330410000000  0.4767530000000  0.4617180000000 1.0
C      1  0.5177530000000  0.5235510000000  0.4689870000000 1.0
C      1  0.4999070000000  0.4576700000000  0.5669680000000 1.0
C      1  0.4920180000000  0.4460360000000  0.5001800000000 1.0
C      1  0.5523750000000  0.4693990000000  0.5466990000000 1.0
C      1  0.4567580000000  0.5337260000000  0.5461260000000 1.0
C      1  0.5135550000000  0.5777200000000  0.4866780000000 1.0
C      1  0.4973850000000  0.5400060000000  0.5668760000000 1.0
C      1  0.5835820000000  0.5271650000000  0.4665980000000 1.0
C      1  0.4769370000000  0.4232120000000  0.5418250000000 1.0
C      1  0.5711870000000  0.5051840000000  0.4553020000000 1.0
C      1  0.5099300000000  0.4501730000000  0.4796740000000 1.0
C      1  0.5343800000000  0.5711450000000  0.4679030000000 1.0
C      1  0.5566490000000  0.4410280000000  0.4941600000000 1.0
C      1  0.4565550000000  0.5293200000000  0.4930320000000 1.0
C      1  0.4675300000000  0.5248450000000  0.5186030000000 1.0
C      1  0.5109050000000  0.4853790000000  0.5707420000000 1.0
C      1  0.5369130000000  0.5273460000000  0.4272560000000 1.0
C      1  0.4788970000000  0.4173000000000  0.4937080000000 1.0
C      1  0.4451920000000  0.4547760000000  0.4511620000000 1.0
C      1  0.5048100000000  0.4180000000000  0.5412370000000 1.0
C      1  0.4532740000000  0.5512950000000  0.4578040000000 1.0
C      1  0.4665240000000  0.4921360000000  0.4309250000000 1.0
C      1  0.5067350000000  0.4799600000000  0.4394570000000 1.0
C      1  0.5078350000000  0.4789020000000  0.5231540000000 1.0
C      1  0.4929090000000  0.5100790000000  0.5629980000000 1.0
C      1  0.4288680000000  0.5324220000000  0.5350990000000 1.0
C      1  0.5040300000000  0.5522180000000  0.4327080000000 1.0
C      1  0.5284930000000  0.5469720000000  0.4501730000000 1.0
C      1  0.5188600000000  0.5822500000000  0.5617100000000 1.0
C      1  0.5615050000000  0.4814370000000  0.5215160000000 1.0
END
