TITL C-33272-4958-2 -0.197158940727986 125000 -878.120479465983 0 0 124 (C1) n - 1
REM
REM in /rds/project/t2_vol4/rds-t2-cs072/BORA/CARBON/from-Arr/AIRSS/Generating-Clusters/GAP-ML-2020/Only-C1/SD-CG/HFTN-CG
REM
REM
REM
REM
REM
REM ./C.cell (11c1c37f851c82e70ff6c80c92926a4b)
REM AIRSS Version 0.9.1 bugfix July 2018 build 013d7b7c2542+ Fri, 06 Jul 2018 19:26:36 +0100
REM compiler GCC version 9.3.0
REM options -cpp -mtune=generic -march=x86-64 -g -O0
REM seed 917628811 1179332120 208505273 1976534788 1541167843 -2121254493 1021138514 1838499446 649725002 -503461347 166385272 1123456430 -660736786 1788405502 -822623733 30931539 -837061849 1591959995 559962773 981226646 -641655296 1728599354 -1170565431 16459145 -166193812 721200443 -1298536923 -1638332515 -1870303337 -777373137 58099673 -1826426943 1713328142
REM
CELL 1.54180   50.00000   50.00000   50.00000   90.00000   90.00000   90.00000
LATT -1
SFAC C  
C      1  0.4793610000000  0.5364730000000  0.5295840000000 1.0
C      1  0.4798140000000  0.5437560000000  0.4161640000000 1.0
C      1  0.4954810000000  0.4895230000000  0.5125150000000 1.0
C      1  0.4929940000000  0.4466080000000  0.4873750000000 1.0
C      1  0.5407710000000  0.5208350000000  0.5724900000000 1.0
C      1  0.5878850000000  0.5362250000000  0.4940310000000 1.0
C      1  0.5623990000000  0.5107810000000  0.5580850000000 1.0
C      1  0.5956390000000  0.5044810000000  0.5271860000000 1.0
C      1  0.4991460000000  0.5078780000000  0.4574690000000 1.0
C      1  0.5021320000000  0.5753560000000  0.4436840000000 1.0
C      1  0.4818710000000  0.4676980000000  0.5956410000000 1.0
C      1  0.5012390000000  0.5640310000000  0.5735520000000 1.0
C      1  0.5380150000000  0.4375430000000  0.5633150000000 1.0
C      1  0.5236990000000  0.5256260000000  0.4937090000000 1.0
C      1  0.4640560000000  0.5716450000000  0.4837070000000 1.0
C      1  0.5438600000000  0.4479580000000  0.4265840000000 1.0
C      1  0.5130070000000  0.4838050000000  0.4039920000000 1.0
C      1  0.4467470000000  0.4332460000000  0.4709780000000 1.0
C      1  0.4717510000000  0.5262230000000  0.5010000000000 1.0
C      1  0.4562570000000  0.5808470000000  0.5108480000000 1.0
C      1  0.5243560000000  0.5046660000000  0.5895970000000 1.0
C      1  0.4965900000000  0.4095220000000  0.5099150000000 1.0
C      1  0.4305310000000  0.5693360000000  0.5195030000000 1.0
C      1  0.5612090000000  0.4472960000000  0.4981210000000 1.0
C      1  0.5846270000000  0.4788040000000  0.5292900000000 1.0
C      1  0.5637790000000  0.4520050000000  0.4459220000000 1.0
C      1  0.5926520000000  0.4893150000000  0.4839210000000 1.0
C      1  0.5268090000000  0.5684000000000  0.5605950000000 1.0
C      1  0.5061100000000  0.5542420000000  0.4234340000000 1.0
C      1  0.5790330000000  0.5239900000000  0.5392710000000 1.0
C      1  0.4677780000000  0.4931680000000  0.4108830000000 1.0
C      1  0.5549400000000  0.4281630000000  0.5187840000000 1.0
C      1  0.5104280000000  0.4121830000000  0.5354820000000 1.0
C      1  0.6003450000000  0.5115630000000  0.4997760000000 1.0
C      1  0.4774730000000  0.4959680000000  0.6006350000000 1.0
C      1  0.5271840000000  0.4786230000000  0.4751460000000 1.0
C      1  0.5181330000000  0.5085990000000  0.5179340000000 1.0
C      1  0.4055090000000  0.5054380000000  0.4939370000000 1.0
C      1  0.4402180000000  0.4618560000000  0.4339760000000 1.0
C      1  0.5323290000000  0.4221910000000  0.4649760000000 1.0
C      1  0.4302040000000  0.4536110000000  0.4593890000000 1.0
C      1  0.5458120000000  0.5442070000000  0.5057430000000 1.0
C      1  0.5075340000000  0.4608760000000  0.5093870000000 1.0
C      1  0.5013300000000  0.4586220000000  0.5375380000000 1.0
C      1  0.5505180000000  0.5714170000000  0.5016040000000 1.0
C      1  0.5835380000000  0.4982800000000  0.4577010000000 1.0
C      1  0.5560830000000  0.4925940000000  0.4219630000000 1.0
C      1  0.5005570000000  0.4668330000000  0.4676950000000 1.0
C      1  0.4871900000000  0.4715380000000  0.4068110000000 1.0
C      1  0.4118390000000  0.5247580000000  0.5137490000000 1.0
C      1  0.4679700000000  0.4314480000000  0.5649600000000 1.0
C      1  0.5045800000000  0.4188700000000  0.4802410000000 1.0
C      1  0.5291870000000  0.4763150000000  0.5875260000000 1.0
C      1  0.4731880000000  0.5787320000000  0.4535940000000 1.0
C      1  0.5525420000000  0.5212190000000  0.4270060000000 1.0
C      1  0.4987480000000  0.5154680000000  0.5975530000000 1.0
C      1  0.4917450000000  0.5680710000000  0.4903580000000 1.0
C      1  0.4693000000000  0.4961680000000  0.5529300000000 1.0
C      1  0.5376730000000  0.4729790000000  0.4128220000000 1.0
C      1  0.5103920000000  0.5123530000000  0.4037300000000 1.0
C      1  0.4819540000000  0.4877780000000  0.4677910000000 1.0
C      1  0.4440420000000  0.5284940000000  0.5838270000000 1.0
C      1  0.4852560000000  0.5310580000000  0.4605950000000 1.0
C      1  0.4694550000000  0.4202320000000  0.5151020000000 1.0
C      1  0.4255350000000  0.4871670000000  0.5469100000000 1.0
C      1  0.5139130000000  0.4337330000000  0.5774600000000 1.0
C      1  0.5592670000000  0.4826610000000  0.5470330000000 1.0
C      1  0.4447470000000  0.4896030000000  0.4279840000000 1.0
C      1  0.5273560000000  0.5406640000000  0.5566040000000 1.0
C      1  0.4186530000000  0.5000410000000  0.4680290000000 1.0
C      1  0.5382820000000  0.4219850000000  0.5387360000000 1.0
C      1  0.5118050000000  0.5875410000000  0.4886190000000 1.0
C      1  0.5717260000000  0.5411240000000  0.5168370000000 1.0
C      1  0.4954870000000  0.4197600000000  0.5608040000000 1.0
C      1  0.4691870000000  0.5677970000000  0.5351900000000 1.0
C      1  0.4822370000000  0.5177970000000  0.4059310000000 1.0
C      1  0.4246810000000  0.4731160000000  0.4781430000000 1.0
C      1  0.4494150000000  0.5439210000000  0.4846320000000 1.0
C      1  0.4507070000000  0.5017390000000  0.5905330000000 1.0
C      1  0.5269820000000  0.4272210000000  0.4369880000000 1.0
C      1  0.4901120000000  0.5437290000000  0.5913090000000 1.0
C      1  0.4615060000000  0.4210520000000  0.5409800000000 1.0
C      1  0.4249770000000  0.5474810000000  0.5023680000000 1.0
C      1  0.5085710000000  0.5306530000000  0.5356380000000 1.0
C      1  0.5763710000000  0.5455720000000  0.4693380000000 1.0
C      1  0.5357930000000  0.4686430000000  0.5014710000000 1.0
C      1  0.4629570000000  0.5467530000000  0.5909480000000 1.0
C      1  0.5723810000000  0.5251480000000  0.4498730000000 1.0
C      1  0.4492940000000  0.4714980000000  0.5012200000000 1.0
C      1  0.4527400000000  0.5807540000000  0.4349490000000 1.0
C      1  0.5570180000000  0.4362640000000  0.4701260000000 1.0
C      1  0.4614630000000  0.4563260000000  0.5787150000000 1.0
C      1  0.5406620000000  0.4894000000000  0.5214740000000 1.0
C      1  0.5175110000000  0.5845680000000  0.5382070000000 1.0
C      1  0.5251870000000  0.5064200000000  0.4708660000000 1.0
C      1  0.4639130000000  0.5220360000000  0.5476290000000 1.0
C      1  0.5835100000000  0.4679900000000  0.5024520000000 1.0
C      1  0.4577580000000  0.4403840000000  0.4274130000000 1.0
C      1  0.5617170000000  0.5708560000000  0.4747430000000 1.0
C      1  0.4529400000000  0.5332800000000  0.4551950000000 1.0
C      1  0.5080750000000  0.4572760000000  0.5926040000000 1.0
C      1  0.4874690000000  0.4136570000000  0.4538410000000 1.0
C      1  0.4070700000000  0.4780310000000  0.5022990000000 1.0
C      1  0.4189620000000  0.5152350000000  0.5409890000000 1.0
C      1  0.5490150000000  0.5883910000000  0.4578600000000 1.0
C      1  0.4962800000000  0.5388280000000  0.4864940000000 1.0
C      1  0.5268430000000  0.5327770000000  0.4164520000000 1.0
C      1  0.5732900000000  0.4791420000000  0.4404110000000 1.0
C      1  0.4263220000000  0.4731210000000  0.5223860000000 1.0
C      1  0.4714320000000  0.4950530000000  0.4960120000000 1.0
C      1  0.4465650000000  0.4817390000000  0.5684000000000 1.0
C      1  0.4609280000000  0.4221810000000  0.4499140000000 1.0
C      1  0.4999020000000  0.4246320000000  0.4306060000000 1.0
C      1  0.5212670000000  0.5873420000000  0.4612620000000 1.0
C      1  0.4408740000000  0.5610380000000  0.5447770000000 1.0
C      1  0.4909970000000  0.4838320000000  0.5413720000000 1.0
C      1  0.4621470000000  0.4425000000000  0.4948030000000 1.0
C      1  0.4358750000000  0.5097770000000  0.4475220000000 1.0
C      1  0.5286370000000  0.5874220000000  0.5119040000000 1.0
C      1  0.4572690000000  0.5535680000000  0.4325620000000 1.0
C      1  0.4910860000000  0.5797930000000  0.5506680000000 1.0
C      1  0.4828360000000  0.4441400000000  0.4154900000000 1.0
C      1  0.4366570000000  0.5335480000000  0.5554090000000 1.0
C      1  0.5470400000000  0.4645130000000  0.5679970000000 1.0
END
