TITL C-33271-5390-3 0.000348808609612128 125000 -582.878602303124 0 0 85 (C1) n - 1
REM
REM in /rds/project/t2_vol4/rds-t2-cs072/BORA/CARBON/from-Arr/AIRSS/Generating-Clusters/GAP-ML-2020/Only-C1/SD-CG/HFTN-CG
REM
REM
REM
REM
REM
REM ./C.cell (11c1c37f851c82e70ff6c80c92926a4b)
REM AIRSS Version 0.9.1 bugfix July 2018 build 013d7b7c2542+ Fri, 06 Jul 2018 19:26:36 +0100
REM compiler GCC version 9.3.0
REM options -cpp -mtune=generic -march=x86-64 -g -O0
REM seed 2094433839 -120670872 -2046040570 -1525102719 -1604950259 -329241382 1590892537 -1227973787 -1222604408 -1943372852 315790276 1112153728 -988990003 1208070448 -877969021 -1782347493 -273480469 -1398999981 -990552295 -970491039 24530447 -1069767528 716459060 -906825534 -704095456 324977120 -1628925182 -714380296 1941367175 180584612 1346575285 1642112057 941918663
REM
CELL 1.54180   50.00000   50.00000   50.00000   90.00000   90.00000   90.00000
LATT -1
SFAC C  
C      1  0.4609190000000  0.4400510000000  0.5248760000000 1.0
C      1  0.5744370000000  0.5121770000000  0.4700100000000 1.0
C      1  0.5704930000000  0.4737650000000  0.5270540000000 1.0
C      1  0.4875310000000  0.5088740000000  0.5800170000000 1.0
C      1  0.4294940000000  0.5000810000000  0.5451260000000 1.0
C      1  0.5613480000000  0.4973090000000  0.5436800000000 1.0
C      1  0.4828690000000  0.5192560000000  0.4416880000000 1.0
C      1  0.4548710000000  0.4511630000000  0.4494830000000 1.0
C      1  0.4816100000000  0.4907700000000  0.5322540000000 1.0
C      1  0.5260990000000  0.5640320000000  0.4609720000000 1.0
C      1  0.5469240000000  0.4439990000000  0.4946950000000 1.0
C      1  0.4984370000000  0.5274740000000  0.5367230000000 1.0
C      1  0.5005920000000  0.4601440000000  0.5640420000000 1.0
C      1  0.4715790000000  0.4654900000000  0.5673680000000 1.0
C      1  0.4567730000000  0.5731700000000  0.5049600000000 1.0
C      1  0.4827120000000  0.4552160000000  0.4420880000000 1.0
C      1  0.5014400000000  0.5323110000000  0.4905000000000 1.0
C      1  0.4450390000000  0.5093490000000  0.5670280000000 1.0
C      1  0.4994680000000  0.5020270000000  0.5545350000000 1.0
C      1  0.4648640000000  0.4917980000000  0.5781480000000 1.0
C      1  0.4467820000000  0.4880340000000  0.4214490000000 1.0
C      1  0.5393900000000  0.5041060000000  0.5619030000000 1.0
C      1  0.5359140000000  0.4683270000000  0.4810450000000 1.0
C      1  0.5845170000000  0.4844710000000  0.4731070000000 1.0
C      1  0.4867190000000  0.4289700000000  0.5255730000000 1.0
C      1  0.5562020000000  0.4494150000000  0.5221470000000 1.0
C      1  0.4557720000000  0.5364670000000  0.5664110000000 1.0
C      1  0.5154440000000  0.5248160000000  0.5147690000000 1.0
C      1  0.4733740000000  0.4898000000000  0.4898480000000 1.0
C      1  0.5052230000000  0.5380380000000  0.4359590000000 1.0
C      1  0.4468310000000  0.5536770000000  0.5457310000000 1.0
C      1  0.4377820000000  0.4672590000000  0.4344170000000 1.0
C      1  0.5264930000000  0.4251410000000  0.5036700000000 1.0
C      1  0.5489130000000  0.5774430000000  0.5043600000000 1.0
C      1  0.4231480000000  0.5165610000000  0.5225960000000 1.0
C      1  0.5579250000000  0.5672750000000  0.5259480000000 1.0
C      1  0.5271150000000  0.5736160000000  0.4879970000000 1.0
C      1  0.4982900000000  0.4207640000000  0.5004280000000 1.0
C      1  0.5004620000000  0.5630140000000  0.4479120000000 1.0
C      1  0.5554680000000  0.5436930000000  0.5405560000000 1.0
C      1  0.5184990000000  0.4836150000000  0.4329710000000 1.0
C      1  0.4830250000000  0.5375880000000  0.5754290000000 1.0
C      1  0.5322870000000  0.5355510000000  0.4517470000000 1.0
C      1  0.4533150000000  0.4566270000000  0.5466280000000 1.0
C      1  0.5559040000000  0.5184580000000  0.4474740000000 1.0
C      1  0.5814770000000  0.4852570000000  0.5028030000000 1.0
C      1  0.4441130000000  0.4791250000000  0.5029640000000 1.0
C      1  0.4579760000000  0.4377450000000  0.4753720000000 1.0
C      1  0.4371320000000  0.4759230000000  0.5334010000000 1.0
C      1  0.4466830000000  0.5292630000000  0.4830010000000 1.0
C      1  0.4970670000000  0.4823900000000  0.5087050000000 1.0
C      1  0.4491970000000  0.4487310000000  0.4996120000000 1.0
C      1  0.5675230000000  0.5118140000000  0.4992690000000 1.0
C      1  0.4738380000000  0.5195450000000  0.4943180000000 1.0
C      1  0.5334750000000  0.4558090000000  0.4357050000000 1.0
C      1  0.4942380000000  0.5662070000000  0.5323670000000 1.0
C      1  0.5210250000000  0.4979930000000  0.5115150000000 1.0
C      1  0.4632090000000  0.5363480000000  0.4584740000000 1.0
C      1  0.5319360000000  0.4349850000000  0.5307180000000 1.0
C      1  0.4725940000000  0.5184720000000  0.5239060000000 1.0
C      1  0.4835610000000  0.4244070000000  0.4760200000000 1.0
C      1  0.5592990000000  0.4692810000000  0.4367890000000 1.0
C      1  0.5344930000000  0.5345800000000  0.5585220000000 1.0
C      1  0.4380740000000  0.5526490000000  0.4994990000000 1.0
C      1  0.5239970000000  0.4338290000000  0.4478660000000 1.0
C      1  0.5076280000000  0.4644980000000  0.4863340000000 1.0
C      1  0.5067670000000  0.4400620000000  0.5444350000000 1.0
C      1  0.5029580000000  0.4987810000000  0.4551440000000 1.0
C      1  0.5016050000000  0.5640700000000  0.5011260000000 1.0
C      1  0.4755700000000  0.5626620000000  0.4609800000000 1.0
C      1  0.4662350000000  0.5704500000000  0.5323880000000 1.0
C      1  0.5674060000000  0.5204400000000  0.5284370000000 1.0
C      1  0.5809860000000  0.4659450000000  0.4532120000000 1.0
C      1  0.4308010000000  0.5057760000000  0.4971620000000 1.0
C      1  0.5172170000000  0.4854280000000  0.5681170000000 1.0
C      1  0.5394440000000  0.4978000000000  0.4893680000000 1.0
C      1  0.4974310000000  0.4318930000000  0.4521380000000 1.0
C      1  0.4726190000000  0.4973520000000  0.4229990000000 1.0
C      1  0.4296600000000  0.5435640000000  0.5250080000000 1.0
C      1  0.5206290000000  0.5161670000000  0.4718650000000 1.0
C      1  0.5465790000000  0.4950780000000  0.4330080000000 1.0
C      1  0.4886140000000  0.4768520000000  0.4673660000000 1.0
C      1  0.4922090000000  0.4753750000000  0.4214160000000 1.0
C      1  0.5046370000000  0.5485500000000  0.5561990000000 1.0
C      1  0.4778020000000  0.5737200000000  0.4871510000000 1.0
END
