TITL C-33276-4985-6 0.836407378932425 125000 -990.271144561554 0 0 143 (C1) n - 1
REM
REM in /rds/project/t2_vol4/rds-t2-cs072/BORA/CARBON/from-Arr/AIRSS/Generating-Clusters/GAP-ML-2020/Only-C1/SD-CG/HFTN-CG
REM
REM
REM
REM
REM
REM ./C.cell (11c1c37f851c82e70ff6c80c92926a4b)
REM AIRSS Version 0.9.1 bugfix July 2018 build 013d7b7c2542+ Fri, 06 Jul 2018 19:26:36 +0100
REM compiler GCC version 9.3.0
REM options -cpp -mtune=generic -march=x86-64 -g -O0
REM seed -1834644266 -1106521384 1628497457 1403518809 -304022922 -518376246 885765781 392493324 -103969871 -790842856 -676396834 1198145893 -328407670 28429037 -954799720 858643178 1856156908 -1317282813 -1063575613 319664154 318993157 -737518019 -299436672 -1622607065 1779534124 1568709466 -763443095 1201948802 -1607378085 -1583082141 -481232562 2134978881 642028623
REM
CELL 1.54180   50.00000   50.00000   50.00000   90.00000   90.00000   90.00000
LATT -1
SFAC C  
C      1  0.4463660000000  0.4437670000000  0.4337210000000 1.0
C      1  0.4405200000000  0.4358980000000  0.4624300000000 1.0
C      1  0.5452320000000  0.5821830000000  0.5427890000000 1.0
C      1  0.5353210000000  0.4687090000000  0.4475840000000 1.0
C      1  0.4836990000000  0.5060750000000  0.5540780000000 1.0
C      1  0.4438330000000  0.5603750000000  0.4464940000000 1.0
C      1  0.4285090000000  0.5292750000000  0.5084930000000 1.0
C      1  0.5332400000000  0.5748910000000  0.4449500000000 1.0
C      1  0.4892750000000  0.4159190000000  0.5392950000000 1.0
C      1  0.5020220000000  0.6010910000000  0.5185260000000 1.0
C      1  0.4898270000000  0.4501280000000  0.5030470000000 1.0
C      1  0.5956890000000  0.5187840000000  0.4820340000000 1.0
C      1  0.5720390000000  0.5365840000000  0.4413220000000 1.0
C      1  0.4934990000000  0.4419660000000  0.5835230000000 1.0
C      1  0.4235510000000  0.4490760000000  0.5351610000000 1.0
C      1  0.5045270000000  0.4005820000000  0.5012590000000 1.0
C      1  0.5635030000000  0.4661260000000  0.4421750000000 1.0
C      1  0.4461390000000  0.5224830000000  0.5754490000000 1.0
C      1  0.4846800000000  0.5844340000000  0.4480510000000 1.0
C      1  0.4881080000000  0.4936190000000  0.4735890000000 1.0
C      1  0.5700110000000  0.5116640000000  0.5476670000000 1.0
C      1  0.5797950000000  0.4875050000000  0.4459480000000 1.0
C      1  0.4714110000000  0.5975730000000  0.5196450000000 1.0
C      1  0.4158180000000  0.5290980000000  0.4592940000000 1.0
C      1  0.5224770000000  0.5363520000000  0.4970760000000 1.0
C      1  0.5023150000000  0.5186960000000  0.5104950000000 1.0
C      1  0.4770720000000  0.4815040000000  0.5398250000000 1.0
C      1  0.4621810000000  0.5759400000000  0.4330760000000 1.0
C      1  0.5938040000000  0.5265980000000  0.5096150000000 1.0
C      1  0.4987090000000  0.4718520000000  0.5221480000000 1.0
C      1  0.5054520000000  0.4268050000000  0.5159210000000 1.0
C      1  0.5817140000000  0.4588590000000  0.5429110000000 1.0
C      1  0.4149620000000  0.4955430000000  0.5454850000000 1.0
C      1  0.5064400000000  0.4912480000000  0.5011240000000 1.0
C      1  0.4357240000000  0.5720900000000  0.4982030000000 1.0
C      1  0.5143120000000  0.4840170000000  0.5864180000000 1.0
C      1  0.5712170000000  0.4453490000000  0.4979980000000 1.0
C      1  0.4974000000000  0.5591900000000  0.4119320000000 1.0
C      1  0.5099080000000  0.5852260000000  0.4930860000000 1.0
C      1  0.5589290000000  0.5345260000000  0.5672170000000 1.0
C      1  0.4689340000000  0.5578640000000  0.4127670000000 1.0
C      1  0.4266290000000  0.4701030000000  0.5555410000000 1.0
C      1  0.4950530000000  0.4147600000000  0.5881150000000 1.0
C      1  0.4424890000000  0.4725390000000  0.4301820000000 1.0
C      1  0.5377200000000  0.4223920000000  0.5624300000000 1.0
C      1  0.4869280000000  0.4998580000000  0.5843270000000 1.0
C      1  0.5271600000000  0.5086130000000  0.5438840000000 1.0
C      1  0.5291780000000  0.4844530000000  0.5589380000000 1.0
C      1  0.5014480000000  0.5111510000000  0.4007890000000 1.0
C      1  0.4987550000000  0.4474090000000  0.4742560000000 1.0
C      1  0.5440100000000  0.4447950000000  0.5779750000000 1.0
C      1  0.5628590000000  0.4228520000000  0.4803400000000 1.0
C      1  0.5510450000000  0.5702650000000  0.5164240000000 1.0
C      1  0.4485130000000  0.4365880000000  0.5218720000000 1.0
C      1  0.5770030000000  0.5611630000000  0.4831990000000 1.0
C      1  0.4535090000000  0.5339570000000  0.4135050000000 1.0
C      1  0.4706220000000  0.4548690000000  0.5640950000000 1.0
C      1  0.5704700000000  0.5098000000000  0.4302990000000 1.0
C      1  0.4585230000000  0.4116480000000  0.5033490000000 1.0
C      1  0.4569720000000  0.4859860000000  0.5184360000000 1.0
C      1  0.4815630000000  0.4673450000000  0.4613170000000 1.0
C      1  0.4932650000000  0.5468500000000  0.5847290000000 1.0
C      1  0.4720330000000  0.4387410000000  0.4251970000000 1.0
C      1  0.4132110000000  0.4393300000000  0.4732160000000 1.0
C      1  0.5307320000000  0.4411920000000  0.5217570000000 1.0
C      1  0.5335130000000  0.5847290000000  0.4731100000000 1.0
C      1  0.4812170000000  0.5174220000000  0.4403140000000 1.0
C      1  0.4654390000000  0.5466420000000  0.5756080000000 1.0
C      1  0.4014900000000  0.4877770000000  0.4889780000000 1.0
C      1  0.5663960000000  0.4629730000000  0.5686520000000 1.0
C      1  0.4606520000000  0.4158820000000  0.4752510000000 1.0
C      1  0.4792470000000  0.5534160000000  0.5305000000000 1.0
C      1  0.5514890000000  0.5143270000000  0.5860860000000 1.0
C      1  0.4799130000000  0.3976190000000  0.5154270000000 1.0
C      1  0.4476980000000  0.4716030000000  0.5746800000000 1.0
C      1  0.5159880000000  0.4660470000000  0.4232770000000 1.0
C      1  0.4806400000000  0.5484780000000  0.4802980000000 1.0
C      1  0.4560640000000  0.5397790000000  0.4675300000000 1.0
C      1  0.4837860000000  0.5796960000000  0.4781020000000 1.0
C      1  0.4144020000000  0.5012930000000  0.4669860000000 1.0
C      1  0.5930560000000  0.5077340000000  0.5302440000000 1.0
C      1  0.4250750000000  0.5218890000000  0.5546140000000 1.0
C      1  0.4233400000000  0.5420940000000  0.5333050000000 1.0
C      1  0.5498810000000  0.4245850000000  0.5370590000000 1.0
C      1  0.5075610000000  0.4141690000000  0.5634330000000 1.0
C      1  0.5121690000000  0.5375080000000  0.4027880000000 1.0
C      1  0.5836970000000  0.4924730000000  0.4757700000000 1.0
C      1  0.5387850000000  0.5367210000000  0.4115240000000 1.0
C      1  0.5467310000000  0.5090030000000  0.4130670000000 1.0
C      1  0.4029140000000  0.4587180000000  0.5186780000000 1.0
C      1  0.4301480000000  0.5455450000000  0.4839060000000 1.0
C      1  0.5038470000000  0.5220440000000  0.5392500000000 1.0
C      1  0.4540810000000  0.5132770000000  0.5088690000000 1.0
C      1  0.4764590000000  0.5336630000000  0.5076500000000 1.0
C      1  0.5130470000000  0.4032270000000  0.4752050000000 1.0
C      1  0.4638690000000  0.5632550000000  0.5532640000000 1.0
C      1  0.5931310000000  0.4790300000000  0.5236750000000 1.0
C      1  0.4399900000000  0.4873160000000  0.4575060000000 1.0
C      1  0.4935940000000  0.4227830000000  0.4337010000000 1.0
C      1  0.5062180000000  0.5531500000000  0.5387060000000 1.0
C      1  0.5376590000000  0.4192650000000  0.4710370000000 1.0
C      1  0.5327450000000  0.4993960000000  0.4571380000000 1.0
C      1  0.4661540000000  0.4331950000000  0.5449940000000 1.0
C      1  0.4526170000000  0.5847380000000  0.5393130000000 1.0
C      1  0.5141030000000  0.5582960000000  0.5670470000000 1.0
C      1  0.4016320000000  0.4875170000000  0.5200150000000 1.0
C      1  0.5504950000000  0.5029460000000  0.4802610000000 1.0
C      1  0.4621950000000  0.5096740000000  0.4616690000000 1.0
C      1  0.5493010000000  0.5256370000000  0.5005900000000 1.0
C      1  0.5233840000000  0.6000130000000  0.5365660000000 1.0
C      1  0.5863240000000  0.5410320000000  0.4654360000000 1.0
C      1  0.4644710000000  0.4825630000000  0.4158560000000 1.0
C      1  0.4023700000000  0.4577980000000  0.4892830000000 1.0
C      1  0.5283380000000  0.4487360000000  0.4706440000000 1.0
C      1  0.5061300000000  0.5124330000000  0.4578170000000 1.0
C      1  0.5600370000000  0.4907560000000  0.5686050000000 1.0
C      1  0.5153420000000  0.4366360000000  0.4235860000000 1.0
C      1  0.5074340000000  0.5766860000000  0.4329610000000 1.0
C      1  0.4728820000000  0.5097410000000  0.4116830000000 1.0
C      1  0.4565490000000  0.4969760000000  0.5847980000000 1.0
C      1  0.5733170000000  0.4372330000000  0.5275810000000 1.0
C      1  0.4850740000000  0.4660230000000  0.4292270000000 1.0
C      1  0.5219320000000  0.5613540000000  0.5123440000000 1.0
C      1  0.4306740000000  0.5385380000000  0.4343310000000 1.0
C      1  0.5476120000000  0.5067310000000  0.5243000000000 1.0
C      1  0.5010550000000  0.5228300000000  0.5969890000000 1.0
C      1  0.5189860000000  0.4558740000000  0.5899010000000 1.0
C      1  0.4591500000000  0.4603460000000  0.5021560000000 1.0
C      1  0.5196090000000  0.4629780000000  0.5394150000000 1.0
C      1  0.4900280000000  0.4184300000000  0.4637330000000 1.0
C      1  0.5072510000000  0.5369710000000  0.4720920000000 1.0
C      1  0.4606660000000  0.5884000000000  0.4948700000000 1.0
C      1  0.5709080000000  0.5468750000000  0.5079900000000 1.0
C      1  0.5566510000000  0.5804060000000  0.4885710000000 1.0
C      1  0.5370780000000  0.4858600000000  0.5006730000000 1.0
C      1  0.5883460000000  0.4708850000000  0.4965640000000 1.0
C      1  0.4533810000000  0.4633630000000  0.4722990000000 1.0
C      1  0.5429000000000  0.5598240000000  0.5636740000000 1.0
C      1  0.5498610000000  0.5532450000000  0.4320740000000 1.0
C      1  0.5227990000000  0.4924290000000  0.4074170000000 1.0
C      1  0.5416760000000  0.4563500000000  0.4974830000000 1.0
C      1  0.4313960000000  0.5696600000000  0.5261470000000 1.0
C      1  0.5261100000000  0.5093750000000  0.5978650000000 1.0
END
