TITL C-33278-4908-1 0.125674839602806 125000 -689.516078133373 0 0 98 (C1) n - 1
REM
REM in /rds/project/t2_vol4/rds-t2-cs072/BORA/CARBON/from-Arr/AIRSS/Generating-Clusters/GAP-ML-2020/Only-C1/SD-CG/HFTN-CG
REM
REM
REM
REM
REM
REM ./C.cell (11c1c37f851c82e70ff6c80c92926a4b)
REM AIRSS Version 0.9.1 bugfix July 2018 build 013d7b7c2542+ Fri, 06 Jul 2018 19:26:36 +0100
REM compiler GCC version 9.3.0
REM options -cpp -mtune=generic -march=x86-64 -g -O0
REM seed -1850215317 -953268080 -702351292 497896489 -201356269 -601165545 641858837 1573019747 -313816083 1228599385 1266572960 -323312177 -1635854361 -438727754 1344342030 -85518561 28045017 377382245 1614840715 2079716137 1050583792 1427376590 -1626536743 359048818 -284077999 -1557856986 61341615 -173629475 397889544 40899532 71734862 -188313913 -1994769003
REM
CELL 1.54180   50.00000   50.00000   50.00000   90.00000   90.00000   90.00000
LATT -1
SFAC C  
C      1  0.5526660000000  0.4620650000000  0.4402090000000 1.0
C      1  0.5379640000000  0.5064010000000  0.4898270000000 1.0
C      1  0.5126740000000  0.5386000000000  0.5181850000000 1.0
C      1  0.4578160000000  0.4387860000000  0.5272210000000 1.0
C      1  0.4650760000000  0.4545560000000  0.5500120000000 1.0
C      1  0.4391050000000  0.5638230000000  0.4786930000000 1.0
C      1  0.4817890000000  0.5757980000000  0.5286210000000 1.0
C      1  0.5146880000000  0.5159080000000  0.4750680000000 1.0
C      1  0.5528160000000  0.4423710000000  0.4628160000000 1.0
C      1  0.5572720000000  0.5287550000000  0.4863830000000 1.0
C      1  0.5422670000000  0.5589280000000  0.5642330000000 1.0
C      1  0.4340780000000  0.5208660000000  0.4422120000000 1.0
C      1  0.5384880000000  0.5026030000000  0.5739620000000 1.0
C      1  0.5883500000000  0.4650770000000  0.4991630000000 1.0
C      1  0.5317880000000  0.4234880000000  0.4677540000000 1.0
C      1  0.4967150000000  0.5525890000000  0.4352650000000 1.0
C      1  0.4530110000000  0.5766320000000  0.4991150000000 1.0
C      1  0.4877730000000  0.5462620000000  0.5332880000000 1.0
C      1  0.4792120000000  0.5422040000000  0.5632350000000 1.0
C      1  0.4519230000000  0.5693320000000  0.5267380000000 1.0
C      1  0.5261210000000  0.4799430000000  0.5591030000000 1.0
C      1  0.4279360000000  0.4717740000000  0.4672860000000 1.0
C      1  0.4182050000000  0.4947930000000  0.4804600000000 1.0
C      1  0.4824360000000  0.5704400000000  0.4531030000000 1.0
C      1  0.4979650000000  0.4949420000000  0.4657860000000 1.0
C      1  0.5247770000000  0.4183430000000  0.5432410000000 1.0
C      1  0.4747060000000  0.4983100000000  0.5312920000000 1.0
C      1  0.4547250000000  0.5636170000000  0.4547750000000 1.0
C      1  0.5472220000000  0.4827260000000  0.4761210000000 1.0
C      1  0.4463930000000  0.4983720000000  0.4298190000000 1.0
C      1  0.4960550000000  0.4212900000000  0.5428450000000 1.0
C      1  0.5646620000000  0.5461580000000  0.5273380000000 1.0
C      1  0.5600980000000  0.4892160000000  0.4512780000000 1.0
C      1  0.4797760000000  0.4202760000000  0.5201600000000 1.0
C      1  0.5174490000000  0.5143500000000  0.5310880000000 1.0
C      1  0.4898060000000  0.4438040000000  0.5592030000000 1.0
C      1  0.5440770000000  0.5573820000000  0.4888830000000 1.0
C      1  0.4235680000000  0.5288400000000  0.5124560000000 1.0
C      1  0.5232220000000  0.4159950000000  0.4945790000000 1.0
C      1  0.4979380000000  0.5787430000000  0.4756920000000 1.0
C      1  0.5612590000000  0.5126120000000  0.5593890000000 1.0
C      1  0.5707390000000  0.5237720000000  0.5126680000000 1.0
C      1  0.5252080000000  0.5671870000000  0.4701620000000 1.0
C      1  0.5335020000000  0.4304770000000  0.5672350000000 1.0
C      1  0.4794020000000  0.4833430000000  0.5068210000000 1.0
C      1  0.4234060000000  0.5406750000000  0.4860560000000 1.0
C      1  0.4397530000000  0.4503970000000  0.4817580000000 1.0
C      1  0.5161650000000  0.4729370000000  0.4680560000000 1.0
C      1  0.4969370000000  0.5636590000000  0.5723970000000 1.0
C      1  0.4605460000000  0.4533420000000  0.4399210000000 1.0
C      1  0.5521250000000  0.4493300000000  0.5167770000000 1.0
C      1  0.4220500000000  0.4997270000000  0.5088360000000 1.0
C      1  0.4722360000000  0.5055570000000  0.4180510000000 1.0
C      1  0.5616480000000  0.5188970000000  0.4536540000000 1.0
C      1  0.4749600000000  0.4985820000000  0.4827160000000 1.0
C      1  0.4899760000000  0.4835180000000  0.4123200000000 1.0
C      1  0.5689860000000  0.4981910000000  0.5331540000000 1.0
C      1  0.5075780000000  0.4253280000000  0.4519970000000 1.0
C      1  0.5079580000000  0.4573630000000  0.4885830000000 1.0
C      1  0.4889720000000  0.5149660000000  0.5723570000000 1.0
C      1  0.5307090000000  0.5753940000000  0.5427460000000 1.0
C      1  0.4201090000000  0.5197960000000  0.4667630000000 1.0
C      1  0.4393310000000  0.4532360000000  0.5108690000000 1.0
C      1  0.5271480000000  0.4938060000000  0.5144090000000 1.0
C      1  0.5211630000000  0.5490880000000  0.5807960000000 1.0
C      1  0.5594110000000  0.4581640000000  0.4872700000000 1.0
C      1  0.5442340000000  0.4772520000000  0.5321420000000 1.0
C      1  0.5007520000000  0.5344640000000  0.4909590000000 1.0
C      1  0.5391020000000  0.5594060000000  0.5177350000000 1.0
C      1  0.4603730000000  0.4380310000000  0.4640880000000 1.0
C      1  0.5173390000000  0.4811760000000  0.4091850000000 1.0
C      1  0.5471910000000  0.5372180000000  0.4399130000000 1.0
C      1  0.4534130000000  0.4825530000000  0.5476960000000 1.0
C      1  0.5029560000000  0.5812310000000  0.5496610000000 1.0
C      1  0.5053760000000  0.4741480000000  0.5090920000000 1.0
C      1  0.5302280000000  0.4599000000000  0.4223770000000 1.0
C      1  0.4813660000000  0.5828280000000  0.4991470000000 1.0
C      1  0.4575490000000  0.5056350000000  0.5672650000000 1.0
C      1  0.5250880000000  0.5532510000000  0.4437960000000 1.0
C      1  0.4327990000000  0.4784950000000  0.5244200000000 1.0
C      1  0.4995900000000  0.4995140000000  0.5494150000000 1.0
C      1  0.4512660000000  0.5324380000000  0.5596390000000 1.0
C      1  0.5826190000000  0.4513830000000  0.5229670000000 1.0
C      1  0.4832630000000  0.4569660000000  0.4240810000000 1.0
C      1  0.4741030000000  0.5254040000000  0.4925300000000 1.0
C      1  0.5176710000000  0.5208720000000  0.5828810000000 1.0
C      1  0.4935980000000  0.4150760000000  0.4952790000000 1.0
C      1  0.4422130000000  0.5411850000000  0.5322710000000 1.0
C      1  0.4408030000000  0.4736490000000  0.4414820000000 1.0
C      1  0.5625980000000  0.5408350000000  0.5551640000000 1.0
C      1  0.4763800000000  0.5337880000000  0.4251540000000 1.0
C      1  0.4683160000000  0.5266480000000  0.5215250000000 1.0
C      1  0.4842570000000  0.4226440000000  0.4690980000000 1.0
C      1  0.5370920000000  0.4239790000000  0.5183840000000 1.0
C      1  0.5166080000000  0.4532780000000  0.5687300000000 1.0
C      1  0.5071330000000  0.4422000000000  0.4296990000000 1.0
C      1  0.5891380000000  0.4785980000000  0.5246660000000 1.0
C      1  0.4516980000000  0.5422530000000  0.4372930000000 1.0
END
