TITL C-33261-3864-1 0.00477918555190465 125000 -629.125678454659 0 0 90 (C1) n - 1
REM
REM in /rds/project/t2_vol4/rds-t2-cs072/BORA/CARBON/from-Arr/AIRSS/Generating-Clusters/GAP-ML-2020/Only-C1/SD-CG/HFTN-CG
REM
REM
REM
REM
REM
REM ./C.cell (11c1c37f851c82e70ff6c80c92926a4b)
REM AIRSS Version 0.9.1 bugfix July 2018 build 013d7b7c2542+ Fri, 06 Jul 2018 19:26:36 +0100
REM compiler GCC version 9.3.0
REM options -cpp -mtune=generic -march=x86-64 -g -O0
REM seed 310185896 1905859586 -1803512100 1858112242 -971463579 860531035 440522126 359446748 -1559792451 1058104510 -1406001296 -1818420747 -236235790 590863321 -1535585702 88074937 79399828 1672856275 -1197613291 743464138 -1083775448 -1988629536 2135555856 1897691210 -588073420 1789332401 86707555 1034212108 948911730 -1743433448 724023397 2071608945 -1704536767
REM
CELL 1.54180   50.00000   50.00000   50.00000   90.00000   90.00000   90.00000
LATT -1
SFAC C  
C      1  0.5164640000000  0.4356550000000  0.5358640000000 1.0
C      1  0.4666040000000  0.5016470000000  0.4266250000000 1.0
C      1  0.4397490000000  0.4932320000000  0.5511580000000 1.0
C      1  0.4697630000000  0.4426600000000  0.4584270000000 1.0
C      1  0.5112660000000  0.4237130000000  0.4886300000000 1.0
C      1  0.5268280000000  0.5501290000000  0.4642340000000 1.0
C      1  0.4370380000000  0.5116670000000  0.5280150000000 1.0
C      1  0.5577970000000  0.5257360000000  0.4469690000000 1.0
C      1  0.5850500000000  0.4933530000000  0.4725140000000 1.0
C      1  0.4675540000000  0.4978750000000  0.4872760000000 1.0
C      1  0.5112200000000  0.4878610000000  0.4223010000000 1.0
C      1  0.4846750000000  0.4788120000000  0.4226030000000 1.0
C      1  0.4851840000000  0.5155960000000  0.5558170000000 1.0
C      1  0.4201110000000  0.5075280000000  0.5039720000000 1.0
C      1  0.4273840000000  0.4602490000000  0.5174050000000 1.0
C      1  0.5564390000000  0.4401620000000  0.5089490000000 1.0
C      1  0.4582690000000  0.5253470000000  0.4803480000000 1.0
C      1  0.4979990000000  0.4343250000000  0.4634240000000 1.0
C      1  0.5471490000000  0.5465510000000  0.5508000000000 1.0
C      1  0.4575890000000  0.4206950000000  0.5445370000000 1.0
C      1  0.4669020000000  0.4611520000000  0.4366040000000 1.0
C      1  0.4768470000000  0.4111120000000  0.5258490000000 1.0
C      1  0.5106290000000  0.4771830000000  0.5024900000000 1.0
C      1  0.5025730000000  0.4196980000000  0.5162400000000 1.0
C      1  0.4507970000000  0.4172690000000  0.5175430000000 1.0
C      1  0.4252590000000  0.4679850000000  0.4724500000000 1.0
C      1  0.5669890000000  0.4533470000000  0.4552700000000 1.0
C      1  0.4596020000000  0.5572320000000  0.5460610000000 1.0
C      1  0.4810270000000  0.4832240000000  0.5782490000000 1.0
C      1  0.4281630000000  0.5266130000000  0.4829520000000 1.0
C      1  0.5066590000000  0.4988380000000  0.5722670000000 1.0
C      1  0.5268420000000  0.5404060000000  0.5708690000000 1.0
C      1  0.5210020000000  0.4449490000000  0.4480340000000 1.0
C      1  0.5302990000000  0.5638530000000  0.5288270000000 1.0
C      1  0.4405220000000  0.4391600000000  0.5028440000000 1.0
C      1  0.4826910000000  0.5240930000000  0.4342460000000 1.0
C      1  0.4361320000000  0.4654280000000  0.5446050000000 1.0
C      1  0.4485000000000  0.5390030000000  0.5288180000000 1.0
C      1  0.5309100000000  0.5329880000000  0.4380140000000 1.0
C      1  0.5036320000000  0.5333640000000  0.4785990000000 1.0
C      1  0.5137890000000  0.5377020000000  0.5282240000000 1.0
C      1  0.4891140000000  0.5857860000000  0.5057740000000 1.0
C      1  0.5828530000000  0.4831940000000  0.5170750000000 1.0
C      1  0.5697480000000  0.4998270000000  0.4485280000000 1.0
C      1  0.4647900000000  0.5707900000000  0.4992170000000 1.0
C      1  0.5595580000000  0.5218560000000  0.5349870000000 1.0
C      1  0.5477650000000  0.4720690000000  0.5461670000000 1.0
C      1  0.5563090000000  0.5434930000000  0.4691150000000 1.0
C      1  0.5775910000000  0.4584720000000  0.5026520000000 1.0
C      1  0.4223470000000  0.4819730000000  0.4490350000000 1.0
C      1  0.5397420000000  0.4285640000000  0.4877490000000 1.0
C      1  0.5827650000000  0.4645920000000  0.4757520000000 1.0
C      1  0.4620480000000  0.4955800000000  0.5152510000000 1.0
C      1  0.4265780000000  0.5525540000000  0.4761550000000 1.0
C      1  0.4455700000000  0.4464290000000  0.4759350000000 1.0
C      1  0.4464650000000  0.5717870000000  0.4771550000000 1.0
C      1  0.5680250000000  0.4908350000000  0.5389450000000 1.0
C      1  0.4999840000000  0.5417450000000  0.5554330000000 1.0
C      1  0.5428900000000  0.4464310000000  0.5330750000000 1.0
C      1  0.4932240000000  0.4873240000000  0.4812400000000 1.0
C      1  0.4852110000000  0.5660410000000  0.5490010000000 1.0
C      1  0.4661130000000  0.5422730000000  0.5054830000000 1.0
C      1  0.5434210000000  0.5690730000000  0.5035990000000 1.0
C      1  0.5234930000000  0.4891300000000  0.5481150000000 1.0
C      1  0.5860860000000  0.5055840000000  0.4988620000000 1.0
C      1  0.5216230000000  0.5190280000000  0.5870890000000 1.0
C      1  0.5639730000000  0.5505270000000  0.4951840000000 1.0
C      1  0.5569930000000  0.4749060000000  0.4394250000000 1.0
C      1  0.5297360000000  0.4988410000000  0.5006450000000 1.0
C      1  0.4181770000000  0.4796050000000  0.4984450000000 1.0
C      1  0.5029610000000  0.5904170000000  0.4803610000000 1.0
C      1  0.4617460000000  0.5010820000000  0.5679450000000 1.0
C      1  0.4695330000000  0.5686870000000  0.4600650000000 1.0
C      1  0.4855430000000  0.5045950000000  0.5276020000000 1.0
C      1  0.5271710000000  0.5753800000000  0.4801520000000 1.0
C      1  0.5017810000000  0.4793170000000  0.5296270000000 1.0
C      1  0.5749730000000  0.5293440000000  0.5107690000000 1.0
C      1  0.4789790000000  0.4575960000000  0.5663190000000 1.0
C      1  0.4779320000000  0.5387920000000  0.4603530000000 1.0
C      1  0.5146520000000  0.5069280000000  0.4773040000000 1.0
C      1  0.4861810000000  0.5907390000000  0.4579690000000 1.0
C      1  0.4986960000000  0.4553270000000  0.5460400000000 1.0
C      1  0.4464640000000  0.4830830000000  0.4368780000000 1.0
C      1  0.5102500000000  0.5171490000000  0.4275100000000 1.0
C      1  0.4934970000000  0.5306130000000  0.5088820000000 1.0
C      1  0.4544400000000  0.4466840000000  0.5564430000000 1.0
C      1  0.5296680000000  0.4686690000000  0.4321700000000 1.0
C      1  0.5449500000000  0.4370480000000  0.4616740000000 1.0
C      1  0.5028810000000  0.5793250000000  0.5299210000000 1.0
C      1  0.5316160000000  0.5135250000000  0.5280070000000 1.0
END
