TITL C-33257-5096-7 -0.0697033037399931 125000 -317.061408127658 0 0 47 (C1) n - 1
REM
REM in /rds/project/t2_vol4/rds-t2-cs072/BORA/CARBON/from-Arr/AIRSS/Generating-Clusters/GAP-ML-2020/Only-C1/SD-CG/HFTN-CG
REM
REM
REM
REM
REM
REM ./C.cell (11c1c37f851c82e70ff6c80c92926a4b)
REM AIRSS Version 0.9.1 bugfix July 2018 build 013d7b7c2542+ Fri, 06 Jul 2018 19:26:36 +0100
REM compiler GCC version 9.3.0
REM options -cpp -mtune=generic -march=x86-64 -g -O0
REM seed -18216144 -811207720 2139805301 1520123040 1282219852 -23439438 -428872560 1917126118 -272074523 350722420 1249034073 938068784 -61589158 510335828 -1571514975 -1841532496 440198415 476912818 -317718266 793231909 -1479112525 -2068449474 369827865 -1718242271 -212785573 -50994973 -1853935199 45614273 -1550198194 2106101717 1024136345 591373391 -62381932
REM
CELL 1.54180   50.00000   50.00000   50.00000   90.00000   90.00000   90.00000
LATT -1
SFAC C  
C      1  0.4424460000000  0.4901030000000  0.5202360000000 1.0
C      1  0.5237180000000  0.4831250000000  0.4489060000000 1.0
C      1  0.5280860000000  0.4858080000000  0.5492890000000 1.0
C      1  0.4756370000000  0.5118030000000  0.4484830000000 1.0
C      1  0.5334140000000  0.4646730000000  0.5289340000000 1.0
C      1  0.4882940000000  0.5574170000000  0.5038270000000 1.0
C      1  0.5429080000000  0.5040610000000  0.4506810000000 1.0
C      1  0.4989950000000  0.4929820000000  0.4423850000000 1.0
C      1  0.5533540000000  0.4822560000000  0.5166310000000 1.0
C      1  0.4870150000000  0.4707610000000  0.4877510000000 1.0
C      1  0.4834010000000  0.5374840000000  0.4613000000000 1.0
C      1  0.5626090000000  0.5517380000000  0.4954930000000 1.0
C      1  0.4780140000000  0.4698520000000  0.5384400000000 1.0
C      1  0.4619820000000  0.4533800000000  0.4889500000000 1.0
C      1  0.4979690000000  0.5086210000000  0.5593560000000 1.0
C      1  0.5635990000000  0.4814320000000  0.4893440000000 1.0
C      1  0.4928390000000  0.4932730000000  0.4700340000000 1.0
C      1  0.4963710000000  0.5107690000000  0.5113600000000 1.0
C      1  0.4695070000000  0.5459480000000  0.4845280000000 1.0
C      1  0.4637900000000  0.4411050000000  0.5139690000000 1.0
C      1  0.4399380000000  0.4607220000000  0.4742410000000 1.0
C      1  0.5141050000000  0.5556270000000  0.4933740000000 1.0
C      1  0.4382620000000  0.4886520000000  0.4700760000000 1.0
C      1  0.5327480000000  0.5310460000000  0.5313080000000 1.0
C      1  0.4398120000000  0.5038010000000  0.4953880000000 1.0
C      1  0.4891590000000  0.4439060000000  0.5284640000000 1.0
C      1  0.4584370000000  0.5328500000000  0.5271080000000 1.0
C      1  0.5301650000000  0.4599880000000  0.4676140000000 1.0
C      1  0.5145420000000  0.4469390000000  0.5157460000000 1.0
C      1  0.4514780000000  0.4638600000000  0.5261650000000 1.0
C      1  0.5580400000000  0.5329160000000  0.4769680000000 1.0
C      1  0.5106180000000  0.4527380000000  0.4868730000000 1.0
C      1  0.5448960000000  0.5043800000000  0.5335920000000 1.0
C      1  0.5377670000000  0.5484430000000  0.5090480000000 1.0
C      1  0.5042520000000  0.5283550000000  0.5381320000000 1.0
C      1  0.4491480000000  0.5031670000000  0.4492010000000 1.0
C      1  0.5069060000000  0.5129500000000  0.4855530000000 1.0
C      1  0.4512560000000  0.5299770000000  0.4992630000000 1.0
C      1  0.4883860000000  0.4849150000000  0.5133460000000 1.0
C      1  0.4543540000000  0.5083940000000  0.5394840000000 1.0
C      1  0.5173860000000  0.4943230000000  0.5726780000000 1.0
C      1  0.5119670000000  0.5384440000000  0.4691580000000 1.0
C      1  0.5632330000000  0.5044250000000  0.4712450000000 1.0
C      1  0.4736470000000  0.4951010000000  0.5544290000000 1.0
C      1  0.5561820000000  0.4579710000000  0.4759910000000 1.0
C      1  0.4828710000000  0.5475260000000  0.5297960000000 1.0
C      1  0.5364920000000  0.5319930000000  0.4558590000000 1.0
END
