TITL C-33272-4958-5 -0.0317483534382204 125000 -645.357668706944 0 0 95 (C1) n - 1
REM
REM in /rds/project/t2_vol4/rds-t2-cs072/BORA/CARBON/from-Arr/AIRSS/Generating-Clusters/GAP-ML-2020/Only-C1/SD-CG/HFTN-CG
REM
REM
REM
REM
REM
REM ./C.cell (11c1c37f851c82e70ff6c80c92926a4b)
REM AIRSS Version 0.9.1 bugfix July 2018 build 013d7b7c2542+ Fri, 06 Jul 2018 19:26:36 +0100
REM compiler GCC version 9.3.0
REM options -cpp -mtune=generic -march=x86-64 -g -O0
REM seed -565570899 1492714649 868531824 813960385 2028841086 1495402629 508893251 1158442721 -1880845149 661103392 -624968379 -704136995 -1035747829 -1733918303 1520956398 -2126388410 1396527560 2091434307 1946039072 -580869842 -1169125976 367061929 -204044252 -125578625 -101692341 1273884757 -407531289 1833329921 -128078526 1758889400 1081212447 -420841275 -74888004
REM
CELL 1.54180   50.00000   50.00000   50.00000   90.00000   90.00000   90.00000
LATT -1
SFAC C  
C      1  0.4605270000000  0.4743700000000  0.5636600000000 1.0
C      1  0.5397230000000  0.4604620000000  0.5562010000000 1.0
C      1  0.5074750000000  0.5310310000000  0.5217620000000 1.0
C      1  0.5046730000000  0.4830800000000  0.4819600000000 1.0
C      1  0.4796390000000  0.5624370000000  0.5413970000000 1.0
C      1  0.4932920000000  0.4726960000000  0.5279690000000 1.0
C      1  0.4961690000000  0.5068450000000  0.4190350000000 1.0
C      1  0.4802680000000  0.5293840000000  0.4871920000000 1.0
C      1  0.4737870000000  0.5589440000000  0.4494070000000 1.0
C      1  0.4530510000000  0.4867260000000  0.4369920000000 1.0
C      1  0.5325550000000  0.4349800000000  0.4520240000000 1.0
C      1  0.5650600000000  0.4427300000000  0.4937890000000 1.0
C      1  0.4945250000000  0.4370070000000  0.5565010000000 1.0
C      1  0.5311720000000  0.5654660000000  0.5323650000000 1.0
C      1  0.4738580000000  0.4912960000000  0.5175720000000 1.0
C      1  0.5254950000000  0.5733540000000  0.4732080000000 1.0
C      1  0.5525850000000  0.5371960000000  0.4609120000000 1.0
C      1  0.4961990000000  0.4232600000000  0.4685820000000 1.0
C      1  0.4742660000000  0.5599310000000  0.4783480000000 1.0
C      1  0.5049920000000  0.5077730000000  0.5658270000000 1.0
C      1  0.5632530000000  0.5154590000000  0.4430830000000 1.0
C      1  0.4799580000000  0.5195200000000  0.5156490000000 1.0
C      1  0.5033010000000  0.5627010000000  0.5223500000000 1.0
C      1  0.4264860000000  0.5206970000000  0.4623960000000 1.0
C      1  0.4797590000000  0.5196700000000  0.5692100000000 1.0
C      1  0.5020290000000  0.5649410000000  0.4909910000000 1.0
C      1  0.5183340000000  0.4599580000000  0.4932940000000 1.0
C      1  0.5141660000000  0.4835000000000  0.5106850000000 1.0
C      1  0.4349080000000  0.4733150000000  0.4567570000000 1.0
C      1  0.4503700000000  0.5171080000000  0.4456830000000 1.0
C      1  0.5227400000000  0.4392290000000  0.5436190000000 1.0
C      1  0.5430770000000  0.4276150000000  0.5254710000000 1.0
C      1  0.5354910000000  0.5578500000000  0.4491170000000 1.0
C      1  0.4892380000000  0.4219130000000  0.5146410000000 1.0
C      1  0.5043160000000  0.4392830000000  0.4445240000000 1.0
C      1  0.5673880000000  0.5340240000000  0.5085110000000 1.0
C      1  0.4165170000000  0.4941130000000  0.4677440000000 1.0
C      1  0.5490210000000  0.5287880000000  0.5555340000000 1.0
C      1  0.5311910000000  0.4794520000000  0.4402570000000 1.0
C      1  0.5647070000000  0.4636690000000  0.4749800000000 1.0
C      1  0.4548640000000  0.4828510000000  0.4970840000000 1.0
C      1  0.4930180000000  0.5429090000000  0.4357760000000 1.0
C      1  0.3979580000000  0.4817170000000  0.5190180000000 1.0
C      1  0.5369830000000  0.4805990000000  0.5752340000000 1.0
C      1  0.5239870000000  0.5191080000000  0.4160710000000 1.0
C      1  0.5510550000000  0.5612050000000  0.5121360000000 1.0
C      1  0.4609820000000  0.5413320000000  0.4336470000000 1.0
C      1  0.4884270000000  0.4645150000000  0.5624440000000 1.0
C      1  0.4517540000000  0.5599250000000  0.5332510000000 1.0
C      1  0.4763430000000  0.4214220000000  0.4892340000000 1.0
C      1  0.5554510000000  0.5027430000000  0.5694550000000 1.0
C      1  0.4813010000000  0.4831520000000  0.4256550000000 1.0
C      1  0.5459130000000  0.5775290000000  0.4909590000000 1.0
C      1  0.5260010000000  0.4188880000000  0.4748990000000 1.0
C      1  0.4240950000000  0.4862490000000  0.5351880000000 1.0
C      1  0.5441010000000  0.4220100000000  0.4961550000000 1.0
C      1  0.5243050000000  0.5156090000000  0.5419030000000 1.0
C      1  0.5065920000000  0.4456080000000  0.5179250000000 1.0
C      1  0.5768400000000  0.5352700000000  0.4790650000000 1.0
C      1  0.5089500000000  0.4814150000000  0.5743450000000 1.0
C      1  0.5442910000000  0.5027710000000  0.4261010000000 1.0
C      1  0.5638760000000  0.4482170000000  0.5218900000000 1.0
C      1  0.5033680000000  0.4655860000000  0.4326620000000 1.0
C      1  0.4967510000000  0.5146750000000  0.4471230000000 1.0
C      1  0.4763790000000  0.4875350000000  0.4786980000000 1.0
C      1  0.4345590000000  0.5105170000000  0.5499690000000 1.0
C      1  0.5734040000000  0.4963730000000  0.5477330000000 1.0
C      1  0.4435610000000  0.5761060000000  0.5122880000000 1.0
C      1  0.5475200000000  0.4584380000000  0.4525890000000 1.0
C      1  0.5108250000000  0.5344130000000  0.4913150000000 1.0
C      1  0.4865110000000  0.5479350000000  0.5651620000000 1.0
C      1  0.5369930000000  0.4951390000000  0.5225770000000 1.0
C      1  0.4514310000000  0.4404030000000  0.5284930000000 1.0
C      1  0.5806430000000  0.5097040000000  0.4647580000000 1.0
C      1  0.4348810000000  0.5350700000000  0.5341310000000 1.0
C      1  0.4031080000000  0.4880060000000  0.4929990000000 1.0
C      1  0.4295670000000  0.4981540000000  0.5053840000000 1.0
C      1  0.4294360000000  0.5402660000000  0.4841390000000 1.0
C      1  0.5704450000000  0.4906710000000  0.4830720000000 1.0
C      1  0.5353560000000  0.5553790000000  0.5597060000000 1.0
C      1  0.4424100000000  0.4635570000000  0.5436370000000 1.0
C      1  0.4563820000000  0.5028500000000  0.5668700000000 1.0
C      1  0.4264570000000  0.5273730000000  0.5085380000000 1.0
C      1  0.5577960000000  0.4730200000000  0.5358090000000 1.0
C      1  0.5515870000000  0.5084580000000  0.4996340000000 1.0
C      1  0.5186970000000  0.4998790000000  0.4621930000000 1.0
C      1  0.5723220000000  0.5236540000000  0.5362150000000 1.0
C      1  0.4527400000000  0.4367440000000  0.4965410000000 1.0
C      1  0.5118890000000  0.5549030000000  0.5723870000000 1.0
C      1  0.5202420000000  0.5465670000000  0.4271750000000 1.0
C      1  0.5333800000000  0.5196310000000  0.4784150000000 1.0
C      1  0.4743110000000  0.4273220000000  0.5383050000000 1.0
C      1  0.4740110000000  0.5120180000000  0.4651340000000 1.0
C      1  0.4437860000000  0.4589080000000  0.4818020000000 1.0
C      1  0.4466020000000  0.5639270000000  0.4879170000000 1.0
END
