TITL C-33276-4985-3 -141.674542084004 125000 -524.192105026439 0 0 78 (C1) n - 1
REM
REM in /rds/project/t2_vol4/rds-t2-cs072/BORA/CARBON/from-Arr/AIRSS/Generating-Clusters/GAP-ML-2020/Only-C1/SD-CG/HFTN-CG
REM
REM
REM
REM
REM
REM ./C.cell (11c1c37f851c82e70ff6c80c92926a4b)
REM AIRSS Version 0.9.1 bugfix July 2018 build 013d7b7c2542+ Fri, 06 Jul 2018 19:26:36 +0100
REM compiler GCC version 9.3.0
REM options -cpp -mtune=generic -march=x86-64 -g -O0
REM seed 905520298 -709159308 -221413220 1813548659 1555019731 2131039398 511327073 1443109571 -1007845280 -1727495817 -78008336 -41911629 -1345677813 -1076594022 -2145997833 -1323793240 1353796589 -1217625015 -2125184083 879650951 2000150630 617034994 719089025 878871141 -646610697 1929920433 1419179099 -989607197 134301447 774441506 1483413710 397008410 -1354194626
REM
CELL 1.54180   50.00000   50.00000   50.00000   90.00000   90.00000   90.00000
LATT -1
SFAC C  
C      1  0.5204250000000  0.4330950000000  0.4518050000000 1.0
C      1  0.5092950000000  0.4220680000000  0.4788900000000 1.0
C      1  0.4878450000000  0.5026810000000  0.5029250000000 1.0
C      1  0.4802810000000  0.4877100000000  0.5281210000000 1.0
C      1  0.5698520000000  0.5093070000000  0.5059530000000 1.0
C      1  0.5518760000000  0.5495210000000  0.5512660000000 1.0
C      1  0.4831560000000  0.4258300000000  0.4893500000000 1.0
C      1  0.4870320000000  0.5436580000000  0.4573090000000 1.0
C      1  0.4185170000000  0.4748050000000  0.4866030000000 1.0
C      1  0.4824390000000  0.4594170000000  0.5202740000000 1.0
C      1  0.4326940000000  0.5058780000000  0.5291700000000 1.0
C      1  0.4753580000000  0.4542870000000  0.4927230000000 1.0
C      1  0.5313230000000  0.5484670000000  0.4649800000000 1.0
C      1  0.4802810000000  0.4678850000000  0.4484640000000 1.0
C      1  0.5152130000000  0.4897850000000  0.4949090000000 1.0
C      1  0.5612060000000  0.5056090000000  0.5329740000000 1.0
C      1  0.4710930000000  0.5324750000000  0.5633670000000 1.0
C      1  0.5461580000000  0.5566200000000  0.4903100000000 1.0
C      1  0.5110000000000  0.4583270000000  0.5704440000000 1.0
C      1  0.5439860000000  0.5239090000000  0.5446140000000 1.0
C      1  0.4395240000000  0.5340510000000  0.5273810000000 1.0
C      1  0.5656890000000  0.4807050000000  0.4993430000000 1.0
C      1  0.5615800000000  0.5319620000000  0.4893980000000 1.0
C      1  0.5665980000000  0.5086430000000  0.4431030000000 1.0
C      1  0.5540280000000  0.4761490000000  0.5271010000000 1.0
C      1  0.5242980000000  0.4800920000000  0.5217680000000 1.0
C      1  0.4605400000000  0.5057120000000  0.5676380000000 1.0
C      1  0.4399090000000  0.5401020000000  0.4996190000000 1.0
C      1  0.5024310000000  0.5752380000000  0.5071140000000 1.0
C      1  0.5266370000000  0.4449160000000  0.5499680000000 1.0
C      1  0.4721290000000  0.5171550000000  0.4529110000000 1.0
C      1  0.4665880000000  0.4361380000000  0.5335330000000 1.0
C      1  0.5701610000000  0.4839220000000  0.4370010000000 1.0
C      1  0.4387840000000  0.4826330000000  0.4393270000000 1.0
C      1  0.5190030000000  0.5619930000000  0.4169700000000 1.0
C      1  0.4997030000000  0.5294850000000  0.5099120000000 1.0
C      1  0.5121570000000  0.4520750000000  0.5231390000000 1.0
C      1  0.4404430000000  0.5142210000000  0.4880680000000 1.0
C      1  0.4662120000000  0.4424820000000  0.5599390000000 1.0
C      1  0.5460580000000  0.4371480000000  0.4452790000000 1.0
C      1  0.4812030000000  0.5538420000000  0.5164320000000 1.0
C      1  0.5496480000000  0.5224670000000  0.4638340000000 1.0
C      1  0.4600280000000  0.4624700000000  0.4264000000000 1.0
C      1  0.5093280000000  0.4622490000000  0.4530880000000 1.0
C      1  0.4693840000000  0.4181890000000  0.5121120000000 1.0
C      1  0.5129010000000  0.5557320000000  0.4415920000000 1.0
C      1  0.5086080000000  0.5332880000000  0.4778000000000 1.0
C      1  0.4898380000000  0.4982960000000  0.4364710000000 1.0
C      1  0.5151300000000  0.4907580000000  0.4466680000000 1.0
C      1  0.4683950000000  0.4734580000000  0.4021830000000 1.0
C      1  0.5603590000000  0.4612000000000  0.4517050000000 1.0
C      1  0.4346000000000  0.4715610000000  0.4646680000000 1.0
C      1  0.4715780000000  0.4991870000000  0.4127100000000 1.0
C      1  0.4539690000000  0.4942740000000  0.5428060000000 1.0
C      1  0.5007950000000  0.5037700000000  0.5856090000000 1.0
C      1  0.5519610000000  0.4678660000000  0.4780870000000 1.0
C      1  0.4238370000000  0.4958710000000  0.5032420000000 1.0
C      1  0.5228250000000  0.5075430000000  0.4709360000000 1.0
C      1  0.5141010000000  0.5229490000000  0.5405510000000 1.0
C      1  0.4630690000000  0.5453430000000  0.5395400000000 1.0
C      1  0.4610040000000  0.5571710000000  0.4947610000000 1.0
C      1  0.5409990000000  0.5711950000000  0.5375340000000 1.0
C      1  0.5315420000000  0.5711300000000  0.5109560000000 1.0
C      1  0.4995990000000  0.5316910000000  0.5718660000000 1.0
C      1  0.4741270000000  0.5658370000000  0.4719020000000 1.0
C      1  0.4772800000000  0.4888170000000  0.5827880000000 1.0
C      1  0.5314610000000  0.5655190000000  0.5637240000000 1.0
C      1  0.5083100000000  0.4946190000000  0.5418570000000 1.0
C      1  0.5521730000000  0.4527870000000  0.5443030000000 1.0
C      1  0.5203170000000  0.4405910000000  0.4977060000000 1.0
C      1  0.4933460000000  0.5835840000000  0.4833150000000 1.0
C      1  0.4672050000000  0.5029540000000  0.4803910000000 1.0
C      1  0.4512070000000  0.5086170000000  0.4323390000000 1.0
C      1  0.4642310000000  0.4726900000000  0.4728990000000 1.0
C      1  0.5133780000000  0.5553780000000  0.5801340000000 1.0
C      1  0.5155780000000  0.4865480000000  0.5692960000000 1.0
C      1  0.4822100000000  0.4604040000000  0.5735460000000 1.0
C      1  0.5229730000000  0.4640030000000  0.4812870000000 1.0
END
