TITL C-33284-4910-5 283.083842860258 125000 -1083.34808462702 0 0 154 (C1) n - 1
REM
REM in /rds/project/t2_vol4/rds-t2-cs072/BORA/CARBON/from-Arr/AIRSS/Generating-Clusters/GAP-ML-2020/Only-C1/SD-CG/HFTN-CG
REM
REM
REM
REM
REM
REM ./C.cell (11c1c37f851c82e70ff6c80c92926a4b)
REM AIRSS Version 0.9.1 bugfix July 2018 build 013d7b7c2542+ Fri, 06 Jul 2018 19:26:36 +0100
REM compiler GCC version 9.3.0
REM options -cpp -mtune=generic -march=x86-64 -g -O0
REM seed 1103166245 -554269940 1504103450 -1265920905 818797659 1759194971 -1663843058 243994515 -2138153247 437899887 -1932475832 401630717 902379123 -2109021292 949734621 1156713886 1148115503 -1656614445 -953930848 455863946 -1899856624 -936730901 398978460 125228890 -1914666724 1261561652 -503329540 -947328040 1518247980 -1302458605 -772545260 -873690818 -1382581316
REM
CELL 1.54180   50.00000   50.00000   50.00000   90.00000   90.00000   90.00000
LATT -1
SFAC C  
C      1  0.4564410000000  0.5869190000000  0.5426080000000 1.0
C      1  0.5387870000000  0.4467370000000  0.5415990000000 1.0
C      1  0.4526340000000  0.5497390000000  0.5706830000000 1.0
C      1  0.5828880000000  0.4953920000000  0.4349900000000 1.0
C      1  0.4775470000000  0.4444440000000  0.5017760000000 1.0
C      1  0.4276430000000  0.4419990000000  0.5079850000000 1.0
C      1  0.4230260000000  0.5719500000000  0.4790680000000 1.0
C      1  0.5972540000000  0.4951340000000  0.4909890000000 1.0
C      1  0.5134300000000  0.5562620000000  0.4196890000000 1.0
C      1  0.4903870000000  0.4330200000000  0.5519550000000 1.0
C      1  0.4550150000000  0.5207560000000  0.5793940000000 1.0
C      1  0.5648230000000  0.4088260000000  0.5231260000000 1.0
C      1  0.4642740000000  0.5306430000000  0.5136830000000 1.0
C      1  0.5631850000000  0.5434810000000  0.4411500000000 1.0
C      1  0.5460550000000  0.5118740000000  0.5025670000000 1.0
C      1  0.5886470000000  0.5441910000000  0.4924340000000 1.0
C      1  0.5496950000000  0.4656130000000  0.4151160000000 1.0
C      1  0.4376690000000  0.4936900000000  0.5789820000000 1.0
C      1  0.5170870000000  0.3874130000000  0.4739800000000 1.0
C      1  0.4862620000000  0.4970170000000  0.5485020000000 1.0
C      1  0.5192350000000  0.5471610000000  0.5516870000000 1.0
C      1  0.5259290000000  0.3936350000000  0.4989210000000 1.0
C      1  0.4604380000000  0.5061910000000  0.5541610000000 1.0
C      1  0.4992700000000  0.4802320000000  0.3991970000000 1.0
C      1  0.4911480000000  0.5372660000000  0.4256510000000 1.0
C      1  0.5451460000000  0.5107960000000  0.4260120000000 1.0
C      1  0.5378290000000  0.5558700000000  0.4602960000000 1.0
C      1  0.5760590000000  0.4924480000000  0.5750460000000 1.0
C      1  0.5896820000000  0.4702350000000  0.4762200000000 1.0
C      1  0.5764230000000  0.5706000000000  0.4883590000000 1.0
C      1  0.4151060000000  0.4837760000000  0.5637510000000 1.0
C      1  0.4785890000000  0.4144910000000  0.5017400000000 1.0
C      1  0.4928250000000  0.5844430000000  0.4554050000000 1.0
C      1  0.5156760000000  0.5713520000000  0.4441450000000 1.0
C      1  0.4503140000000  0.4693650000000  0.4704180000000 1.0
C      1  0.5160060000000  0.4241980000000  0.4484290000000 1.0
C      1  0.4206420000000  0.5646600000000  0.5271970000000 1.0
C      1  0.5088820000000  0.4921550000000  0.5049730000000 1.0
C      1  0.4976610000000  0.4536340000000  0.4809910000000 1.0
C      1  0.4787750000000  0.4837540000000  0.6002530000000 1.0
C      1  0.4220520000000  0.4650080000000  0.4611610000000 1.0
C      1  0.5531430000000  0.5322240000000  0.5216510000000 1.0
C      1  0.5825580000000  0.5418650000000  0.5213020000000 1.0
C      1  0.5604370000000  0.4241740000000  0.4773430000000 1.0
C      1  0.5781500000000  0.5732250000000  0.5258880000000 1.0
C      1  0.4732000000000  0.4084190000000  0.4730240000000 1.0
C      1  0.4903900000000  0.4916230000000  0.4364930000000 1.0
C      1  0.5628280000000  0.4911310000000  0.4157410000000 1.0
C      1  0.4223400000000  0.4972540000000  0.4266530000000 1.0
C      1  0.5000520000000  0.5953800000000  0.4822920000000 1.0
C      1  0.4310200000000  0.5808710000000  0.5050770000000 1.0
C      1  0.4919500000000  0.4518830000000  0.5269810000000 1.0
C      1  0.4561990000000  0.5268030000000  0.4858560000000 1.0
C      1  0.3987870000000  0.5300820000000  0.4976240000000 1.0
C      1  0.4939170000000  0.5284620000000  0.4566950000000 1.0
C      1  0.4570330000000  0.4491760000000  0.5770700000000 1.0
C      1  0.5282120000000  0.4807530000000  0.4625790000000 1.0
C      1  0.5157820000000  0.5201750000000  0.4961560000000 1.0
C      1  0.4406510000000  0.4255370000000  0.5313500000000 1.0
C      1  0.4793340000000  0.5117810000000  0.5972930000000 1.0
C      1  0.4848870000000  0.4459460000000  0.5758180000000 1.0
C      1  0.5923760000000  0.4713850000000  0.5327300000000 1.0
C      1  0.4378630000000  0.4404950000000  0.5559710000000 1.0
C      1  0.5020360000000  0.4694020000000  0.5864980000000 1.0
C      1  0.3972550000000  0.4845230000000  0.5183380000000 1.0
C      1  0.5502370000000  0.5765870000000  0.5344500000000 1.0
C      1  0.4031640000000  0.4985740000000  0.5427620000000 1.0
C      1  0.4485440000000  0.5107130000000  0.5283570000000 1.0
C      1  0.4822100000000  0.5833750000000  0.5524790000000 1.0
C      1  0.5461240000000  0.5708060000000  0.4853780000000 1.0
C      1  0.4163640000000  0.4582590000000  0.5513770000000 1.0
C      1  0.5594350000000  0.5106680000000  0.4772500000000 1.0
C      1  0.5380400000000  0.4842940000000  0.5100640000000 1.0
C      1  0.4557210000000  0.5934250000000  0.5145000000000 1.0
C      1  0.5178590000000  0.4377740000000  0.5211300000000 1.0
C      1  0.5069070000000  0.5197920000000  0.5876690000000 1.0
C      1  0.4429240000000  0.5410830000000  0.4195620000000 1.0
C      1  0.5391970000000  0.5574760000000  0.5132200000000 1.0
C      1  0.4794830000000  0.5423110000000  0.4783880000000 1.0
C      1  0.5231170000000  0.4448490000000  0.4930410000000 1.0
C      1  0.4622790000000  0.5009700000000  0.4014930000000 1.0
C      1  0.5067120000000  0.4945710000000  0.5673190000000 1.0
C      1  0.5340040000000  0.4959250000000  0.5553080000000 1.0
C      1  0.4292280000000  0.4704550000000  0.4324650000000 1.0
C      1  0.4676200000000  0.5542630000000  0.4241990000000 1.0
C      1  0.4600120000000  0.4875140000000  0.5098030000000 1.0
C      1  0.5821400000000  0.4700200000000  0.4489730000000 1.0
C      1  0.5601750000000  0.4508380000000  0.4377320000000 1.0
C      1  0.4883640000000  0.5084350000000  0.4115560000000 1.0
C      1  0.5027780000000  0.4832810000000  0.4786790000000 1.0
C      1  0.5445580000000  0.5611260000000  0.5593650000000 1.0
C      1  0.4648380000000  0.4477710000000  0.4482090000000 1.0
C      1  0.4998360000000  0.4037290000000  0.4603710000000 1.0
C      1  0.4521100000000  0.4257600000000  0.4633370000000 1.0
C      1  0.5843860000000  0.4693390000000  0.5605970000000 1.0
C      1  0.5099010000000  0.5563870000000  0.5238840000000 1.0
C      1  0.4066870000000  0.5082310000000  0.4477050000000 1.0
C      1  0.5393980000000  0.5067680000000  0.4560810000000 1.0
C      1  0.4964120000000  0.4467740000000  0.4509150000000 1.0
C      1  0.5921480000000  0.5193580000000  0.5371180000000 1.0
C      1  0.5721770000000  0.4509390000000  0.4899200000000 1.0
C      1  0.4834850000000  0.5965400000000  0.5062860000000 1.0
C      1  0.4280840000000  0.4373510000000  0.4766400000000 1.0
C      1  0.5019670000000  0.5444160000000  0.5738200000000 1.0
C      1  0.4845280000000  0.5004750000000  0.4626830000000 1.0
C      1  0.5439190000000  0.4465160000000  0.5725190000000 1.0
C      1  0.5710850000000  0.4445090000000  0.5648330000000 1.0
C      1  0.4875080000000  0.4828320000000  0.5241130000000 1.0
C      1  0.5978550000000  0.4963200000000  0.5198560000000 1.0
C      1  0.4792840000000  0.5605840000000  0.5703270000000 1.0
C      1  0.4375630000000  0.5734570000000  0.4534020000000 1.0
C      1  0.5418690000000  0.4757760000000  0.5364690000000 1.0
C      1  0.5480450000000  0.4915130000000  0.5851510000000 1.0
C      1  0.5383890000000  0.5186590000000  0.5915770000000 1.0
C      1  0.4928960000000  0.5385400000000  0.5064160000000 1.0
C      1  0.5427390000000  0.4650940000000  0.4873640000000 1.0
C      1  0.5321230000000  0.4654100000000  0.5899570000000 1.0
C      1  0.3972560000000  0.5004940000000  0.4940850000000 1.0
C      1  0.5213790000000  0.4664730000000  0.4109790000000 1.0
C      1  0.5891990000000  0.5885480000000  0.5063870000000 1.0
C      1  0.5888650000000  0.5201960000000  0.4764340000000 1.0
C      1  0.5286820000000  0.5955540000000  0.5227130000000 1.0
C      1  0.5800950000000  0.5177410000000  0.5636700000000 1.0
C      1  0.4040590000000  0.4892190000000  0.4684870000000 1.0
C      1  0.4251310000000  0.5530950000000  0.4372840000000 1.0
C      1  0.5534070000000  0.4052170000000  0.4988620000000 1.0
C      1  0.4601060000000  0.4983040000000  0.4793140000000 1.0
C      1  0.4523410000000  0.4596090000000  0.4994200000000 1.0
C      1  0.4396810000000  0.5139100000000  0.4112490000000 1.0
C      1  0.5822510000000  0.4493410000000  0.5180740000000 1.0
C      1  0.4540260000000  0.4595970000000  0.4229080000000 1.0
C      1  0.5394620000000  0.5244330000000  0.5471890000000 1.0
C      1  0.4872480000000  0.4076130000000  0.5400960000000 1.0
C      1  0.4082950000000  0.4585390000000  0.5235900000000 1.0
C      1  0.4048510000000  0.5484500000000  0.4770890000000 1.0
C      1  0.5846680000000  0.5223910000000  0.4473720000000 1.0
C      1  0.5010090000000  0.5875330000000  0.5292420000000 1.0
C      1  0.4076270000000  0.5404540000000  0.5220970000000 1.0
C      1  0.5557360000000  0.5349600000000  0.5713780000000 1.0
C      1  0.4538530000000  0.4737450000000  0.5915610000000 1.0
C      1  0.4381360000000  0.5666330000000  0.5509290000000 1.0
C      1  0.4658360000000  0.5756310000000  0.4439140000000 1.0
C      1  0.5104590000000  0.4698210000000  0.4382140000000 1.0
C      1  0.5060290000000  0.4096400000000  0.5160780000000 1.0
C      1  0.5218480000000  0.5287870000000  0.4662740000000 1.0
C      1  0.4068920000000  0.5367220000000  0.4515680000000 1.0
C      1  0.5674580000000  0.4329020000000  0.5370580000000 1.0
C      1  0.4190560000000  0.5202640000000  0.5369890000000 1.0
C      1  0.5333940000000  0.5533220000000  0.4015440000000 1.0
C      1  0.5269820000000  0.5931040000000  0.4931610000000 1.0
C      1  0.5460340000000  0.4296920000000  0.4521760000000 1.0
C      1  0.4697440000000  0.4724600000000  0.4023890000000 1.0
C      1  0.5492330000000  0.5379040000000  0.4173510000000 1.0
C      1  0.4624060000000  0.4083290000000  0.5260920000000 1.0
END
