TITL C-33281-4911-7 29.0603371428804 125000 -539.299815612532 0 0 78 (C1) n - 1
REM
REM in /rds/project/t2_vol4/rds-t2-cs072/BORA/CARBON/from-Arr/AIRSS/Generating-Clusters/GAP-ML-2020/Only-C1/SD-CG/HFTN-CG
REM
REM
REM
REM
REM
REM ./C.cell (11c1c37f851c82e70ff6c80c92926a4b)
REM AIRSS Version 0.9.1 bugfix July 2018 build 013d7b7c2542+ Fri, 06 Jul 2018 19:26:36 +0100
REM compiler GCC version 9.3.0
REM options -cpp -mtune=generic -march=x86-64 -g -O0
REM seed 1344103652 -1835694464 -2058091353 -958668207 1793520490 -218204153 164098972 1874008104 1307582744 -1287211351 -1728810740 2136901216 387503214 1412588540 737520315 -281673021 -353321744 -904621721 -220890534 -1857137574 -1279360903 -1264000998 648454920 1666058107 1265212263 -1231077571 -1730589868 517706572 -757544873 173280108 661083327 1414502267 -1069760580
REM
CELL 1.54180   50.00000   50.00000   50.00000   90.00000   90.00000   90.00000
LATT -1
SFAC C  
C      1  0.5703800000000  0.4766400000000  0.4916070000000 1.0
C      1  0.5064260000000  0.4699110000000  0.5723530000000 1.0
C      1  0.4504560000000  0.5600180000000  0.5251030000000 1.0
C      1  0.4895130000000  0.5674740000000  0.4971010000000 1.0
C      1  0.5314790000000  0.5039630000000  0.4888470000000 1.0
C      1  0.4913380000000  0.4945490000000  0.4678860000000 1.0
C      1  0.4483970000000  0.5139950000000  0.5622560000000 1.0
C      1  0.4334930000000  0.4815390000000  0.4963100000000 1.0
C      1  0.5391020000000  0.5208070000000  0.4654030000000 1.0
C      1  0.5792410000000  0.5256070000000  0.4966190000000 1.0
C      1  0.4475230000000  0.4354340000000  0.4740780000000 1.0
C      1  0.4749720000000  0.5162320000000  0.4278820000000 1.0
C      1  0.4533760000000  0.4656990000000  0.5469390000000 1.0
C      1  0.4716650000000  0.4648900000000  0.4343720000000 1.0
C      1  0.4460640000000  0.4784190000000  0.5219880000000 1.0
C      1  0.5058910000000  0.4276470000000  0.5126750000000 1.0
C      1  0.4779130000000  0.5695490000000  0.5230860000000 1.0
C      1  0.4739310000000  0.5635340000000  0.4732990000000 1.0
C      1  0.4849310000000  0.4878700000000  0.5796990000000 1.0
C      1  0.5344740000000  0.4608720000000  0.4555470000000 1.0
C      1  0.5147910000000  0.5412730000000  0.4254890000000 1.0
C      1  0.4763710000000  0.4349600000000  0.5148950000000 1.0
C      1  0.4478490000000  0.5505120000000  0.4752340000000 1.0
C      1  0.4892760000000  0.5617720000000  0.4501600000000 1.0
C      1  0.4909990000000  0.5158960000000  0.5839820000000 1.0
C      1  0.4991990000000  0.4580560000000  0.4828240000000 1.0
C      1  0.4974150000000  0.4981120000000  0.4206440000000 1.0
C      1  0.5434970000000  0.4543080000000  0.5273810000000 1.0
C      1  0.5510990000000  0.5221420000000  0.5498920000000 1.0
C      1  0.5746240000000  0.4797070000000  0.4648320000000 1.0
C      1  0.4618300000000  0.4805210000000  0.4551870000000 1.0
C      1  0.4859210000000  0.5428240000000  0.4280470000000 1.0
C      1  0.5330220000000  0.5491780000000  0.4711120000000 1.0
C      1  0.4300100000000  0.5270400000000  0.5113770000000 1.0
C      1  0.5025260000000  0.5155660000000  0.5318290000000 1.0
C      1  0.4705370000000  0.5293110000000  0.5711260000000 1.0
C      1  0.5110030000000  0.4505750000000  0.4407690000000 1.0
C      1  0.5548620000000  0.4543030000000  0.5006740000000 1.0
C      1  0.4786050000000  0.5336460000000  0.5422370000000 1.0
C      1  0.5095340000000  0.5206530000000  0.5034630000000 1.0
C      1  0.4406940000000  0.5230220000000  0.4659780000000 1.0
C      1  0.5219830000000  0.5140310000000  0.4227940000000 1.0
C      1  0.4501260000000  0.4651880000000  0.4781880000000 1.0
C      1  0.5411050000000  0.4421900000000  0.4792780000000 1.0
C      1  0.5629210000000  0.5023040000000  0.5051260000000 1.0
C      1  0.4753630000000  0.4608070000000  0.4978850000000 1.0
C      1  0.5189810000000  0.4405510000000  0.5334150000000 1.0
C      1  0.5545630000000  0.4805000000000  0.4466410000000 1.0
C      1  0.4732270000000  0.4450430000000  0.5430710000000 1.0
C      1  0.5381810000000  0.5579860000000  0.5143990000000 1.0
C      1  0.4293520000000  0.5087600000000  0.4895130000000 1.0
C      1  0.5424330000000  0.5068420000000  0.4407240000000 1.0
C      1  0.4920010000000  0.5595900000000  0.5457090000000 1.0
C      1  0.4586550000000  0.4866060000000  0.5658880000000 1.0
C      1  0.5354180000000  0.5110330000000  0.5713740000000 1.0
C      1  0.5483830000000  0.4761140000000  0.5452110000000 1.0
C      1  0.5400120000000  0.5478840000000  0.5414790000000 1.0
C      1  0.5143510000000  0.5507530000000  0.4975350000000 1.0
C      1  0.4964290000000  0.4693490000000  0.4244840000000 1.0
C      1  0.4610490000000  0.4199930000000  0.4944680000000 1.0
C      1  0.5191380000000  0.5593810000000  0.4478270000000 1.0
C      1  0.4370390000000  0.5531440000000  0.5011590000000 1.0
C      1  0.5160160000000  0.4317360000000  0.4863000000000 1.0
C      1  0.5824300000000  0.5508330000000  0.4915580000000 1.0
C      1  0.4753650000000  0.4865230000000  0.5119220000000 1.0
C      1  0.4849510000000  0.5074950000000  0.4919300000000 1.0
C      1  0.5320330000000  0.4826220000000  0.5681920000000 1.0
C      1  0.4975460000000  0.4359150000000  0.4627680000000 1.0
C      1  0.4717020000000  0.4229320000000  0.4680460000000 1.0
C      1  0.4944850000000  0.4897080000000  0.5322750000000 1.0
C      1  0.5149080000000  0.5291370000000  0.5767680000000 1.0
C      1  0.4455610000000  0.5314070000000  0.5364880000000 1.0
C      1  0.5157690000000  0.4801340000000  0.4745660000000 1.0
C      1  0.5166350000000  0.5519930000000  0.5576690000000 1.0
C      1  0.5593890000000  0.4999930000000  0.5342660000000 1.0
C      1  0.4534630000000  0.5077010000000  0.4455240000000 1.0
C      1  0.4996970000000  0.4486450000000  0.5536590000000 1.0
C      1  0.5551110000000  0.5571500000000  0.4917150000000 1.0
END
