TITL C-33273-4823-4 444.436104607332 125000 -304.841150936399 0 0 45 (C1) n - 1
REM
REM in /rds/project/t2_vol4/rds-t2-cs072/BORA/CARBON/from-Arr/AIRSS/Generating-Clusters/GAP-ML-2020/Only-C1/SD-CG/HFTN-CG
REM
REM
REM
REM
REM
REM ./C.cell (11c1c37f851c82e70ff6c80c92926a4b)
REM AIRSS Version 0.9.1 bugfix July 2018 build 013d7b7c2542+ Fri, 06 Jul 2018 19:26:36 +0100
REM compiler GCC version 9.3.0
REM options -cpp -mtune=generic -march=x86-64 -g -O0
REM seed -1963329244 -144100352 1463392718 1281456203 1129212961 -1903295150 1776522725 857700061 -1449475180 -1201639570 1647735183 -2023988322 1670457418 476418215 -284142589 -402461383 1897689896 2072051043 -441766985 -933683024 -1889663986 701978253 1690909875 -1317002169 -449866589 1676240597 -1571887172 -1863059811 1205346168 -1389462566 1251967377 -556314268 13188518
REM
CELL 1.54180   50.00000   50.00000   50.00000   90.00000   90.00000   90.00000
LATT -1
SFAC C  
C      1  0.4372670000000  0.4587510000000  0.5316220000000 1.0
C      1  0.5614340000000  0.5177730000000  0.4903560000000 1.0
C      1  0.4889250000000  0.4429890000000  0.4812090000000 1.0
C      1  0.5221680000000  0.5025100000000  0.4679070000000 1.0
C      1  0.4467190000000  0.5324240000000  0.5157270000000 1.0
C      1  0.4825600000000  0.5388210000000  0.5455490000000 1.0
C      1  0.5534040000000  0.5081650000000  0.5167790000000 1.0
C      1  0.4836630000000  0.4414510000000  0.5101450000000 1.0
C      1  0.4777720000000  0.4616240000000  0.4620980000000 1.0
C      1  0.4863240000000  0.4642720000000  0.5440640000000 1.0
C      1  0.5220290000000  0.4780540000000  0.4494390000000 1.0
C      1  0.5045990000000  0.5188540000000  0.4490440000000 1.0
C      1  0.5370870000000  0.4395980000000  0.4945260000000 1.0
C      1  0.5320330000000  0.5539860000000  0.4938350000000 1.0
C      1  0.5396660000000  0.4505090000000  0.4682060000000 1.0
C      1  0.4418830000000  0.5044290000000  0.5105270000000 1.0
C      1  0.4555610000000  0.5399020000000  0.5403280000000 1.0
C      1  0.5314430000000  0.4569840000000  0.5177400000000 1.0
C      1  0.4987240000000  0.5532160000000  0.5269460000000 1.0
C      1  0.5059200000000  0.4499010000000  0.5277110000000 1.0
C      1  0.5266760000000  0.5488630000000  0.5218610000000 1.0
C      1  0.4606550000000  0.5458420000000  0.4937640000000 1.0
C      1  0.5154890000000  0.4973340000000  0.4980320000000 1.0
C      1  0.4612400000000  0.5078310000000  0.4531660000000 1.0
C      1  0.4847050000000  0.5016520000000  0.4382880000000 1.0
C      1  0.4898810000000  0.4972470000000  0.5098950000000 1.0
C      1  0.4857330000000  0.5584810000000  0.5018820000000 1.0
C      1  0.4652450000000  0.5349340000000  0.4671940000000 1.0
C      1  0.5566050000000  0.5445470000000  0.4852280000000 1.0
C      1  0.5054320000000  0.5570690000000  0.4815620000000 1.0
C      1  0.4637980000000  0.4521370000000  0.5292200000000 1.0
C      1  0.4645380000000  0.4937890000000  0.4962940000000 1.0
C      1  0.5155290000000  0.5132490000000  0.5754860000000 1.0
C      1  0.4932710000000  0.5132590000000  0.5566900000000 1.0
C      1  0.4320340000000  0.4830240000000  0.5235060000000 1.0
C      1  0.5341640000000  0.5217670000000  0.5602350000000 1.0
C      1  0.4951880000000  0.4736590000000  0.4419840000000 1.0
C      1  0.5526960000000  0.5004590000000  0.4691810000000 1.0
C      1  0.5373330000000  0.4846380000000  0.5138220000000 1.0
C      1  0.4925050000000  0.5423410000000  0.4607110000000 1.0
C      1  0.5166390000000  0.4349380000000  0.4760700000000 1.0
C      1  0.5432420000000  0.5285470000000  0.5351110000000 1.0
C      1  0.4877760000000  0.4918640000000  0.5399420000000 1.0
C      1  0.5499370000000  0.4742530000000  0.4570570000000 1.0
C      1  0.4605080000000  0.4840640000000  0.4700610000000 1.0
END
