TITL C-33262-4899-9 100.882196179382 125000 -653.646787056872 0 0 95 (C1) n - 1
REM
REM in /rds/project/t2_vol4/rds-t2-cs072/BORA/CARBON/from-Arr/AIRSS/Generating-Clusters/GAP-ML-2020/Only-C1/SD-CG/HFTN-CG
REM
REM
REM
REM
REM
REM ./C.cell (11c1c37f851c82e70ff6c80c92926a4b)
REM AIRSS Version 0.9.1 bugfix July 2018 build 013d7b7c2542+ Fri, 06 Jul 2018 19:26:36 +0100
REM compiler GCC version 9.3.0
REM options -cpp -mtune=generic -march=x86-64 -g -O0
REM seed -353968372 -1086635283 245149999 -534077050 106702032 1060123323 1918540658 -361941823 1136480439 1453147018 1764343636 2085170184 -1032809191 1452921408 -1461220269 2028768244 -1078109725 1733447324 -688749543 38804622 -1319396180 1713052580 1067608207 1612955360 -1582497926 -1632311654 -1642356165 1601027612 1125150471 -1729679155 -1417714821 1863056288 672995279
REM
CELL 1.54180   50.00000   50.00000   50.00000   90.00000   90.00000   90.00000
LATT -1
SFAC C  
C      1  0.4193630000000  0.4782540000000  0.5400110000000 1.0
C      1  0.4891110000000  0.4907680000000  0.5197020000000 1.0
C      1  0.4590580000000  0.4937470000000  0.5884010000000 1.0
C      1  0.5933350000000  0.5299230000000  0.4748870000000 1.0
C      1  0.4948100000000  0.5387650000000  0.5397530000000 1.0
C      1  0.4470750000000  0.4792870000000  0.5346340000000 1.0
C      1  0.5152660000000  0.4360010000000  0.4752720000000 1.0
C      1  0.4737770000000  0.4793180000000  0.5443710000000 1.0
C      1  0.4239540000000  0.5312790000000  0.5145630000000 1.0
C      1  0.4758260000000  0.4267830000000  0.5048850000000 1.0
C      1  0.4032650000000  0.4857960000000  0.4921750000000 1.0
C      1  0.5344620000000  0.4897140000000  0.5631630000000 1.0
C      1  0.4668630000000  0.4627100000000  0.4498820000000 1.0
C      1  0.4293550000000  0.5268570000000  0.4675750000000 1.0
C      1  0.5419760000000  0.5333460000000  0.5503790000000 1.0
C      1  0.4824500000000  0.4955480000000  0.5694650000000 1.0
C      1  0.4948070000000  0.5577660000000  0.4399790000000 1.0
C      1  0.5540560000000  0.4397860000000  0.4502820000000 1.0
C      1  0.5261110000000  0.5723460000000  0.5267620000000 1.0
C      1  0.5024920000000  0.4684320000000  0.5075840000000 1.0
C      1  0.4728640000000  0.5032600000000  0.4982730000000 1.0
C      1  0.5542290000000  0.4979360000000  0.5129620000000 1.0
C      1  0.4259940000000  0.5257840000000  0.5420900000000 1.0
C      1  0.5207900000000  0.5224250000000  0.4249620000000 1.0
C      1  0.4582220000000  0.5157190000000  0.4292590000000 1.0
C      1  0.4480340000000  0.4894960000000  0.4889060000000 1.0
C      1  0.4477820000000  0.4677040000000  0.5083600000000 1.0
C      1  0.4865360000000  0.4283520000000  0.4790780000000 1.0
C      1  0.4593140000000  0.4321710000000  0.5442380000000 1.0
C      1  0.5225160000000  0.5482920000000  0.4360840000000 1.0
C      1  0.5046770000000  0.4523730000000  0.5686640000000 1.0
C      1  0.4366240000000  0.5528820000000  0.5031630000000 1.0
C      1  0.5187770000000  0.4703840000000  0.4833310000000 1.0
C      1  0.5711880000000  0.4809100000000  0.4686310000000 1.0
C      1  0.5791250000000  0.5090350000000  0.4646700000000 1.0
C      1  0.4642270000000  0.5712380000000  0.4766410000000 1.0
C      1  0.4588900000000  0.5704190000000  0.5056850000000 1.0
C      1  0.5111070000000  0.5787070000000  0.4825340000000 1.0
C      1  0.5339160000000  0.5067160000000  0.5383090000000 1.0
C      1  0.5544580000000  0.4463280000000  0.5041270000000 1.0
C      1  0.5200420000000  0.4243460000000  0.5219840000000 1.0
C      1  0.4750120000000  0.5309540000000  0.4912340000000 1.0
C      1  0.4681780000000  0.4405040000000  0.4643760000000 1.0
C      1  0.5446240000000  0.5197650000000  0.4930580000000 1.0
C      1  0.5167670000000  0.4607030000000  0.4326390000000 1.0
C      1  0.4969150000000  0.5144980000000  0.4793250000000 1.0
C      1  0.5260370000000  0.4376410000000  0.4479680000000 1.0
C      1  0.5604110000000  0.4442130000000  0.5319420000000 1.0
C      1  0.4228990000000  0.5098010000000  0.4926600000000 1.0
C      1  0.4169220000000  0.5008020000000  0.5564940000000 1.0
C      1  0.4496740000000  0.5445330000000  0.4769850000000 1.0
C      1  0.5376020000000  0.4302980000000  0.5442930000000 1.0
C      1  0.4799880000000  0.4972530000000  0.4220620000000 1.0
C      1  0.4450100000000  0.4773530000000  0.4610880000000 1.0
C      1  0.5395280000000  0.4773050000000  0.4316820000000 1.0
C      1  0.5626640000000  0.4655340000000  0.4455380000000 1.0
C      1  0.4491700000000  0.4281660000000  0.5184180000000 1.0
C      1  0.5082930000000  0.5140520000000  0.5251550000000 1.0
C      1  0.5078900000000  0.4917010000000  0.4633170000000 1.0
C      1  0.5220190000000  0.5526480000000  0.5462810000000 1.0
C      1  0.5723550000000  0.4660320000000  0.5443870000000 1.0
C      1  0.5512900000000  0.4741940000000  0.4919400000000 1.0
C      1  0.5316130000000  0.5030840000000  0.4437480000000 1.0
C      1  0.5092810000000  0.4806300000000  0.5734880000000 1.0
C      1  0.5403660000000  0.5793750000000  0.4835070000000 1.0
C      1  0.4212950000000  0.4858750000000  0.4481630000000 1.0
C      1  0.4960570000000  0.5192700000000  0.4132580000000 1.0
C      1  0.4093140000000  0.4669510000000  0.5144450000000 1.0
C      1  0.5268860000000  0.4356410000000  0.5685220000000 1.0
C      1  0.4823130000000  0.5535320000000  0.5143090000000 1.0
C      1  0.5774450000000  0.5059530000000  0.5554180000000 1.0
C      1  0.5624740000000  0.4839090000000  0.5665490000000 1.0
C      1  0.4769950000000  0.5251210000000  0.5591580000000 1.0
C      1  0.5039420000000  0.5729320000000  0.5093110000000 1.0
C      1  0.5806050000000  0.5530320000000  0.4837790000000 1.0
C      1  0.4894760000000  0.5733150000000  0.4638370000000 1.0
C      1  0.4384810000000  0.5048670000000  0.5760320000000 1.0
C      1  0.4956640000000  0.4411750000000  0.5209430000000 1.0
C      1  0.4824620000000  0.4495190000000  0.5478250000000 1.0
C      1  0.4774760000000  0.5384930000000  0.4258410000000 1.0
C      1  0.4345890000000  0.5111310000000  0.4443950000000 1.0
C      1  0.5469920000000  0.5470020000000  0.4506460000000 1.0
C      1  0.5175870000000  0.5221780000000  0.4975140000000 1.0
C      1  0.5815150000000  0.5497880000000  0.5350360000000 1.0
C      1  0.4005430000000  0.4819270000000  0.4656510000000 1.0
C      1  0.5793820000000  0.4908040000000  0.5309380000000 1.0
C      1  0.5594950000000  0.5653790000000  0.4675070000000 1.0
C      1  0.5511380000000  0.5192510000000  0.4603300000000 1.0
C      1  0.5331240000000  0.4283330000000  0.4976870000000 1.0
C      1  0.5493660000000  0.5764330000000  0.5103980000000 1.0
C      1  0.4283880000000  0.4461210000000  0.5090040000000 1.0
C      1  0.4487790000000  0.5282520000000  0.5601370000000 1.0
C      1  0.5747830000000  0.5621400000000  0.5119800000000 1.0
C      1  0.5706610000000  0.5332150000000  0.5541810000000 1.0
C      1  0.4915420000000  0.4765140000000  0.4399470000000 1.0
END
