TITL C-33283-4968-4 0.144134879506357 125000 -660.868940009107 0 0 96 (C1) n - 1
REM
REM in /rds/project/t2_vol4/rds-t2-cs072/BORA/CARBON/from-Arr/AIRSS/Generating-Clusters/GAP-ML-2020/Only-C1/SD-CG/HFTN-CG
REM
REM
REM
REM
REM
REM ./C.cell (11c1c37f851c82e70ff6c80c92926a4b)
REM AIRSS Version 0.9.1 bugfix July 2018 build 013d7b7c2542+ Fri, 06 Jul 2018 19:26:36 +0100
REM compiler GCC version 9.3.0
REM options -cpp -mtune=generic -march=x86-64 -g -O0
REM seed 2112925711 -2004643338 -1632504562 -838879403 -1738072075 307230009 446306059 2053838603 1063611069 -479497261 -766752500 -1058375067 -1317076071 641498005 -1813899665 1579054320 -741768558 662271597 1971646759 -1127315547 1492282081 120955076 1842695669 -201230346 547057766 927696248 -967012520 -866459277 430893742 794052823 -1341935019 -1195580208 -782512644
REM
CELL 1.54180   50.00000   50.00000   50.00000   90.00000   90.00000   90.00000
LATT -1
SFAC C  
C      1  0.4907090000000  0.5775950000000  0.4637040000000 1.0
C      1  0.5178750000000  0.5762460000000  0.4725970000000 1.0
C      1  0.5767580000000  0.4886560000000  0.5365000000000 1.0
C      1  0.4865110000000  0.4190830000000  0.5122370000000 1.0
C      1  0.4985300000000  0.5024110000000  0.5780030000000 1.0
C      1  0.5266510000000  0.5049470000000  0.5703160000000 1.0
C      1  0.5601680000000  0.4682590000000  0.5489310000000 1.0
C      1  0.4492190000000  0.5038180000000  0.5571920000000 1.0
C      1  0.4960550000000  0.4449610000000  0.5563420000000 1.0
C      1  0.4473950000000  0.5654260000000  0.4604050000000 1.0
C      1  0.5153850000000  0.5013270000000  0.4855620000000 1.0
C      1  0.5178640000000  0.4284950000000  0.4744860000000 1.0
C      1  0.4284040000000  0.5224570000000  0.4549560000000 1.0
C      1  0.5894220000000  0.5014320000000  0.4930170000000 1.0
C      1  0.5374000000000  0.4264010000000  0.5216160000000 1.0
C      1  0.5555540000000  0.5395730000000  0.5494710000000 1.0
C      1  0.4642450000000  0.4857540000000  0.4587520000000 1.0
C      1  0.5147880000000  0.5767760000000  0.5008730000000 1.0
C      1  0.5055890000000  0.4559340000000  0.5165410000000 1.0
C      1  0.4586880000000  0.5732970000000  0.5077190000000 1.0
C      1  0.5822540000000  0.4988970000000  0.4656400000000 1.0
C      1  0.5023880000000  0.4770350000000  0.5918440000000 1.0
C      1  0.5031760000000  0.5277440000000  0.4770680000000 1.0
C      1  0.5337740000000  0.4777210000000  0.5578620000000 1.0
C      1  0.4743470000000  0.5614880000000  0.5313430000000 1.0
C      1  0.4163170000000  0.4835670000000  0.4912440000000 1.0
C      1  0.4854540000000  0.5361210000000  0.5145220000000 1.0
C      1  0.5071300000000  0.5469740000000  0.5657860000000 1.0
C      1  0.4641980000000  0.5013490000000  0.4852360000000 1.0
C      1  0.5326750000000  0.5320220000000  0.5648880000000 1.0
C      1  0.4364700000000  0.4741860000000  0.4545490000000 1.0
C      1  0.5179790000000  0.4615660000000  0.4305010000000 1.0
C      1  0.5504130000000  0.4949390000000  0.4389560000000 1.0
C      1  0.5160010000000  0.4378800000000  0.4450950000000 1.0
C      1  0.4539610000000  0.5497620000000  0.5492400000000 1.0
C      1  0.4810010000000  0.4951920000000  0.5532120000000 1.0
C      1  0.4722760000000  0.4898260000000  0.5091210000000 1.0
C      1  0.4460150000000  0.4734050000000  0.5557290000000 1.0
C      1  0.4273500000000  0.4702090000000  0.5358450000000 1.0
C      1  0.5009040000000  0.5670950000000  0.5456300000000 1.0
C      1  0.4762960000000  0.4626400000000  0.5189520000000 1.0
C      1  0.5822100000000  0.5256800000000  0.5051530000000 1.0
C      1  0.5149410000000  0.5024060000000  0.5179790000000 1.0
C      1  0.4734790000000  0.5044960000000  0.4368380000000 1.0
C      1  0.4616330000000  0.5514190000000  0.4402060000000 1.0
C      1  0.4325090000000  0.5603530000000  0.5105250000000 1.0
C      1  0.5237810000000  0.4767630000000  0.5275970000000 1.0
C      1  0.5865520000000  0.4795700000000  0.5115000000000 1.0
C      1  0.5454190000000  0.5592980000000  0.5321990000000 1.0
C      1  0.5235060000000  0.4900400000000  0.4303900000000 1.0
C      1  0.4253050000000  0.5488730000000  0.4676180000000 1.0
C      1  0.4827600000000  0.4637160000000  0.4622190000000 1.0
C      1  0.4634820000000  0.4369910000000  0.5114150000000 1.0
C      1  0.4323780000000  0.5417470000000  0.5329850000000 1.0
C      1  0.5066150000000  0.4753900000000  0.4758530000000 1.0
C      1  0.5136470000000  0.4600750000000  0.5732720000000 1.0
C      1  0.5681830000000  0.4758450000000  0.4538110000000 1.0
C      1  0.4138990000000  0.5587840000000  0.4903580000000 1.0
C      1  0.5564520000000  0.5416620000000  0.4633190000000 1.0
C      1  0.5662040000000  0.4360310000000  0.4840770000000 1.0
C      1  0.4605030000000  0.5301620000000  0.5679610000000 1.0
C      1  0.5686620000000  0.5175440000000  0.5319470000000 1.0
C      1  0.4298510000000  0.4599920000000  0.4810570000000 1.0
C      1  0.4884070000000  0.5587380000000  0.4422520000000 1.0
C      1  0.4873650000000  0.5300010000000  0.5773870000000 1.0
C      1  0.4917400000000  0.4202190000000  0.4842920000000 1.0
C      1  0.5073870000000  0.4299050000000  0.5306420000000 1.0
C      1  0.4647610000000  0.4482630000000  0.4220620000000 1.0
C      1  0.5448310000000  0.4977690000000  0.4909830000000 1.0
C      1  0.5019120000000  0.5104670000000  0.4329240000000 1.0
C      1  0.5083750000000  0.5374830000000  0.4463570000000 1.0
C      1  0.5406240000000  0.5440350000000  0.5077810000000 1.0
C      1  0.5208640000000  0.4559860000000  0.4902590000000 1.0
C      1  0.4743420000000  0.4642600000000  0.5487250000000 1.0
C      1  0.4879960000000  0.5083850000000  0.5259970000000 1.0
C      1  0.4716370000000  0.4379420000000  0.4734490000000 1.0
C      1  0.4660020000000  0.5772530000000  0.4792820000000 1.0
C      1  0.4750280000000  0.5275820000000  0.4865770000000 1.0
C      1  0.5583660000000  0.4449020000000  0.5302690000000 1.0
C      1  0.4168830000000  0.4908990000000  0.5201730000000 1.0
C      1  0.5229190000000  0.5761800000000  0.5299630000000 1.0
C      1  0.5113000000000  0.5473500000000  0.4995390000000 1.0
C      1  0.5649780000000  0.5174010000000  0.4511220000000 1.0
C      1  0.4287440000000  0.5134330000000  0.5369830000000 1.0
C      1  0.4529870000000  0.5248950000000  0.4382900000000 1.0
C      1  0.4470220000000  0.4393280000000  0.4884610000000 1.0
C      1  0.5443890000000  0.4706040000000  0.5029510000000 1.0
C      1  0.4192380000000  0.4972900000000  0.4645640000000 1.0
C      1  0.5422470000000  0.5160570000000  0.5154650000000 1.0
C      1  0.5668170000000  0.4502360000000  0.4608320000000 1.0
C      1  0.5644240000000  0.5435630000000  0.4907080000000 1.0
C      1  0.4911260000000  0.4516530000000  0.4367040000000 1.0
C      1  0.5415930000000  0.4224100000000  0.4926280000000 1.0
C      1  0.5717790000000  0.4543720000000  0.5065090000000 1.0
C      1  0.4423090000000  0.4572320000000  0.4301110000000 1.0
C      1  0.5320470000000  0.5546050000000  0.4559990000000 1.0
END
