TITL C-33269-4905-3 -14.9476496116517 125000 -543.173629014067 0 0 79 (C1) n - 1
REM
REM in /rds/project/t2_vol4/rds-t2-cs072/BORA/CARBON/from-Arr/AIRSS/Generating-Clusters/GAP-ML-2020/Only-C1/SD-CG/HFTN-CG
REM
REM
REM
REM
REM
REM ./C.cell (11c1c37f851c82e70ff6c80c92926a4b)
REM AIRSS Version 0.9.1 bugfix July 2018 build 013d7b7c2542+ Fri, 06 Jul 2018 19:26:36 +0100
REM compiler GCC version 9.3.0
REM options -cpp -mtune=generic -march=x86-64 -g -O0
REM seed -1262373612 -1872884398 235178845 -1360383559 -1071825922 1578196758 -813682527 -362104216 370351903 218060168 -2085255379 -1600284913 567372894 2132682164 1906715065 -1858832115 1633919889 2006349141 -398044627 -423204696 1149839916 992981697 1132893590 32492796 -291693561 556723810 852567332 -1211099976 -1453869562 816763208 -1172185549 132446076 1454737526
REM
CELL 1.54180   50.00000   50.00000   50.00000   90.00000   90.00000   90.00000
LATT -1
SFAC C  
C      1  0.4759450000000  0.4916380000000  0.5346420000000 1.0
C      1  0.5771130000000  0.5542760000000  0.4954980000000 1.0
C      1  0.5039280000000  0.5188650000000  0.5113730000000 1.0
C      1  0.4413320000000  0.4608870000000  0.4553060000000 1.0
C      1  0.4558370000000  0.5578560000000  0.4916860000000 1.0
C      1  0.5201800000000  0.4814420000000  0.4472190000000 1.0
C      1  0.4618320000000  0.5343250000000  0.4410310000000 1.0
C      1  0.5748750000000  0.5321850000000  0.5122400000000 1.0
C      1  0.5048500000000  0.5242490000000  0.4529570000000 1.0
C      1  0.5087970000000  0.5447000000000  0.5659470000000 1.0
C      1  0.4616820000000  0.5096340000000  0.4910450000000 1.0
C      1  0.5309220000000  0.5009070000000  0.5810150000000 1.0
C      1  0.5617280000000  0.5398280000000  0.5367730000000 1.0
C      1  0.4895970000000  0.4461760000000  0.4533980000000 1.0
C      1  0.4867860000000  0.5262910000000  0.4311030000000 1.0
C      1  0.4639620000000  0.5536020000000  0.4630620000000 1.0
C      1  0.5512820000000  0.4924900000000  0.5618040000000 1.0
C      1  0.5694580000000  0.4791250000000  0.4987660000000 1.0
C      1  0.4678890000000  0.4872970000000  0.5630230000000 1.0
C      1  0.4190960000000  0.4928930000000  0.4849220000000 1.0
C      1  0.5235140000000  0.5368010000000  0.4944480000000 1.0
C      1  0.5409640000000  0.5115890000000  0.4852460000000 1.0
C      1  0.5498800000000  0.4672950000000  0.5470690000000 1.0
C      1  0.5544120000000  0.5217760000000  0.5569420000000 1.0
C      1  0.5420310000000  0.5602000000000  0.5334700000000 1.0
C      1  0.5180400000000  0.4533630000000  0.4552740000000 1.0
C      1  0.5151460000000  0.5627310000000  0.5437140000000 1.0
C      1  0.4635590000000  0.4406850000000  0.5502570000000 1.0
C      1  0.4223010000000  0.4672680000000  0.4988080000000 1.0
C      1  0.5141090000000  0.5468200000000  0.4674040000000 1.0
C      1  0.4668400000000  0.4612690000000  0.4409280000000 1.0
C      1  0.5552430000000  0.5655300000000  0.4845120000000 1.0
C      1  0.4824020000000  0.5319510000000  0.5703710000000 1.0
C      1  0.5587640000000  0.4718960000000  0.4726270000000 1.0
C      1  0.5666570000000  0.5077430000000  0.4992160000000 1.0
C      1  0.4431380000000  0.4545910000000  0.4831700000000 1.0
C      1  0.5065320000000  0.4896250000000  0.5833880000000 1.0
C      1  0.5146380000000  0.4967220000000  0.4926910000000 1.0
C      1  0.5256550000000  0.4524250000000  0.5558860000000 1.0
C      1  0.4820690000000  0.4672190000000  0.5180160000000 1.0
C      1  0.4673210000000  0.4867370000000  0.4265220000000 1.0
C      1  0.4703030000000  0.4635870000000  0.4911360000000 1.0
C      1  0.4942280000000  0.4264920000000  0.5026770000000 1.0
C      1  0.5042420000000  0.4633740000000  0.5722820000000 1.0
C      1  0.4201660000000  0.5025730000000  0.4360940000000 1.0
C      1  0.5576970000000  0.4612200000000  0.5187810000000 1.0
C      1  0.5460690000000  0.4944820000000  0.4576300000000 1.0
C      1  0.4891940000000  0.5007500000000  0.4170690000000 1.0
C      1  0.4761110000000  0.4596510000000  0.5685760000000 1.0
C      1  0.4831750000000  0.5051910000000  0.5793150000000 1.0
C      1  0.4843200000000  0.4396190000000  0.4802140000000 1.0
C      1  0.4730030000000  0.5153740000000  0.5164470000000 1.0
C      1  0.5328300000000  0.5645410000000  0.5057740000000 1.0
C      1  0.4900240000000  0.5632570000000  0.4710810000000 1.0
C      1  0.5060920000000  0.5003290000000  0.5344580000000 1.0
C      1  0.4517890000000  0.5334470000000  0.5315690000000 1.0
C      1  0.5004560000000  0.4974900000000  0.4669520000000 1.0
C      1  0.5402840000000  0.5023240000000  0.4114280000000 1.0
C      1  0.5424000000000  0.4415080000000  0.5023530000000 1.0
C      1  0.5048110000000  0.5723300000000  0.5172280000000 1.0
C      1  0.5212660000000  0.4264170000000  0.5128590000000 1.0
C      1  0.5313080000000  0.5286550000000  0.5732660000000 1.0
C      1  0.5407240000000  0.4499260000000  0.4741830000000 1.0
C      1  0.5550290000000  0.5132720000000  0.4333500000000 1.0
C      1  0.5129710000000  0.4343180000000  0.5391090000000 1.0
C      1  0.4217350000000  0.4576410000000  0.5248270000000 1.0
C      1  0.5165220000000  0.4909420000000  0.4188430000000 1.0
C      1  0.4826680000000  0.5698780000000  0.4986330000000 1.0
C      1  0.4337120000000  0.5159560000000  0.4923590000000 1.0
C      1  0.5442350000000  0.5556050000000  0.4593810000000 1.0
C      1  0.4733540000000  0.4898380000000  0.4753190000000 1.0
C      1  0.4848620000000  0.4390720000000  0.5293060000000 1.0
C      1  0.4468720000000  0.5091090000000  0.4353890000000 1.0
C      1  0.5573150000000  0.5396260000000  0.4416960000000 1.0
C      1  0.4375040000000  0.5410240000000  0.5073880000000 1.0
C      1  0.5108290000000  0.4777910000000  0.5149760000000 1.0
C      1  0.4382820000000  0.4475500000000  0.5413510000000 1.0
C      1  0.4581230000000  0.5376670000000  0.5572730000000 1.0
C      1  0.4251890000000  0.4852700000000  0.4566630000000 1.0
END
