TITL C-36508-8228-10 -0.0654682714340213 125000 -1308.08248312561 0 0 185 (C1) n - 1
REM
REM in /rds/project/t2_vol4/rds-t2-cs072/BORA/CARBON/from-Arr/AIRSS/Generating-Clusters/GAP-ML-2020/Only-C1/SD-CG/HFTN-CG/C160-200
REM
REM
REM
REM
REM
REM ./C.cell (f2ad243b7eb7c0cd63fb1bbaf7e03044)
REM AIRSS Version 0.9.1 bugfix July 2018 build 013d7b7c2542+ Fri, 06 Jul 2018 19:26:36 +0100
REM compiler GCC version 9.3.0
REM options -cpp -mtune=generic -march=x86-64 -g -O0
REM seed 2110655988 -130910706 1584229237 -995027335 1987166778 1961395524 652929585 1320790480 2053451821 282914762 -1930308909 17061035 -2067078212 -1447749918 -30972766 376004871 2074985285 -852467279 4679169 -1397126102 -972402042 -1389851146 -1002215796 -769049653 522516285 2081257211 102266624 1706350445 1109998811 -1981573182 -568201570 -1030165503 1390634940
REM
CELL 1.54180   50.00000   50.00000   50.00000   90.00000   90.00000   90.00000
LATT -1
SFAC C  
C      1  0.5648870000000  0.5439700000000  0.5211580000000 1.0
C      1  0.5267940000000  0.5389970000000  0.4267240000000 1.0
C      1  0.5671540000000  0.5603340000000  0.4311800000000 1.0
C      1  0.4934230000000  0.4694710000000  0.4325960000000 1.0
C      1  0.4217300000000  0.5483310000000  0.5897170000000 1.0
C      1  0.5970240000000  0.4705220000000  0.5383890000000 1.0
C      1  0.4048360000000  0.5110670000000  0.5282470000000 1.0
C      1  0.5375960000000  0.5008240000000  0.5469900000000 1.0
C      1  0.5491510000000  0.6092340000000  0.5019490000000 1.0
C      1  0.5747750000000  0.4233810000000  0.5050640000000 1.0
C      1  0.5576260000000  0.5489480000000  0.4922930000000 1.0
C      1  0.4666360000000  0.4669980000000  0.4472670000000 1.0
C      1  0.4614860000000  0.4369050000000  0.4963990000000 1.0
C      1  0.4697240000000  0.5040290000000  0.5021740000000 1.0
C      1  0.5921140000000  0.5201280000000  0.4334950000000 1.0
C      1  0.5107590000000  0.6027580000000  0.4650140000000 1.0
C      1  0.4677990000000  0.4599910000000  0.4772880000000 1.0
C      1  0.5547920000000  0.5391120000000  0.4166540000000 1.0
C      1  0.5406880000000  0.4866430000000  0.4392270000000 1.0
C      1  0.4536750000000  0.4940290000000  0.4562470000000 1.0
C      1  0.4291790000000  0.5826550000000  0.5562520000000 1.0
C      1  0.4091810000000  0.5417600000000  0.5649050000000 1.0
C      1  0.4155150000000  0.4329020000000  0.4815830000000 1.0
C      1  0.5000510000000  0.4820350000000  0.5746070000000 1.0
C      1  0.5082440000000  0.4634630000000  0.5506960000000 1.0
C      1  0.4890580000000  0.5155000000000  0.4820800000000 1.0
C      1  0.5671800000000  0.5608140000000  0.5452650000000 1.0
C      1  0.5289890000000  0.5481050000000  0.4804710000000 1.0
C      1  0.4687760000000  0.4390670000000  0.4098210000000 1.0
C      1  0.4181250000000  0.5373730000000  0.4653950000000 1.0
C      1  0.4660500000000  0.5776880000000  0.5820370000000 1.0
C      1  0.4384480000000  0.4348160000000  0.5698590000000 1.0
C      1  0.4780060000000  0.4074210000000  0.4526840000000 1.0
C      1  0.4483100000000  0.5684350000000  0.4323540000000 1.0
C      1  0.5115960000000  0.5780330000000  0.5851590000000 1.0
C      1  0.5519790000000  0.4135740000000  0.4584800000000 1.0
C      1  0.4790880000000  0.4895070000000  0.5266300000000 1.0
C      1  0.4167490000000  0.4452530000000  0.5533410000000 1.0
C      1  0.5103490000000  0.4933110000000  0.4389870000000 1.0
C      1  0.5596400000000  0.4368630000000  0.4453060000000 1.0
C      1  0.4883720000000  0.5658040000000  0.5961760000000 1.0
C      1  0.5844820000000  0.4491790000000  0.4420640000000 1.0
C      1  0.4740420000000  0.5045490000000  0.5500270000000 1.0
C      1  0.5846150000000  0.4740380000000  0.4271820000000 1.0
C      1  0.4750180000000  0.5918570000000  0.4938720000000 1.0
C      1  0.5212130000000  0.5871710000000  0.5397610000000 1.0
C      1  0.4981910000000  0.5416870000000  0.5449780000000 1.0
C      1  0.4530910000000  0.3913370000000  0.5388160000000 1.0
C      1  0.5489030000000  0.4498970000000  0.5886330000000 1.0
C      1  0.5115920000000  0.5335390000000  0.5738140000000 1.0
C      1  0.4228880000000  0.4893400000000  0.5658770000000 1.0
C      1  0.4134200000000  0.5161120000000  0.4423890000000 1.0
C      1  0.4227330000000  0.5684480000000  0.4714860000000 1.0
C      1  0.4712790000000  0.5571020000000  0.4214670000000 1.0
C      1  0.4104360000000  0.5639660000000  0.5463780000000 1.0
C      1  0.4784640000000  0.4432850000000  0.5191300000000 1.0
C      1  0.4229400000000  0.4274930000000  0.5311480000000 1.0
C      1  0.4006760000000  0.5335840000000  0.5116600000000 1.0
C      1  0.4738980000000  0.4947160000000  0.5765320000000 1.0
C      1  0.4756380000000  0.5877600000000  0.5556810000000 1.0
C      1  0.5659920000000  0.5195380000000  0.4838390000000 1.0
C      1  0.5323430000000  0.4743410000000  0.5385000000000 1.0
C      1  0.5047240000000  0.5188500000000  0.4224300000000 1.0
C      1  0.5088330000000  0.4498370000000  0.4504480000000 1.0
C      1  0.4579210000000  0.5144940000000  0.4146940000000 1.0
C      1  0.5376160000000  0.6010240000000  0.4548170000000 1.0
C      1  0.5431850000000  0.5718310000000  0.5546680000000 1.0
C      1  0.5047150000000  0.5950840000000  0.5639940000000 1.0
C      1  0.5021950000000  0.4200890000000  0.4393980000000 1.0
C      1  0.6078860000000  0.4788460000000  0.4656710000000 1.0
C      1  0.4829610000000  0.5626730000000  0.5040810000000 1.0
C      1  0.4318530000000  0.4117030000000  0.4695960000000 1.0
C      1  0.4872580000000  0.4607750000000  0.4048960000000 1.0
C      1  0.5267280000000  0.4038880000000  0.4495720000000 1.0
C      1  0.5141290000000  0.5321590000000  0.5221000000000 1.0
C      1  0.5044380000000  0.4300300000000  0.5778520000000 1.0
C      1  0.5175650000000  0.3883240000000  0.4703810000000 1.0
C      1  0.5567660000000  0.4074330000000  0.4877560000000 1.0
C      1  0.5059990000000  0.4928680000000  0.4704770000000 1.0
C      1  0.4910430000000  0.5371820000000  0.5959100000000 1.0
C      1  0.4890960000000  0.5929740000000  0.4495860000000 1.0
C      1  0.5039040000000  0.4639890000000  0.5981250000000 1.0
C      1  0.5632110000000  0.5081810000000  0.5916650000000 1.0
C      1  0.4104150000000  0.5590940000000  0.5190570000000 1.0
C      1  0.5710040000000  0.5162910000000  0.4153080000000 1.0
C      1  0.4586010000000  0.3891480000000  0.5111990000000 1.0
C      1  0.5906560000000  0.5476540000000  0.4450920000000 1.0
C      1  0.3957780000000  0.4962260000000  0.4512020000000 1.0
C      1  0.4514470000000  0.4179740000000  0.4488080000000 1.0
C      1  0.5224390000000  0.4986990000000  0.3831660000000 1.0
C      1  0.4268800000000  0.4684020000000  0.4297750000000 1.0
C      1  0.5418910000000  0.4185870000000  0.5502940000000 1.0
C      1  0.4937110000000  0.5691360000000  0.5348670000000 1.0
C      1  0.6000830000000  0.4928950000000  0.4408870000000 1.0
C      1  0.5487720000000  0.5052280000000  0.5029900000000 1.0
C      1  0.4938980000000  0.5762850000000  0.4269520000000 1.0
C      1  0.5543010000000  0.6106240000000  0.4753370000000 1.0
C      1  0.5419060000000  0.4802450000000  0.3910250000000 1.0
C      1  0.4360820000000  0.4997330000000  0.4307940000000 1.0
C      1  0.4984970000000  0.4329960000000  0.5473700000000 1.0
C      1  0.5427220000000  0.4649940000000  0.4801540000000 1.0
C      1  0.5321370000000  0.5326990000000  0.4563640000000 1.0
C      1  0.4611910000000  0.4663890000000  0.5273970000000 1.0
C      1  0.5994300000000  0.5562160000000  0.4723810000000 1.0
C      1  0.4550580000000  0.5497810000000  0.4969270000000 1.0
C      1  0.5617240000000  0.5358480000000  0.5829290000000 1.0
C      1  0.5048890000000  0.4761190000000  0.5242500000000 1.0
C      1  0.5935720000000  0.4427890000000  0.4945820000000 1.0
C      1  0.4730460000000  0.5153970000000  0.3881380000000 1.0
C      1  0.4467100000000  0.4816670000000  0.5841180000000 1.0
C      1  0.4712690000000  0.5316490000000  0.5476830000000 1.0
C      1  0.5324230000000  0.3921850000000  0.4943680000000 1.0
C      1  0.4662940000000  0.5918530000000  0.4659410000000 1.0
C      1  0.4933480000000  0.4242610000000  0.4102200000000 1.0
C      1  0.5379260000000  0.4964290000000  0.5961500000000 1.0
C      1  0.6011660000000  0.4664140000000  0.5101680000000 1.0
C      1  0.5085020000000  0.4440610000000  0.3936970000000 1.0
C      1  0.5802060000000  0.4883300000000  0.5785010000000 1.0
C      1  0.5646990000000  0.4326090000000  0.5341470000000 1.0
C      1  0.3890480000000  0.5006920000000  0.4784470000000 1.0
C      1  0.4361410000000  0.4705520000000  0.5106670000000 1.0
C      1  0.5950860000000  0.5148460000000  0.4942370000000 1.0
C      1  0.4479650000000  0.5365650000000  0.4721800000000 1.0
C      1  0.4961830000000  0.4633210000000  0.4767850000000 1.0
C      1  0.5725650000000  0.4603120000000  0.5760350000000 1.0
C      1  0.5954580000000  0.5229380000000  0.5473520000000 1.0
C      1  0.5040620000000  0.5406930000000  0.4955890000000 1.0
C      1  0.5036910000000  0.4549640000000  0.5040290000000 1.0
C      1  0.5319410000000  0.4486400000000  0.5006380000000 1.0
C      1  0.4498780000000  0.4454050000000  0.4316510000000 1.0
C      1  0.4891640000000  0.3914760000000  0.4738250000000 1.0
C      1  0.5798880000000  0.5419680000000  0.5630110000000 1.0
C      1  0.5336580000000  0.4921670000000  0.4826100000000 1.0
C      1  0.5473740000000  0.5086910000000  0.4614450000000 1.0
C      1  0.5007190000000  0.5108460000000  0.3929690000000 1.0
C      1  0.5995210000000  0.4516570000000  0.4662280000000 1.0
C      1  0.5924980000000  0.5322590000000  0.5197050000000 1.0
C      1  0.4090610000000  0.4714070000000  0.5490870000000 1.0
C      1  0.4530760000000  0.5257970000000  0.5110310000000 1.0
C      1  0.3933470000000  0.4770150000000  0.4934220000000 1.0
C      1  0.4404870000000  0.3959770000000  0.4909010000000 1.0
C      1  0.4504380000000  0.5935200000000  0.5402680000000 1.0
C      1  0.4611620000000  0.5384870000000  0.3966890000000 1.0
C      1  0.5240040000000  0.6024620000000  0.5134310000000 1.0
C      1  0.5384170000000  0.4579450000000  0.4513750000000 1.0
C      1  0.5320540000000  0.4687340000000  0.6013830000000 1.0
C      1  0.4261300000000  0.5269200000000  0.6079180000000 1.0
C      1  0.4042460000000  0.4690650000000  0.4471810000000 1.0
C      1  0.5957220000000  0.4948680000000  0.5550730000000 1.0
C      1  0.5471900000000  0.4550890000000  0.5231850000000 1.0
C      1  0.4779220000000  0.5282060000000  0.4328450000000 1.0
C      1  0.5779870000000  0.5703400000000  0.4844830000000 1.0
C      1  0.4199690000000  0.5165890000000  0.5521730000000 1.0
C      1  0.5031750000000  0.6039660000000  0.4928050000000 1.0
C      1  0.4860320000000  0.3889790000000  0.5018520000000 1.0
C      1  0.5207800000000  0.5678180000000  0.4244070000000 1.0
C      1  0.4314640000000  0.4400090000000  0.5053280000000 1.0
C      1  0.4003130000000  0.4556060000000  0.4735520000000 1.0
C      1  0.4458100000000  0.5085500000000  0.6043330000000 1.0
C      1  0.5206180000000  0.5047810000000  0.5732420000000 1.0
C      1  0.5442880000000  0.5803340000000  0.4350090000000 1.0
C      1  0.4421750000000  0.5810460000000  0.4551650000000 1.0
C      1  0.5340920000000  0.5543640000000  0.5770860000000 1.0
C      1  0.6082040000000  0.5396540000000  0.4934270000000 1.0
C      1  0.4492980000000  0.5923580000000  0.5121290000000 1.0
C      1  0.4734850000000  0.5156090000000  0.5984290000000 1.0
C      1  0.5734840000000  0.5971480000000  0.4908590000000 1.0
C      1  0.5118670000000  0.3949810000000  0.5149250000000 1.0
C      1  0.4411140000000  0.4126040000000  0.5492100000000 1.0
C      1  0.4562360000000  0.4511770000000  0.5860390000000 1.0
C      1  0.5319760000000  0.4542170000000  0.3859270000000 1.0
C      1  0.5825490000000  0.4496740000000  0.5516010000000 1.0
C      1  0.4520180000000  0.4841730000000  0.4870630000000 1.0
C      1  0.5608060000000  0.4881660000000  0.4146370000000 1.0
C      1  0.4461010000000  0.5293290000000  0.5379010000000 1.0
C      1  0.5336890000000  0.4288980000000  0.5758940000000 1.0
C      1  0.4306370000000  0.5713050000000  0.5008380000000 1.0
C      1  0.3986580000000  0.5266980000000  0.4849670000000 1.0
C      1  0.4381300000000  0.5722090000000  0.5816160000000 1.0
C      1  0.5400860000000  0.5202160000000  0.5256440000000 1.0
C      1  0.4687570000000  0.5200100000000  0.4599560000000 1.0
C      1  0.4849030000000  0.4432680000000  0.5942090000000 1.0
C      1  0.5168120000000  0.4114270000000  0.5378470000000 1.0
C      1  0.6063200000000  0.4881140000000  0.4921460000000 1.0
C      1  0.4079560000000  0.4827760000000  0.5203520000000 1.0
END
