TITL C-36508-8228-7 1.25046839716551 125000 -1179.80495107892 0 0 170 (C1) n - 1
REM
REM in /rds/project/t2_vol4/rds-t2-cs072/BORA/CARBON/from-Arr/AIRSS/Generating-Clusters/GAP-ML-2020/Only-C1/SD-CG/HFTN-CG/C160-200
REM
REM
REM
REM
REM
REM ./C.cell (f2ad243b7eb7c0cd63fb1bbaf7e03044)
REM AIRSS Version 0.9.1 bugfix July 2018 build 013d7b7c2542+ Fri, 06 Jul 2018 19:26:36 +0100
REM compiler GCC version 9.3.0
REM options -cpp -mtune=generic -march=x86-64 -g -O0
REM seed -1014601882 -1440461422 -1219941743 352781606 1690714374 -863838693 914832214 -276003408 -1565345115 993880825 -407244129 -580879295 9571778 1592437563 -338458117 487971721 1790931499 -1333456861 -2118747034 -1870525286 689710206 -1160479858 2074267301 -186765403 -2083217880 -2099370303 -1150055771 -1240548135 -2138941003 1861348530 1278716810 -1276665635 -2019548772
REM
CELL 1.54180   50.00000   50.00000   50.00000   90.00000   90.00000   90.00000
LATT -1
SFAC C  
C      1  0.5825580000000  0.4455320000000  0.4787690000000 1.0
C      1  0.4798390000000  0.4574660000000  0.4110730000000 1.0
C      1  0.4728860000000  0.4826060000000  0.3997090000000 1.0
C      1  0.4838810000000  0.5359600000000  0.5647480000000 1.0
C      1  0.5109730000000  0.4662600000000  0.5131060000000 1.0
C      1  0.4632630000000  0.4386640000000  0.4847660000000 1.0
C      1  0.5572380000000  0.5670680000000  0.4370990000000 1.0
C      1  0.6009890000000  0.5322650000000  0.4921630000000 1.0
C      1  0.6018190000000  0.5379090000000  0.5448920000000 1.0
C      1  0.5298660000000  0.5211060000000  0.6041440000000 1.0
C      1  0.5480450000000  0.4580050000000  0.3939650000000 1.0
C      1  0.4428410000000  0.4444270000000  0.5723740000000 1.0
C      1  0.5697720000000  0.5483020000000  0.5236100000000 1.0
C      1  0.5238260000000  0.4040180000000  0.4804810000000 1.0
C      1  0.4980060000000  0.5787200000000  0.5735670000000 1.0
C      1  0.4712620000000  0.6108070000000  0.5136970000000 1.0
C      1  0.4493530000000  0.4957100000000  0.5647480000000 1.0
C      1  0.5877080000000  0.4656730000000  0.5199360000000 1.0
C      1  0.4324530000000  0.5120510000000  0.4147580000000 1.0
C      1  0.4255390000000  0.5117470000000  0.5744110000000 1.0
C      1  0.5428130000000  0.4948010000000  0.5686260000000 1.0
C      1  0.5589140000000  0.5202410000000  0.5287550000000 1.0
C      1  0.5340390000000  0.5470590000000  0.5921380000000 1.0
C      1  0.5081530000000  0.4534530000000  0.4656440000000 1.0
C      1  0.5062840000000  0.6005990000000  0.5599060000000 1.0
C      1  0.4628330000000  0.5620610000000  0.4371760000000 1.0
C      1  0.4616420000000  0.4052220000000  0.4617020000000 1.0
C      1  0.5030590000000  0.5139400000000  0.6076760000000 1.0
C      1  0.5361840000000  0.4214650000000  0.4353040000000 1.0
C      1  0.5406690000000  0.5210440000000  0.5531300000000 1.0
C      1  0.5833190000000  0.4449920000000  0.5393800000000 1.0
C      1  0.4801640000000  0.4554280000000  0.4660550000000 1.0
C      1  0.5016160000000  0.5177080000000  0.4607180000000 1.0
C      1  0.5483540000000  0.4156380000000  0.5268140000000 1.0
C      1  0.5652390000000  0.4660770000000  0.4156250000000 1.0
C      1  0.5376340000000  0.4562330000000  0.5028070000000 1.0
C      1  0.5534390000000  0.5461310000000  0.5671020000000 1.0
C      1  0.4747230000000  0.4281710000000  0.5121150000000 1.0
C      1  0.5114580000000  0.5296710000000  0.5479000000000 1.0
C      1  0.4020630000000  0.4870600000000  0.4817160000000 1.0
C      1  0.4216290000000  0.4438080000000  0.5503210000000 1.0
C      1  0.5753000000000  0.5130900000000  0.4267370000000 1.0
C      1  0.3865630000000  0.5357980000000  0.5488850000000 1.0
C      1  0.4535520000000  0.4695680000000  0.5845390000000 1.0
C      1  0.4898400000000  0.4217050000000  0.5687030000000 1.0
C      1  0.4618620000000  0.4379280000000  0.4222360000000 1.0
C      1  0.5262450000000  0.4481400000000  0.5931450000000 1.0
C      1  0.5069450000000  0.5989520000000  0.4857130000000 1.0
C      1  0.4334440000000  0.5930930000000  0.4894390000000 1.0
C      1  0.4536450000000  0.5980790000000  0.5323960000000 1.0
C      1  0.4262970000000  0.4307660000000  0.5010680000000 1.0
C      1  0.4910080000000  0.5177930000000  0.5066980000000 1.0
C      1  0.4253390000000  0.4688100000000  0.4746570000000 1.0
C      1  0.5194010000000  0.4712960000000  0.4846380000000 1.0
C      1  0.5033140000000  0.5492370000000  0.4595170000000 1.0
C      1  0.4873370000000  0.4995160000000  0.4446430000000 1.0
C      1  0.4838400000000  0.4565590000000  0.5192930000000 1.0
C      1  0.5549120000000  0.5651280000000  0.5411090000000 1.0
C      1  0.4416660000000  0.5384320000000  0.4143930000000 1.0
C      1  0.4699670000000  0.5463750000000  0.4137980000000 1.0
C      1  0.4882000000000  0.5607990000000  0.5260990000000 1.0
C      1  0.5973960000000  0.5461110000000  0.5175010000000 1.0
C      1  0.4493510000000  0.4781640000000  0.5403270000000 1.0
C      1  0.4055750000000  0.5288780000000  0.5028070000000 1.0
C      1  0.5155680000000  0.5507160000000  0.5267390000000 1.0
C      1  0.6280350000000  0.4946480000000  0.5336590000000 1.0
C      1  0.5137300000000  0.4852340000000  0.5334840000000 1.0
C      1  0.5525120000000  0.4682150000000  0.4424880000000 1.0
C      1  0.5414140000000  0.5156530000000  0.4880750000000 1.0
C      1  0.4552750000000  0.4196590000000  0.5328360000000 1.0
C      1  0.5187600000000  0.5323000000000  0.5021300000000 1.0
C      1  0.5488640000000  0.5219480000000  0.4378500000000 1.0
C      1  0.4715790000000  0.4976220000000  0.4926110000000 1.0
C      1  0.4765620000000  0.5615640000000  0.4635100000000 1.0
C      1  0.4412780000000  0.4578070000000  0.4967000000000 1.0
C      1  0.4729940000000  0.5423300000000  0.5102240000000 1.0
C      1  0.5696970000000  0.4836580000000  0.5694820000000 1.0
C      1  0.4609870000000  0.6036270000000  0.4880790000000 1.0
C      1  0.4952970000000  0.5083420000000  0.5341080000000 1.0
C      1  0.3998510000000  0.5001590000000  0.5071790000000 1.0
C      1  0.5089280000000  0.4597190000000  0.4191030000000 1.0
C      1  0.5425310000000  0.4955840000000  0.5977970000000 1.0
C      1  0.4421970000000  0.4919510000000  0.4617380000000 1.0
C      1  0.4013610000000  0.5071290000000  0.4606360000000 1.0
C      1  0.5321280000000  0.5772330000000  0.4932860000000 1.0
C      1  0.5749410000000  0.4236330000000  0.5236050000000 1.0
C      1  0.4280500000000  0.4247590000000  0.5284910000000 1.0
C      1  0.5280600000000  0.4497330000000  0.4430520000000 1.0
C      1  0.5325370000000  0.5952350000000  0.4715040000000 1.0
C      1  0.5062300000000  0.4137170000000  0.5466620000000 1.0
C      1  0.5208660000000  0.4180980000000  0.4113520000000 1.0
C      1  0.5695530000000  0.4933740000000  0.4067530000000 1.0
C      1  0.5610430000000  0.4729490000000  0.5093250000000 1.0
C      1  0.4317610000000  0.5595390000000  0.5336140000000 1.0
C      1  0.4494310000000  0.5153500000000  0.4822720000000 1.0
C      1  0.5258010000000  0.4737400000000  0.6058640000000 1.0
C      1  0.4029080000000  0.5453470000000  0.5296500000000 1.0
C      1  0.5212390000000  0.4037410000000  0.4522790000000 1.0
C      1  0.4730050000000  0.4146930000000  0.4352350000000 1.0
C      1  0.4291400000000  0.4728160000000  0.4217730000000 1.0
C      1  0.5683230000000  0.4554170000000  0.5621340000000 1.0
C      1  0.5488110000000  0.5362600000000  0.4664640000000 1.0
C      1  0.4357740000000  0.4474430000000  0.4308530000000 1.0
C      1  0.5158540000000  0.6012670000000  0.5343900000000 1.0
C      1  0.4644980000000  0.4311020000000  0.5581530000000 1.0
C      1  0.4324570000000  0.5859410000000  0.5175870000000 1.0
C      1  0.4783910000000  0.5637430000000  0.5553670000000 1.0
C      1  0.5138440000000  0.5653870000000  0.4365820000000 1.0
C      1  0.5358290000000  0.5826580000000  0.4459370000000 1.0
C      1  0.4266550000000  0.4434360000000  0.4572160000000 1.0
C      1  0.5466540000000  0.4875390000000  0.3886990000000 1.0
C      1  0.5329160000000  0.5768370000000  0.5247340000000 1.0
C      1  0.4574170000000  0.5365580000000  0.6043110000000 1.0
C      1  0.4607430000000  0.4763580000000  0.5113550000000 1.0
C      1  0.4862430000000  0.5359520000000  0.5959680000000 1.0
C      1  0.4214730000000  0.4976550000000  0.4384290000000 1.0
C      1  0.5726110000000  0.4259200000000  0.4942530000000 1.0
C      1  0.4672920000000  0.5158190000000  0.5491060000000 1.0
C      1  0.5245850000000  0.5513620000000  0.4800340000000 1.0
C      1  0.4783750000000  0.3921940000000  0.4785400000000 1.0
C      1  0.5769490000000  0.4666930000000  0.4616780000000 1.0
C      1  0.5001680000000  0.6096800000000  0.5122220000000 1.0
C      1  0.4030990000000  0.5135710000000  0.5548820000000 1.0
C      1  0.4195120000000  0.4701640000000  0.5419530000000 1.0
C      1  0.5221700000000  0.4981270000000  0.3843970000000 1.0
C      1  0.4625100000000  0.5429680000000  0.4827970000000 1.0
C      1  0.4179090000000  0.5812160000000  0.4705660000000 1.0
C      1  0.4984640000000  0.5032310000000  0.3994980000000 1.0
C      1  0.5913960000000  0.4915560000000  0.4672830000000 1.0
C      1  0.4815900000000  0.4671260000000  0.5937120000000 1.0
C      1  0.4939910000000  0.5344590000000  0.4045280000000 1.0
C      1  0.5159710000000  0.5507160000000  0.4126440000000 1.0
C      1  0.4387190000000  0.4224560000000  0.4738730000000 1.0
C      1  0.5327650000000  0.4225230000000  0.5492680000000 1.0
C      1  0.4943670000000  0.4672950000000  0.5668120000000 1.0
C      1  0.5004200000000  0.4080610000000  0.4307370000000 1.0
C      1  0.5404730000000  0.4461830000000  0.5662490000000 1.0
C      1  0.5617490000000  0.5023000000000  0.5060810000000 1.0
C      1  0.5239560000000  0.4441480000000  0.3978370000000 1.0
C      1  0.4946160000000  0.4086750000000  0.5203120000000 1.0
C      1  0.6115240000000  0.5099430000000  0.5495500000000 1.0
C      1  0.5886880000000  0.5056040000000  0.5679630000000 1.0
C      1  0.4494930000000  0.5330360000000  0.5265930000000 1.0
C      1  0.5091850000000  0.4891360000000  0.4257230000000 1.0
C      1  0.4349350000000  0.5268220000000  0.5965990000000 1.0
C      1  0.4986180000000  0.4419550000000  0.5870250000000 1.0
C      1  0.4025830000000  0.4916340000000  0.5351150000000 1.0
C      1  0.4516480000000  0.5760830000000  0.5512370000000 1.0
C      1  0.4332650000000  0.5192430000000  0.5061290000000 1.0
C      1  0.4343490000000  0.5551340000000  0.4367870000000 1.0
C      1  0.4815330000000  0.5902420000000  0.4741120000000 1.0
C      1  0.6069250000000  0.4870800000000  0.5170260000000 1.0
C      1  0.5812470000000  0.5340820000000  0.5666360000000 1.0
C      1  0.4135050000000  0.5571560000000  0.4576820000000 1.0
C      1  0.5223610000000  0.4743440000000  0.5582910000000 1.0
C      1  0.4016930000000  0.5331430000000  0.4719980000000 1.0
C      1  0.4454750000000  0.4885190000000  0.4038690000000 1.0
C      1  0.5924230000000  0.5132170000000  0.4492530000000 1.0
C      1  0.5942950000000  0.5390140000000  0.4649440000000 1.0
C      1  0.4748970000000  0.4587720000000  0.5472670000000 1.0
C      1  0.5000240000000  0.4850500000000  0.6085020000000 1.0
C      1  0.5002150000000  0.3962400000000  0.4951350000000 1.0
C      1  0.5713470000000  0.5547770000000  0.4590140000000 1.0
C      1  0.5942700000000  0.5034010000000  0.4950250000000 1.0
C      1  0.5422680000000  0.4230230000000  0.4971220000000 1.0
C      1  0.5348060000000  0.4948820000000  0.4424920000000 1.0
C      1  0.5080300000000  0.5594020000000  0.5924860000000 1.0
C      1  0.4716490000000  0.4833900000000  0.4631600000000 1.0
C      1  0.5429990000000  0.5457010000000  0.4210470000000 1.0
C      1  0.5247570000000  0.4988350000000  0.4706600000000 1.0
END
