TITL C-36508-8228-6 0.105362694421819 125000 -1377.78891689801 0 0 195 (C1) n - 1
REM
REM in /rds/project/t2_vol4/rds-t2-cs072/BORA/CARBON/from-Arr/AIRSS/Generating-Clusters/GAP-ML-2020/Only-C1/SD-CG/HFTN-CG/C160-200
REM
REM
REM
REM
REM
REM ./C.cell (f2ad243b7eb7c0cd63fb1bbaf7e03044)
REM AIRSS Version 0.9.1 bugfix July 2018 build 013d7b7c2542+ Fri, 06 Jul 2018 19:26:36 +0100
REM compiler GCC version 9.3.0
REM options -cpp -mtune=generic -march=x86-64 -g -O0
REM seed -1666717198 2045825010 -1495280548 -754009870 -32498445 583580921 129912977 -2139576949 266630677 -1375858481 -1184089869 799957445 -1713690520 196012334 -1792153037 -2031524497 -20421066 2051273843 1105755510 -17709107 -722202507 -614534450 592061867 770059829 -70375010 1179062632 -676806305 1185008525 1771452240 1096078097 -1226506503 492026705 -459811738
REM
CELL 1.54180   50.00000   50.00000   50.00000   90.00000   90.00000   90.00000
LATT -1
SFAC C  
C      1  0.4047400000000  0.5116580000000  0.5635190000000 1.0
C      1  0.5427990000000  0.4983710000000  0.6052320000000 1.0
C      1  0.5501550000000  0.4451250000000  0.4787150000000 1.0
C      1  0.4721520000000  0.5436760000000  0.5474650000000 1.0
C      1  0.5202310000000  0.4818240000000  0.4471560000000 1.0
C      1  0.4043310000000  0.4989870000000  0.4620240000000 1.0
C      1  0.5514840000000  0.5419960000000  0.4016980000000 1.0
C      1  0.5208030000000  0.4431880000000  0.4740420000000 1.0
C      1  0.4593730000000  0.4180710000000  0.5661810000000 1.0
C      1  0.4707920000000  0.4872320000000  0.4501500000000 1.0
C      1  0.4295470000000  0.5507030000000  0.4240470000000 1.0
C      1  0.5024390000000  0.5210940000000  0.6192480000000 1.0
C      1  0.4108540000000  0.5138060000000  0.4396490000000 1.0
C      1  0.6018800000000  0.5185780000000  0.5571280000000 1.0
C      1  0.4957940000000  0.4757310000000  0.5423770000000 1.0
C      1  0.4431940000000  0.5736630000000  0.4328010000000 1.0
C      1  0.5359680000000  0.5295930000000  0.5527540000000 1.0
C      1  0.5888920000000  0.5372330000000  0.4396370000000 1.0
C      1  0.4586260000000  0.5198100000000  0.4716130000000 1.0
C      1  0.3820900000000  0.4574970000000  0.5193620000000 1.0
C      1  0.4629790000000  0.4610540000000  0.4098880000000 1.0
C      1  0.5444520000000  0.5131970000000  0.5064040000000 1.0
C      1  0.4917660000000  0.6022920000000  0.5678140000000 1.0
C      1  0.4809780000000  0.5768760000000  0.4992750000000 1.0
C      1  0.4804020000000  0.5785580000000  0.5806170000000 1.0
C      1  0.4648750000000  0.4457760000000  0.5180010000000 1.0
C      1  0.4844070000000  0.5974270000000  0.4420790000000 1.0
C      1  0.5134550000000  0.5898690000000  0.4429430000000 1.0
C      1  0.4603530000000  0.4117550000000  0.5163620000000 1.0
C      1  0.4973590000000  0.5639110000000  0.5948720000000 1.0
C      1  0.5846860000000  0.5624330000000  0.5543790000000 1.0
C      1  0.4891900000000  0.3879830000000  0.5442350000000 1.0
C      1  0.4160690000000  0.4570960000000  0.4795220000000 1.0
C      1  0.5079090000000  0.6200480000000  0.5255230000000 1.0
C      1  0.5738020000000  0.4253370000000  0.5462020000000 1.0
C      1  0.4185660000000  0.4614300000000  0.4306170000000 1.0
C      1  0.4265460000000  0.4354390000000  0.4369950000000 1.0
C      1  0.4588680000000  0.4942440000000  0.5351200000000 1.0
C      1  0.5061810000000  0.4319810000000  0.5426250000000 1.0
C      1  0.5355080000000  0.4015500000000  0.5565390000000 1.0
C      1  0.5335020000000  0.4643020000000  0.5196600000000 1.0
C      1  0.5302100000000  0.5832930000000  0.5078450000000 1.0
C      1  0.5712240000000  0.5513140000000  0.4201810000000 1.0
C      1  0.4859650000000  0.5352320000000  0.5058160000000 1.0
C      1  0.5154300000000  0.6009050000000  0.5472170000000 1.0
C      1  0.4042880000000  0.5484270000000  0.5196930000000 1.0
C      1  0.6003770000000  0.5439020000000  0.5419740000000 1.0
C      1  0.5654970000000  0.4873530000000  0.4646850000000 1.0
C      1  0.4887330000000  0.5602540000000  0.5234890000000 1.0
C      1  0.4546150000000  0.4013600000000  0.4504440000000 1.0
C      1  0.4797040000000  0.5099230000000  0.6053650000000 1.0
C      1  0.5897790000000  0.4474400000000  0.5369390000000 1.0
C      1  0.4518880000000  0.5233040000000  0.5337860000000 1.0
C      1  0.4435400000000  0.5969830000000  0.4760550000000 1.0
C      1  0.4334710000000  0.5781790000000  0.4587290000000 1.0
C      1  0.4609960000000  0.4913340000000  0.4767080000000 1.0
C      1  0.5153780000000  0.5218220000000  0.5729930000000 1.0
C      1  0.4122370000000  0.5415580000000  0.4442740000000 1.0
C      1  0.4798150000000  0.4943300000000  0.5598790000000 1.0
C      1  0.4877640000000  0.5098260000000  0.4094410000000 1.0
C      1  0.5593600000000  0.5742130000000  0.5518400000000 1.0
C      1  0.4551760000000  0.5341640000000  0.5083550000000 1.0
C      1  0.5791600000000  0.4197050000000  0.4996530000000 1.0
C      1  0.5110650000000  0.4504820000000  0.4061850000000 1.0
C      1  0.5961810000000  0.4586500000000  0.4610240000000 1.0
C      1  0.4865060000000  0.4024010000000  0.5004930000000 1.0
C      1  0.4867720000000  0.6064770000000  0.4923460000000 1.0
C      1  0.4853550000000  0.4786800000000  0.4901140000000 1.0
C      1  0.4154700000000  0.4929850000000  0.5795540000000 1.0
C      1  0.5496500000000  0.5135000000000  0.3988080000000 1.0
C      1  0.4156100000000  0.5071130000000  0.4902530000000 1.0
C      1  0.4344860000000  0.4095420000000  0.5029050000000 1.0
C      1  0.4928230000000  0.4260970000000  0.4117940000000 1.0
C      1  0.4354580000000  0.4768180000000  0.4134800000000 1.0
C      1  0.3968340000000  0.5015270000000  0.5379780000000 1.0
C      1  0.5257330000000  0.5069070000000  0.6241880000000 1.0
C      1  0.5447720000000  0.3924750000000  0.5303310000000 1.0
C      1  0.5694190000000  0.5146930000000  0.5220370000000 1.0
C      1  0.4768140000000  0.4615960000000  0.5962720000000 1.0
C      1  0.4359480000000  0.5301290000000  0.4850400000000 1.0
C      1  0.5767680000000  0.5815000000000  0.5005200000000 1.0
C      1  0.4389090000000  0.5952000000000  0.5289270000000 1.0
C      1  0.4200460000000  0.5544370000000  0.4710220000000 1.0
C      1  0.5414130000000  0.5347200000000  0.4860680000000 1.0
C      1  0.4957380000000  0.3897370000000  0.4753500000000 1.0
C      1  0.3992390000000  0.4441710000000  0.5018810000000 1.0
C      1  0.5057020000000  0.4049810000000  0.5606880000000 1.0
C      1  0.5000740000000  0.3843300000000  0.5187880000000 1.0
C      1  0.4500310000000  0.4620750000000  0.5872960000000 1.0
C      1  0.5247370000000  0.3883480000000  0.4804810000000 1.0
C      1  0.6042520000000  0.4607100000000  0.4883420000000 1.0
C      1  0.5367080000000  0.5669270000000  0.4841490000000 1.0
C      1  0.4987650000000  0.5157770000000  0.5234370000000 1.0
C      1  0.5005150000000  0.4114300000000  0.4345640000000 1.0
C      1  0.4805840000000  0.5602170000000  0.4064020000000 1.0
C      1  0.4428050000000  0.5288460000000  0.4109370000000 1.0
C      1  0.5396720000000  0.4456680000000  0.5796160000000 1.0
C      1  0.4857580000000  0.4904210000000  0.5179760000000 1.0
C      1  0.4253640000000  0.4521470000000  0.5398020000000 1.0
C      1  0.4442530000000  0.4697900000000  0.5224120000000 1.0
C      1  0.4641500000000  0.4015050000000  0.5431330000000 1.0
C      1  0.5693940000000  0.4776770000000  0.5718150000000 1.0
C      1  0.6044410000000  0.4899920000000  0.4880340000000 1.0
C      1  0.5214940000000  0.4931480000000  0.5850510000000 1.0
C      1  0.4703230000000  0.6176490000000  0.5607190000000 1.0
C      1  0.4646080000000  0.4310850000000  0.4096330000000 1.0
C      1  0.5046660000000  0.5641040000000  0.3948930000000 1.0
C      1  0.5191900000000  0.4392550000000  0.5188130000000 1.0
C      1  0.5608040000000  0.4700050000000  0.4110070000000 1.0
C      1  0.5010920000000  0.5236710000000  0.4547550000000 1.0
C      1  0.5305260000000  0.5636310000000  0.4019760000000 1.0
C      1  0.4924410000000  0.4380540000000  0.5964810000000 1.0
C      1  0.5893090000000  0.4729680000000  0.5504360000000 1.0
C      1  0.4597980000000  0.6145270000000  0.5351350000000 1.0
C      1  0.5593680000000  0.4496050000000  0.4301690000000 1.0
C      1  0.5934210000000  0.4895230000000  0.4591680000000 1.0
C      1  0.4417860000000  0.5392500000000  0.5822700000000 1.0
C      1  0.5061610000000  0.5385930000000  0.5968480000000 1.0
C      1  0.5451670000000  0.4991080000000  0.4479930000000 1.0
C      1  0.5566000000000  0.5911840000000  0.5201160000000 1.0
C      1  0.5941400000000  0.5577680000000  0.4927850000000 1.0
C      1  0.5799720000000  0.5166610000000  0.5745640000000 1.0
C      1  0.4837190000000  0.5341240000000  0.4747240000000 1.0
C      1  0.4909900000000  0.5212210000000  0.5536370000000 1.0
C      1  0.5981400000000  0.5076300000000  0.5115930000000 1.0
C      1  0.4691060000000  0.5805340000000  0.4242030000000 1.0
C      1  0.4829470000000  0.3955750000000  0.4507770000000 1.0
C      1  0.5647500000000  0.4985010000000  0.4196520000000 1.0
C      1  0.5027720000000  0.4326270000000  0.4957390000000 1.0
C      1  0.5367550000000  0.4685180000000  0.3953710000000 1.0
C      1  0.4290280000000  0.5046620000000  0.4177280000000 1.0
C      1  0.5196600000000  0.5425550000000  0.4474590000000 1.0
C      1  0.5653430000000  0.4209140000000  0.4724340000000 1.0
C      1  0.5629310000000  0.5193050000000  0.5501870000000 1.0
C      1  0.6000500000000  0.5380380000000  0.5132210000000 1.0
C      1  0.4809700000000  0.6220860000000  0.5172470000000 1.0
C      1  0.6021780000000  0.4965360000000  0.5394910000000 1.0
C      1  0.5522660000000  0.4233250000000  0.5650700000000 1.0
C      1  0.4071110000000  0.4721080000000  0.4554320000000 1.0
C      1  0.5694150000000  0.4975300000000  0.5926280000000 1.0
C      1  0.5683120000000  0.4080560000000  0.5238890000000 1.0
C      1  0.4707040000000  0.4608230000000  0.4433790000000 1.0
C      1  0.5292430000000  0.4942370000000  0.3884910000000 1.0
C      1  0.4711840000000  0.6062700000000  0.4668430000000 1.0
C      1  0.5496150000000  0.6004960000000  0.5456180000000 1.0
C      1  0.5351020000000  0.5830590000000  0.4235860000000 1.0
C      1  0.5915650000000  0.5561380000000  0.4624910000000 1.0
C      1  0.5191450000000  0.4398320000000  0.5954550000000 1.0
C      1  0.5755850000000  0.5786420000000  0.4547440000000 1.0
C      1  0.3970170000000  0.4721680000000  0.5365880000000 1.0
C      1  0.5224370000000  0.4248440000000  0.4488290000000 1.0
C      1  0.4144870000000  0.5558460000000  0.5460130000000 1.0
C      1  0.4852530000000  0.4493270000000  0.5404030000000 1.0
C      1  0.5155850000000  0.5717090000000  0.5328050000000 1.0
C      1  0.5265850000000  0.3830100000000  0.5099460000000 1.0
C      1  0.4175910000000  0.4289180000000  0.5173410000000 1.0
C      1  0.4389350000000  0.4892300000000  0.5913630000000 1.0
C      1  0.5614760000000  0.5758860000000  0.4308590000000 1.0
C      1  0.4525380000000  0.5154360000000  0.5965630000000 1.0
C      1  0.5610570000000  0.5849790000000  0.4772920000000 1.0
C      1  0.5584770000000  0.4709140000000  0.4856920000000 1.0
C      1  0.4879740000000  0.5624500000000  0.4753480000000 1.0
C      1  0.5390350000000  0.4741800000000  0.5682500000000 1.0
C      1  0.4776910000000  0.4497470000000  0.4913460000000 1.0
C      1  0.4008380000000  0.5189120000000  0.5151430000000 1.0
C      1  0.4341850000000  0.4805110000000  0.4939270000000 1.0
C      1  0.4467400000000  0.4180170000000  0.4275410000000 1.0
C      1  0.4951460000000  0.4999960000000  0.4391270000000 1.0
C      1  0.5138990000000  0.4741970000000  0.4761090000000 1.0
C      1  0.4999830000000  0.4939780000000  0.3896020000000 1.0
C      1  0.5262880000000  0.4810880000000  0.5415710000000 1.0
C      1  0.4902160000000  0.4872550000000  0.5900980000000 1.0
C      1  0.5896820000000  0.5089240000000  0.4360910000000 1.0
C      1  0.4309670000000  0.4355530000000  0.4655810000000 1.0
C      1  0.5352920000000  0.5575650000000  0.5486440000000 1.0
C      1  0.5150160000000  0.5681370000000  0.4628340000000 1.0
C      1  0.4349800000000  0.5750100000000  0.5491760000000 1.0
C      1  0.4296730000000  0.5895200000000  0.5019160000000 1.0
C      1  0.5157070000000  0.6082920000000  0.5001420000000 1.0
C      1  0.4893020000000  0.4686700000000  0.3980720000000 1.0
C      1  0.5270860000000  0.5119060000000  0.5303780000000 1.0
C      1  0.4570600000000  0.5615960000000  0.5673840000000 1.0
C      1  0.5288990000000  0.4504610000000  0.4330230000000 1.0
C      1  0.4173330000000  0.5368330000000  0.5672470000000 1.0
C      1  0.4367090000000  0.4086230000000  0.4738470000000 1.0
C      1  0.4844410000000  0.4165220000000  0.5799670000000 1.0
C      1  0.5356620000000  0.4829790000000  0.4962380000000 1.0
C      1  0.5412770000000  0.4043620000000  0.4639680000000 1.0
C      1  0.4703030000000  0.5326280000000  0.4061650000000 1.0
C      1  0.4416200000000  0.4425580000000  0.5666330000000 1.0
C      1  0.4643260000000  0.4442290000000  0.4649190000000 1.0
C      1  0.5760940000000  0.4400090000000  0.4517320000000 1.0
C      1  0.5948030000000  0.4421320000000  0.5083800000000 1.0
C      1  0.5377480000000  0.5255760000000  0.4593610000000 1.0
C      1  0.4123120000000  0.5662920000000  0.4983700000000 1.0
END
