TITL C-36508-8228-16 -0.276211199835616 125000 -1178.82906423772 0 0 167 (C1) n - 1
REM
REM in /rds/project/t2_vol4/rds-t2-cs072/BORA/CARBON/from-Arr/AIRSS/Generating-Clusters/GAP-ML-2020/Only-C1/SD-CG/HFTN-CG/C160-200
REM
REM
REM
REM
REM
REM ./C.cell (f2ad243b7eb7c0cd63fb1bbaf7e03044)
REM AIRSS Version 0.9.1 bugfix July 2018 build 013d7b7c2542+ Fri, 06 Jul 2018 19:26:36 +0100
REM compiler GCC version 9.3.0
REM options -cpp -mtune=generic -march=x86-64 -g -O0
REM seed 1514443108 1175764632 -1082134482 697412021 953011066 -608777305 -1500520257 -1116433131 -899922855 -147488496 -612934056 -198752090 -1986741449 266388762 2070014787 1548678904 -1551008641 -1627811255 1781140075 -145982644 -1278525461 1809345998 -1587347044 -1718701347 -1496780518 1637424306 -888676136 650538864 553541269 -2091469870 -402885221 -405178788 -308934617
REM
CELL 1.54180   50.00000   50.00000   50.00000   90.00000   90.00000   90.00000
LATT -1
SFAC C  
C      1  0.4237870000000  0.5784700000000  0.5135100000000 1.0
C      1  0.5088090000000  0.5276690000000  0.5995890000000 1.0
C      1  0.5316250000000  0.4415100000000  0.5671120000000 1.0
C      1  0.4855690000000  0.5859160000000  0.4557380000000 1.0
C      1  0.5670390000000  0.5695580000000  0.5285930000000 1.0
C      1  0.5317480000000  0.4168680000000  0.5127460000000 1.0
C      1  0.5695420000000  0.4810320000000  0.4846030000000 1.0
C      1  0.3925120000000  0.4901100000000  0.4573430000000 1.0
C      1  0.5374320000000  0.5416910000000  0.5058600000000 1.0
C      1  0.5427950000000  0.5465680000000  0.4561410000000 1.0
C      1  0.4482610000000  0.4072270000000  0.5284090000000 1.0
C      1  0.4932190000000  0.4537010000000  0.5213510000000 1.0
C      1  0.5048870000000  0.4815510000000  0.5098110000000 1.0
C      1  0.5319920000000  0.4732290000000  0.4292480000000 1.0
C      1  0.5464010000000  0.5114030000000  0.5121440000000 1.0
C      1  0.5609410000000  0.4303230000000  0.4370450000000 1.0
C      1  0.4628870000000  0.5112620000000  0.4610570000000 1.0
C      1  0.4909000000000  0.3936430000000  0.5360020000000 1.0
C      1  0.5830060000000  0.4651700000000  0.5065710000000 1.0
C      1  0.4215650000000  0.4933580000000  0.5654220000000 1.0
C      1  0.4843230000000  0.5219200000000  0.4030450000000 1.0
C      1  0.5870670000000  0.4788000000000  0.5313580000000 1.0
C      1  0.5815290000000  0.4708290000000  0.4304660000000 1.0
C      1  0.5936820000000  0.4575040000000  0.4530620000000 1.0
C      1  0.4065810000000  0.5335140000000  0.5303320000000 1.0
C      1  0.4856670000000  0.4934240000000  0.4577050000000 1.0
C      1  0.4145800000000  0.4551150000000  0.4774390000000 1.0
C      1  0.5556800000000  0.4440930000000  0.5499570000000 1.0
C      1  0.4186840000000  0.5771230000000  0.4847890000000 1.0
C      1  0.5129980000000  0.5158590000000  0.4003300000000 1.0
C      1  0.4434960000000  0.5620120000000  0.5506310000000 1.0
C      1  0.4809520000000  0.4194420000000  0.4944690000000 1.0
C      1  0.5953320000000  0.5165640000000  0.4480880000000 1.0
C      1  0.4570990000000  0.5877510000000  0.5436730000000 1.0
C      1  0.5317150000000  0.6150810000000  0.4726840000000 1.0
C      1  0.4518180000000  0.4084460000000  0.5561290000000 1.0
C      1  0.4889270000000  0.5457930000000  0.6145290000000 1.0
C      1  0.4903590000000  0.5237810000000  0.5089010000000 1.0
C      1  0.4569200000000  0.5547090000000  0.4270240000000 1.0
C      1  0.4839960000000  0.4708310000000  0.4372940000000 1.0
C      1  0.5527050000000  0.5391370000000  0.5815940000000 1.0
C      1  0.4995560000000  0.5319840000000  0.4806490000000 1.0
C      1  0.4466910000000  0.4856070000000  0.4131370000000 1.0
C      1  0.4161270000000  0.5186820000000  0.4287180000000 1.0
C      1  0.5192890000000  0.5328360000000  0.4444800000000 1.0
C      1  0.3978840000000  0.5175440000000  0.4525200000000 1.0
C      1  0.5867470000000  0.5272550000000  0.5369420000000 1.0
C      1  0.5267160000000  0.5034050000000  0.6075150000000 1.0
C      1  0.5348290000000  0.4610310000000  0.5903140000000 1.0
C      1  0.5570250000000  0.4567680000000  0.4255030000000 1.0
C      1  0.4402700000000  0.5321860000000  0.4198310000000 1.0
C      1  0.5783560000000  0.4337220000000  0.4585440000000 1.0
C      1  0.4477110000000  0.5941110000000  0.5175190000000 1.0
C      1  0.5197740000000  0.4151150000000  0.5641300000000 1.0
C      1  0.5097560000000  0.5105470000000  0.4597010000000 1.0
C      1  0.4439270000000  0.5841960000000  0.4725710000000 1.0
C      1  0.4421290000000  0.4421450000000  0.4375540000000 1.0
C      1  0.3940100000000  0.4932860000000  0.5053150000000 1.0
C      1  0.4774860000000  0.3981800000000  0.5612750000000 1.0
C      1  0.4702710000000  0.5384400000000  0.4719980000000 1.0
C      1  0.4576690000000  0.5363570000000  0.4993520000000 1.0
C      1  0.5017820000000  0.4089160000000  0.4516950000000 1.0
C      1  0.4357760000000  0.4145500000000  0.4769590000000 1.0
C      1  0.5994980000000  0.5161760000000  0.4968610000000 1.0
C      1  0.4831270000000  0.5914760000000  0.5540200000000 1.0
C      1  0.4596510000000  0.4461180000000  0.5874720000000 1.0
C      1  0.4199490000000  0.5585970000000  0.5344850000000 1.0
C      1  0.5154230000000  0.5109260000000  0.5533300000000 1.0
C      1  0.5324270000000  0.4857690000000  0.5054750000000 1.0
C      1  0.4399390000000  0.5128100000000  0.5010530000000 1.0
C      1  0.5277660000000  0.5487190000000  0.5900970000000 1.0
C      1  0.4628750000000  0.4694330000000  0.4944570000000 1.0
C      1  0.5142770000000  0.5551280000000  0.4918640000000 1.0
C      1  0.4667570000000  0.5145480000000  0.5632070000000 1.0
C      1  0.5243580000000  0.5723430000000  0.5488800000000 1.0
C      1  0.4580130000000  0.5111500000000  0.4074340000000 1.0
C      1  0.4774850000000  0.4126810000000  0.4657030000000 1.0
C      1  0.5295210000000  0.4860350000000  0.5563920000000 1.0
C      1  0.5413810000000  0.5311070000000  0.5543120000000 1.0
C      1  0.5597660000000  0.5170720000000  0.5384190000000 1.0
C      1  0.5690550000000  0.5846470000000  0.4850950000000 1.0
C      1  0.3941580000000  0.4768320000000  0.4823080000000 1.0
C      1  0.5690810000000  0.4227180000000  0.4829060000000 1.0
C      1  0.5482300000000  0.5935750000000  0.4684760000000 1.0
C      1  0.5973630000000  0.4760770000000  0.4733750000000 1.0
C      1  0.4404580000000  0.5008020000000  0.4733340000000 1.0
C      1  0.4409440000000  0.4730750000000  0.4759310000000 1.0
C      1  0.4547900000000  0.4902740000000  0.5158920000000 1.0
C      1  0.5455170000000  0.4071600000000  0.4367300000000 1.0
C      1  0.5808630000000  0.4989920000000  0.4282490000000 1.0
C      1  0.4424110000000  0.4329410000000  0.5670030000000 1.0
C      1  0.4943520000000  0.4126400000000  0.5780830000000 1.0
C      1  0.5993860000000  0.5459600000000  0.4992710000000 1.0
C      1  0.4056250000000  0.5106510000000  0.5476690000000 1.0
C      1  0.4758720000000  0.5453360000000  0.5206390000000 1.0
C      1  0.5289160000000  0.4033740000000  0.4605790000000 1.0
C      1  0.5090170000000  0.5775930000000  0.4436720000000 1.0
C      1  0.4362320000000  0.4328880000000  0.5197770000000 1.0
C      1  0.4915230000000  0.5809340000000  0.5796840000000 1.0
C      1  0.5542800000000  0.5364290000000  0.4120640000000 1.0
C      1  0.4938700000000  0.5114690000000  0.5771360000000 1.0
C      1  0.4865680000000  0.4645290000000  0.5468060000000 1.0
C      1  0.4165230000000  0.4514460000000  0.4469310000000 1.0
C      1  0.4517990000000  0.4210820000000  0.4552510000000 1.0
C      1  0.5084410000000  0.4558160000000  0.4400070000000 1.0
C      1  0.5330210000000  0.4918420000000  0.4567220000000 1.0
C      1  0.4730440000000  0.4930890000000  0.5396440000000 1.0
C      1  0.4219930000000  0.4312040000000  0.4932880000000 1.0
C      1  0.5991470000000  0.5048940000000  0.5246080000000 1.0
C      1  0.5073030000000  0.5555960000000  0.4248680000000 1.0
C      1  0.5264150000000  0.6006360000000  0.5140380000000 1.0
C      1  0.5135240000000  0.4634460000000  0.5556340000000 1.0
C      1  0.4827260000000  0.4321690000000  0.5935990000000 1.0
C      1  0.5292710000000  0.5711430000000  0.4641690000000 1.0
C      1  0.5345940000000  0.4029490000000  0.4113180000000 1.0
C      1  0.5390520000000  0.4746020000000  0.4790830000000 1.0
C      1  0.5875380000000  0.5436300000000  0.4505270000000 1.0
C      1  0.4060020000000  0.5204310000000  0.5027030000000 1.0
C      1  0.4462240000000  0.4971870000000  0.5787170000000 1.0
C      1  0.5084970000000  0.4346680000000  0.5007370000000 1.0
C      1  0.5061520000000  0.5863730000000  0.5324240000000 1.0
C      1  0.4260250000000  0.4444970000000  0.5462750000000 1.0
C      1  0.4593480000000  0.5991920000000  0.4909330000000 1.0
C      1  0.5571930000000  0.5381630000000  0.4818190000000 1.0
C      1  0.3995930000000  0.5608370000000  0.4749810000000 1.0
C      1  0.4619750000000  0.5672740000000  0.4544230000000 1.0
C      1  0.5434010000000  0.4090560000000  0.4850260000000 1.0
C      1  0.6061670000000  0.5032540000000  0.4709030000000 1.0
C      1  0.4980360000000  0.5042800000000  0.5278770000000 1.0
C      1  0.5588990000000  0.5087040000000  0.4115160000000 1.0
C      1  0.5429810000000  0.5543600000000  0.5361900000000 1.0
C      1  0.4726230000000  0.3993750000000  0.5154250000000 1.0
C      1  0.4588250000000  0.4629120000000  0.4252950000000 1.0
C      1  0.5119140000000  0.6113180000000  0.4904540000000 1.0
C      1  0.5830020000000  0.5573470000000  0.4782910000000 1.0
C      1  0.4637830000000  0.5407620000000  0.5485440000000 1.0
C      1  0.5558000000000  0.4303000000000  0.5257030000000 1.0
C      1  0.4860260000000  0.6020160000000  0.4796350000000 1.0
C      1  0.5174100000000  0.5694950000000  0.5750380000000 1.0
C      1  0.5745520000000  0.4375950000000  0.5065050000000 1.0
C      1  0.5528380000000  0.4807690000000  0.5763150000000 1.0
C      1  0.4120240000000  0.4691250000000  0.5500710000000 1.0
C      1  0.5328220000000  0.4951240000000  0.4081050000000 1.0
C      1  0.4817270000000  0.5481260000000  0.4146780000000 1.0
C      1  0.5566490000000  0.5901630000000  0.5108340000000 1.0
C      1  0.5705580000000  0.5253040000000  0.5974690000000 1.0
C      1  0.3969580000000  0.5340690000000  0.4761580000000 1.0
C      1  0.4905320000000  0.4759070000000  0.4830580000000 1.0
C      1  0.4818400000000  0.5676410000000  0.6032840000000 1.0
C      1  0.5544280000000  0.5030520000000  0.5968930000000 1.0
C      1  0.5706590000000  0.4677950000000  0.5542110000000 1.0
C      1  0.5152800000000  0.4188010000000  0.4056930000000 1.0
C      1  0.5175710000000  0.4036490000000  0.5371660000000 1.0
C      1  0.5134890000000  0.4557720000000  0.4747840000000 1.0
C      1  0.5148100000000  0.4779700000000  0.6037550000000 1.0
C      1  0.4943260000000  0.5670890000000  0.5117160000000 1.0
C      1  0.5039630000000  0.4283670000000  0.4296680000000 1.0
C      1  0.5638240000000  0.5481190000000  0.4359180000000 1.0
C      1  0.5683570000000  0.5109110000000  0.4904170000000 1.0
C      1  0.4197590000000  0.4915140000000  0.4204130000000 1.0
C      1  0.4659120000000  0.4440120000000  0.5080920000000 1.0
C      1  0.5899550000000  0.5527560000000  0.5246060000000 1.0
C      1  0.3970510000000  0.4868220000000  0.5325490000000 1.0
C      1  0.4885710000000  0.4856460000000  0.5938450000000 1.0
C      1  0.4052200000000  0.4745560000000  0.4368970000000 1.0
C      1  0.5262650000000  0.5406150000000  0.4075040000000 1.0
C      1  0.4622620000000  0.4755540000000  0.5906430000000 1.0
END
