TITL C-36508-8228-3 117.292859130011 125000 -1327.89907612458 0 0 187 (C1) n - 1
REM
REM in /rds/project/t2_vol4/rds-t2-cs072/BORA/CARBON/from-Arr/AIRSS/Generating-Clusters/GAP-ML-2020/Only-C1/SD-CG/HFTN-CG/C160-200
REM
REM
REM
REM
REM
REM ./C.cell (f2ad243b7eb7c0cd63fb1bbaf7e03044)
REM AIRSS Version 0.9.1 bugfix July 2018 build 013d7b7c2542+ Fri, 06 Jul 2018 19:26:36 +0100
REM compiler GCC version 9.3.0
REM options -cpp -mtune=generic -march=x86-64 -g -O0
REM seed -175405212 -2029817429 832203786 5997293 1462536243 1870530874 1538497218 -838106002 1876096879 -1682441216 529758967 180380315 -956739584 -1313543705 -1417487336 65012579 1616777920 1172463128 -503649295 -943312056 -508141074 -1151496602 -515998046 1795932790 141687191 -1126862047 -1201013343 1931384485 -379748049 734103783 -1153184439 -561647419 -1069438799
REM
CELL 1.54180   50.00000   50.00000   50.00000   90.00000   90.00000   90.00000
LATT -1
SFAC C  
C      1  0.5623640000000  0.4755170000000  0.4750350000000 1.0
C      1  0.4507830000000  0.4866340000000  0.5967380000000 1.0
C      1  0.4353630000000  0.5081200000000  0.5912410000000 1.0
C      1  0.4944090000000  0.5076410000000  0.4541930000000 1.0
C      1  0.5046120000000  0.3821820000000  0.4790310000000 1.0
C      1  0.5134700000000  0.4699960000000  0.3972410000000 1.0
C      1  0.4277280000000  0.5573450000000  0.5716760000000 1.0
C      1  0.4990900000000  0.5357520000000  0.4515700000000 1.0
C      1  0.5600220000000  0.4809050000000  0.5052860000000 1.0
C      1  0.4742110000000  0.5642570000000  0.3903860000000 1.0
C      1  0.5112310000000  0.5381200000000  0.4039340000000 1.0
C      1  0.3933800000000  0.4991520000000  0.4517320000000 1.0
C      1  0.5130980000000  0.5450190000000  0.6003210000000 1.0
C      1  0.5154540000000  0.5635000000000  0.4178860000000 1.0
C      1  0.6120140000000  0.4682030000000  0.5095150000000 1.0
C      1  0.5639700000000  0.5884400000000  0.4627080000000 1.0
C      1  0.4124450000000  0.5549460000000  0.5056310000000 1.0
C      1  0.5621560000000  0.5550440000000  0.4299420000000 1.0
C      1  0.5082900000000  0.4397930000000  0.4736990000000 1.0
C      1  0.4995770000000  0.4472730000000  0.4042290000000 1.0
C      1  0.3807990000000  0.5111300000000  0.4750070000000 1.0
C      1  0.4394800000000  0.4993060000000  0.4464440000000 1.0
C      1  0.4640370000000  0.5634440000000  0.4847100000000 1.0
C      1  0.5986020000000  0.4786800000000  0.5535240000000 1.0
C      1  0.4684690000000  0.5414020000000  0.6012210000000 1.0
C      1  0.4755270000000  0.5144080000000  0.5047950000000 1.0
C      1  0.4749280000000  0.4920750000000  0.6108710000000 1.0
C      1  0.4393110000000  0.4252090000000  0.4375360000000 1.0
C      1  0.5463960000000  0.5213800000000  0.4561240000000 1.0
C      1  0.5066110000000  0.4696130000000  0.5508810000000 1.0
C      1  0.4513430000000  0.4162390000000  0.5464400000000 1.0
C      1  0.4226340000000  0.4129840000000  0.5089400000000 1.0
C      1  0.4479460000000  0.4019470000000  0.5220850000000 1.0
C      1  0.5546170000000  0.4465300000000  0.4809980000000 1.0
C      1  0.4229310000000  0.4588140000000  0.4295640000000 1.0
C      1  0.5064060000000  0.4044840000000  0.4333840000000 1.0
C      1  0.4965380000000  0.4423770000000  0.4994700000000 1.0
C      1  0.4492520000000  0.5178760000000  0.4702730000000 1.0
C      1  0.5393890000000  0.5134760000000  0.5753420000000 1.0
C      1  0.4749600000000  0.5485790000000  0.4401180000000 1.0
C      1  0.4569620000000  0.4325720000000  0.4604780000000 1.0
C      1  0.5279240000000  0.5024580000000  0.5246570000000 1.0
C      1  0.4539360000000  0.5486720000000  0.4613240000000 1.0
C      1  0.4530760000000  0.5241250000000  0.5512910000000 1.0
C      1  0.5943120000000  0.4756950000000  0.4602670000000 1.0
C      1  0.5450880000000  0.5045910000000  0.5007970000000 1.0
C      1  0.4077160000000  0.5239830000000  0.5407330000000 1.0
C      1  0.6044590000000  0.5212430000000  0.4595630000000 1.0
C      1  0.4797970000000  0.5021940000000  0.4289170000000 1.0
C      1  0.4389750000000  0.4628600000000  0.5537400000000 1.0
C      1  0.4728990000000  0.4608370000000  0.4528610000000 1.0
C      1  0.4055670000000  0.4345690000000  0.4679180000000 1.0
C      1  0.4138410000000  0.4343450000000  0.4396780000000 1.0
C      1  0.4335590000000  0.4801690000000  0.5301460000000 1.0
C      1  0.4557210000000  0.5519710000000  0.5359910000000 1.0
C      1  0.4809410000000  0.5097760000000  0.5524160000000 1.0
C      1  0.4991200000000  0.4489430000000  0.5938440000000 1.0
C      1  0.5362400000000  0.4315160000000  0.4646270000000 1.0
C      1  0.5968930000000  0.5258190000000  0.5493910000000 1.0
C      1  0.5260670000000  0.5407220000000  0.5748410000000 1.0
C      1  0.4683650000000  0.4561230000000  0.5003710000000 1.0
C      1  0.4927060000000  0.5560920000000  0.4912620000000 1.0
C      1  0.4125260000000  0.4651820000000  0.5103850000000 1.0
C      1  0.4815420000000  0.5188790000000  0.6151760000000 1.0
C      1  0.6141910000000  0.4866660000000  0.5310910000000 1.0
C      1  0.4592240000000  0.4665300000000  0.5745390000000 1.0
C      1  0.4193360000000  0.4598790000000  0.4788810000000 1.0
C      1  0.5185840000000  0.3905110000000  0.4556660000000 1.0
C      1  0.4720140000000  0.4743140000000  0.4780190000000 1.0
C      1  0.5647090000000  0.5661350000000  0.5544150000000 1.0
C      1  0.4076200000000  0.5493390000000  0.5536040000000 1.0
C      1  0.4460640000000  0.5216460000000  0.5027630000000 1.0
C      1  0.4746190000000  0.5032490000000  0.4767770000000 1.0
C      1  0.4395070000000  0.5746390000000  0.5493900000000 1.0
C      1  0.5983240000000  0.4447260000000  0.5202690000000 1.0
C      1  0.5540600000000  0.5253810000000  0.4260990000000 1.0
C      1  0.5877300000000  0.5526320000000  0.5433740000000 1.0
C      1  0.4133520000000  0.5694770000000  0.5336960000000 1.0
C      1  0.4982000000000  0.4793700000000  0.5965530000000 1.0
C      1  0.5234530000000  0.4963360000000  0.5997550000000 1.0
C      1  0.4759370000000  0.4202200000000  0.5605380000000 1.0
C      1  0.5445260000000  0.4561740000000  0.5089730000000 1.0
C      1  0.4170190000000  0.4796020000000  0.4524410000000 1.0
C      1  0.4824320000000  0.5380260000000  0.3964890000000 1.0
C      1  0.5403560000000  0.4957810000000  0.4693910000000 1.0
C      1  0.5523270000000  0.4174330000000  0.5562190000000 1.0
C      1  0.5243670000000  0.4175830000000  0.5651360000000 1.0
C      1  0.4057680000000  0.5557770000000  0.4759780000000 1.0
C      1  0.5401220000000  0.5727340000000  0.4267150000000 1.0
C      1  0.5013880000000  0.5330070000000  0.5522060000000 1.0
C      1  0.4556950000000  0.5999170000000  0.5479210000000 1.0
C      1  0.5182000000000  0.5297580000000  0.5271010000000 1.0
C      1  0.4382890000000  0.5203730000000  0.4239610000000 1.0
C      1  0.4113310000000  0.4140570000000  0.4840550000000 1.0
C      1  0.4466030000000  0.4469040000000  0.4830490000000 1.0
C      1  0.5451880000000  0.3952170000000  0.4955030000000 1.0
C      1  0.6125400000000  0.4806730000000  0.4833370000000 1.0
C      1  0.4256390000000  0.5562060000000  0.4543410000000 1.0
C      1  0.4785230000000  0.4040710000000  0.4340140000000 1.0
C      1  0.5089940000000  0.6050900000000  0.5144770000000 1.0
C      1  0.4484280000000  0.4642030000000  0.4141690000000 1.0
C      1  0.4674800000000  0.4037190000000  0.4604440000000 1.0
C      1  0.5593890000000  0.4790060000000  0.4162870000000 1.0
C      1  0.5181430000000  0.3872010000000  0.5039600000000 1.0
C      1  0.4773200000000  0.3883380000000  0.4823270000000 1.0
C      1  0.6130910000000  0.5147730000000  0.5287970000000 1.0
C      1  0.5508530000000  0.5716060000000  0.5301810000000 1.0
C      1  0.6164950000000  0.5084980000000  0.4821530000000 1.0
C      1  0.4950500000000  0.5837630000000  0.5800170000000 1.0
C      1  0.5668140000000  0.4410320000000  0.5644890000000 1.0
C      1  0.5944740000000  0.5000350000000  0.4432710000000 1.0
C      1  0.5409190000000  0.4025260000000  0.4681440000000 1.0
C      1  0.4180740000000  0.5390090000000  0.4318130000000 1.0
C      1  0.5069320000000  0.4813230000000  0.5242980000000 1.0
C      1  0.5318100000000  0.5180000000000  0.4069320000000 1.0
C      1  0.4695620000000  0.4441940000000  0.4059070000000 1.0
C      1  0.4932830000000  0.5376610000000  0.5117230000000 1.0
C      1  0.4886010000000  0.5756010000000  0.4314550000000 1.0
C      1  0.5878920000000  0.5030820000000  0.5663390000000 1.0
C      1  0.5070730000000  0.6018850000000  0.5437440000000 1.0
C      1  0.3951610000000  0.5260980000000  0.4402970000000 1.0
C      1  0.4610680000000  0.4729470000000  0.5226580000000 1.0
C      1  0.4614340000000  0.4811740000000  0.4335820000000 1.0
C      1  0.3858290000000  0.5381250000000  0.4653340000000 1.0
C      1  0.6049400000000  0.5512420000000  0.4952080000000 1.0
C      1  0.4803000000000  0.4943900000000  0.5252990000000 1.0
C      1  0.4314380000000  0.4367300000000  0.5464600000000 1.0
C      1  0.5163290000000  0.4563510000000  0.5133000000000 1.0
C      1  0.3959100000000  0.5297830000000  0.5162370000000 1.0
C      1  0.4665500000000  0.5265260000000  0.4185400000000 1.0
C      1  0.5787850000000  0.5651630000000  0.4519810000000 1.0
C      1  0.5656820000000  0.5025600000000  0.5843920000000 1.0
C      1  0.5883980000000  0.4242050000000  0.5012240000000 1.0
C      1  0.5383290000000  0.5411720000000  0.4749910000000 1.0
C      1  0.4162750000000  0.4369190000000  0.5230960000000 1.0
C      1  0.5097570000000  0.5200850000000  0.6124890000000 1.0
C      1  0.5699980000000  0.5829650000000  0.5116250000000 1.0
C      1  0.5568550000000  0.5955860000000  0.4902690000000 1.0
C      1  0.5283010000000  0.6031020000000  0.4917200000000 1.0
C      1  0.5412870000000  0.4965670000000  0.5503240000000 1.0
C      1  0.5503000000000  0.4816800000000  0.5970830000000 1.0
C      1  0.5814090000000  0.4342370000000  0.4756280000000 1.0
C      1  0.4589070000000  0.6090560000000  0.5207680000000 1.0
C      1  0.4819010000000  0.5994580000000  0.5587690000000 1.0
C      1  0.4896530000000  0.5614300000000  0.5978890000000 1.0
C      1  0.5145670000000  0.4872810000000  0.4587720000000 1.0
C      1  0.4447570000000  0.5342260000000  0.5820740000000 1.0
C      1  0.5920840000000  0.5654580000000  0.5163990000000 1.0
C      1  0.5333070000000  0.4882680000000  0.4036340000000 1.0
C      1  0.4979880000000  0.3933840000000  0.5250590000000 1.0
C      1  0.5116820000000  0.5485330000000  0.4720910000000 1.0
C      1  0.4921850000000  0.5928400000000  0.4559580000000 1.0
C      1  0.4448000000000  0.5512530000000  0.5070400000000 1.0
C      1  0.4713970000000  0.5936550000000  0.4782070000000 1.0
C      1  0.5737310000000  0.5020150000000  0.4241640000000 1.0
C      1  0.5856140000000  0.4496390000000  0.4506340000000 1.0
C      1  0.5184690000000  0.6009460000000  0.4639610000000 1.0
C      1  0.5201530000000  0.5864910000000  0.5655690000000 1.0
C      1  0.5975290000000  0.5487850000000  0.4666410000000 1.0
C      1  0.4862350000000  0.4838110000000  0.5682080000000 1.0
C      1  0.3905440000000  0.4823530000000  0.5125600000000 1.0
C      1  0.5336420000000  0.4710480000000  0.5581760000000 1.0
C      1  0.5406580000000  0.5928760000000  0.4471390000000 1.0
C      1  0.4734810000000  0.5844570000000  0.4064460000000 1.0
C      1  0.4333320000000  0.5102790000000  0.5330690000000 1.0
C      1  0.5231250000000  0.4372410000000  0.5858540000000 1.0
C      1  0.4720510000000  0.3913500000000  0.5109860000000 1.0
C      1  0.4471160000000  0.6133030000000  0.4766180000000 1.0
C      1  0.5628810000000  0.4022330000000  0.5366040000000 1.0
C      1  0.5508590000000  0.5331440000000  0.4990770000000 1.0
C      1  0.5888760000000  0.4518360000000  0.5488150000000 1.0
C      1  0.4398620000000  0.6180550000000  0.5007440000000 1.0
C      1  0.4824110000000  0.6042020000000  0.5051580000000 1.0
C      1  0.5005190000000  0.4079120000000  0.5509650000000 1.0
C      1  0.5176780000000  0.4279370000000  0.4201890000000 1.0
C      1  0.6162860000000  0.5264770000000  0.5036210000000 1.0
C      1  0.5409290000000  0.5464830000000  0.5211880000000 1.0
C      1  0.3855460000000  0.5068850000000  0.5024590000000 1.0
C      1  0.5466040000000  0.4567830000000  0.5807670000000 1.0
C      1  0.5411860000000  0.4360420000000  0.4346220000000 1.0
C      1  0.5001650000000  0.4625850000000  0.4596830000000 1.0
C      1  0.4609310000000  0.4207730000000  0.4184390000000 1.0
C      1  0.5635380000000  0.4530890000000  0.4306060000000 1.0
C      1  0.5403840000000  0.5659690000000  0.5685120000000 1.0
C      1  0.4754780000000  0.4412760000000  0.5801720000000 1.0
C      1  0.5682930000000  0.4037020000000  0.5103430000000 1.0
C      1  0.4843470000000  0.5515580000000  0.5360310000000 1.0
END
