TITL C-36508-8228-29 1346.23946194686 125000 -1314.56258185531 0 0 185 (C1) n - 1
REM
REM in /rds/project/t2_vol4/rds-t2-cs072/BORA/CARBON/from-Arr/AIRSS/Generating-Clusters/GAP-ML-2020/Only-C1/SD-CG/HFTN-CG/C160-200
REM
REM
REM
REM
REM
REM ./C.cell (f2ad243b7eb7c0cd63fb1bbaf7e03044)
REM AIRSS Version 0.9.1 bugfix July 2018 build 013d7b7c2542+ Fri, 06 Jul 2018 19:26:36 +0100
REM compiler GCC version 9.3.0
REM options -cpp -mtune=generic -march=x86-64 -g -O0
REM seed 415327219 305571136 451211106 134571030 -1725212729 -513063531 681064515 -206112650 -910760356 22792342 408459605 -1401468718 -509712627 180585850 -1925531556 -2087019997 1810594075 -935932827 -931662153 -1785056860 -394368019 2018779895 1571819966 196360733 376714709 -202563682 -1132837747 -1693724675 -1580355204 -713627425 -199152472 -469630613 1142395794
REM
CELL 1.54180   50.00000   50.00000   50.00000   90.00000   90.00000   90.00000
LATT -1
SFAC C  
C      1  0.5283090000000  0.4945350000000  0.6131140000000 1.0
C      1  0.5283090000000  0.5250720000000  0.5210490000000 1.0
C      1  0.3956350000000  0.4808150000000  0.4564210000000 1.0
C      1  0.5193820000000  0.5212550000000  0.5981690000000 1.0
C      1  0.5387780000000  0.4416800000000  0.5293000000000 1.0
C      1  0.3962580000000  0.5505400000000  0.5115890000000 1.0
C      1  0.4623980000000  0.5305660000000  0.4415450000000 1.0
C      1  0.4204720000000  0.5239880000000  0.4270450000000 1.0
C      1  0.5855400000000  0.4596850000000  0.5224340000000 1.0
C      1  0.4789120000000  0.5962050000000  0.5505010000000 1.0
C      1  0.4339730000000  0.4964040000000  0.4614570000000 1.0
C      1  0.5832550000000  0.5031940000000  0.5585770000000 1.0
C      1  0.5639090000000  0.5612070000000  0.4649460000000 1.0
C      1  0.4668200000000  0.5683870000000  0.5847710000000 1.0
C      1  0.5929840000000  0.4711020000000  0.4555250000000 1.0
C      1  0.5745560000000  0.5491080000000  0.5710060000000 1.0
C      1  0.4865070000000  0.3889950000000  0.4657710000000 1.0
C      1  0.5394720000000  0.4764780000000  0.4688880000000 1.0
C      1  0.4778840000000  0.4136430000000  0.5369420000000 1.0
C      1  0.4464730000000  0.5125210000000  0.4201090000000 1.0
C      1  0.4164330000000  0.5719060000000  0.5047470000000 1.0
C      1  0.5679810000000  0.5413010000000  0.4259500000000 1.0
C      1  0.4861440000000  0.5878360000000  0.5769430000000 1.0
C      1  0.5328340000000  0.6112400000000  0.4999790000000 1.0
C      1  0.4508930000000  0.5189340000000  0.4657330000000 1.0
C      1  0.4375120000000  0.4446330000000  0.4547340000000 1.0
C      1  0.5572800000000  0.5334570000000  0.4009180000000 1.0
C      1  0.5569780000000  0.4482130000000  0.5919020000000 1.0
C      1  0.4936930000000  0.5453420000000  0.4091990000000 1.0
C      1  0.4868020000000  0.5216440000000  0.3913840000000 1.0
C      1  0.4925980000000  0.5279370000000  0.4366860000000 1.0
C      1  0.4069800000000  0.5086260000000  0.4493590000000 1.0
C      1  0.5988000000000  0.5115330000000  0.5128000000000 1.0
C      1  0.5845510000000  0.5675110000000  0.5300710000000 1.0
C      1  0.5984320000000  0.5205730000000  0.5402940000000 1.0
C      1  0.5240060000000  0.5376870000000  0.4939070000000 1.0
C      1  0.5713880000000  0.4388750000000  0.4248540000000 1.0
C      1  0.4227180000000  0.4414720000000  0.5093490000000 1.0
C      1  0.5866850000000  0.4535420000000  0.5539150000000 1.0
C      1  0.4851920000000  0.4427210000000  0.5805440000000 1.0
C      1  0.5398570000000  0.5508080000000  0.3871990000000 1.0
C      1  0.5131520000000  0.3834130000000  0.4777070000000 1.0
C      1  0.4893750000000  0.4507800000000  0.4011670000000 1.0
C      1  0.4671500000000  0.4399410000000  0.4166880000000 1.0
C      1  0.5429910000000  0.4827660000000  0.4986870000000 1.0
C      1  0.5789570000000  0.5221330000000  0.4447100000000 1.0
C      1  0.5438500000000  0.5109660000000  0.5815850000000 1.0
C      1  0.5117470000000  0.4556040000000  0.5392230000000 1.0
C      1  0.5763530000000  0.5273470000000  0.4994590000000 1.0
C      1  0.4704290000000  0.4627690000000  0.5184420000000 1.0
C      1  0.4335930000000  0.4802120000000  0.4873590000000 1.0
C      1  0.5014240000000  0.4462850000000  0.4704080000000 1.0
C      1  0.4494530000000  0.5323340000000  0.5379350000000 1.0
C      1  0.4792780000000  0.5671050000000  0.4262240000000 1.0
C      1  0.5661050000000  0.5313280000000  0.4696940000000 1.0
C      1  0.5291470000000  0.4462640000000  0.5995390000000 1.0
C      1  0.5257050000000  0.6014590000000  0.5578630000000 1.0
C      1  0.4861740000000  0.4745970000000  0.3854720000000 1.0
C      1  0.5027770000000  0.5736150000000  0.4444430000000 1.0
C      1  0.4098760000000  0.4546530000000  0.4610440000000 1.0
C      1  0.4087630000000  0.5559310000000  0.4569880000000 1.0
C      1  0.4805030000000  0.5161840000000  0.4916930000000 1.0
C      1  0.5214300000000  0.4985850000000  0.4600070000000 1.0
C      1  0.5333300000000  0.5699530000000  0.5922700000000 1.0
C      1  0.4250150000000  0.5513880000000  0.4347190000000 1.0
C      1  0.4869160000000  0.4915430000000  0.5731220000000 1.0
C      1  0.4649330000000  0.4038400000000  0.4785330000000 1.0
C      1  0.5311110000000  0.5669740000000  0.4971890000000 1.0
C      1  0.4159270000000  0.5080930000000  0.5613090000000 1.0
C      1  0.5220180000000  0.4133420000000  0.5643360000000 1.0
C      1  0.4427960000000  0.4625160000000  0.5671490000000 1.0
C      1  0.4595220000000  0.4874370000000  0.5607040000000 1.0
C      1  0.4908140000000  0.3989170000000  0.4397140000000 1.0
C      1  0.4186200000000  0.4617560000000  0.5519090000000 1.0
C      1  0.4512380000000  0.5876870000000  0.5439450000000 1.0
C      1  0.5465800000000  0.4244930000000  0.5527520000000 1.0
C      1  0.5535240000000  0.5927820000000  0.5572990000000 1.0
C      1  0.5559740000000  0.4660910000000  0.5216860000000 1.0
C      1  0.5289410000000  0.4233840000000  0.5064910000000 1.0
C      1  0.4216810000000  0.5721840000000  0.4766110000000 1.0
C      1  0.5131110000000  0.4832370000000  0.5041020000000 1.0
C      1  0.5442450000000  0.4233970000000  0.4788280000000 1.0
C      1  0.5718350000000  0.4876640000000  0.4148570000000 1.0
C      1  0.4822210000000  0.4688990000000  0.4680240000000 1.0
C      1  0.5809220000000  0.4450950000000  0.4510890000000 1.0
C      1  0.5412590000000  0.3978320000000  0.4161200000000 1.0
C      1  0.4987900000000  0.4589670000000  0.5136860000000 1.0
C      1  0.5913780000000  0.5473730000000  0.5480580000000 1.0
C      1  0.5527750000000  0.5104040000000  0.5147180000000 1.0
C      1  0.4110810000000  0.4887280000000  0.5397340000000 1.0
C      1  0.6004060000000  0.4837560000000  0.5082900000000 1.0
C      1  0.5144010000000  0.5898570000000  0.5806740000000 1.0
C      1  0.5113560000000  0.4285790000000  0.5861200000000 1.0
C      1  0.5552080000000  0.5641570000000  0.4383600000000 1.0
C      1  0.5203910000000  0.4063560000000  0.4372330000000 1.0
C      1  0.4619860000000  0.4877120000000  0.5292690000000 1.0
C      1  0.5042310000000  0.4981670000000  0.3861240000000 1.0
C      1  0.4953940000000  0.5410390000000  0.4873160000000 1.0
C      1  0.5201030000000  0.5582730000000  0.4046160000000 1.0
C      1  0.4974390000000  0.5392850000000  0.5550650000000 1.0
C      1  0.4932570000000  0.4361540000000  0.5515050000000 1.0
C      1  0.5696220000000  0.5221570000000  0.5767400000000 1.0
C      1  0.4683360000000  0.4159490000000  0.4324950000000 1.0
C      1  0.5116300000000  0.4843620000000  0.5514220000000 1.0
C      1  0.5709420000000  0.4728360000000  0.5946100000000 1.0
C      1  0.4257260000000  0.5507240000000  0.5748430000000 1.0
C      1  0.4057290000000  0.5347240000000  0.5608550000000 1.0
C      1  0.4537570000000  0.5278140000000  0.4904810000000 1.0
C      1  0.5572930000000  0.5988410000000  0.5081740000000 1.0
C      1  0.4863450000000  0.6018910000000  0.4890040000000 1.0
C      1  0.5618840000000  0.4618210000000  0.4112620000000 1.0
C      1  0.4933630000000  0.5219150000000  0.5813110000000 1.0
C      1  0.5577080000000  0.5718690000000  0.5764520000000 1.0
C      1  0.4909400000000  0.4694530000000  0.5924020000000 1.0
C      1  0.6008310000000  0.4690270000000  0.4836090000000 1.0
C      1  0.5150310000000  0.4704310000000  0.6073620000000 1.0
C      1  0.3955270000000  0.5320990000000  0.4645910000000 1.0
C      1  0.5361400000000  0.4642190000000  0.4001440000000 1.0
C      1  0.4431010000000  0.5729140000000  0.5686860000000 1.0
C      1  0.5861150000000  0.4946720000000  0.4384310000000 1.0
C      1  0.5553850000000  0.4940660000000  0.6041300000000 1.0
C      1  0.4376790000000  0.5226590000000  0.5130360000000 1.0
C      1  0.4537530000000  0.4429820000000  0.5047940000000 1.0
C      1  0.4442930000000  0.5311170000000  0.5863250000000 1.0
C      1  0.5193530000000  0.3760620000000  0.5032120000000 1.0
C      1  0.5895010000000  0.4448930000000  0.4959150000000 1.0
C      1  0.5877640000000  0.4767160000000  0.5709920000000 1.0
C      1  0.4435710000000  0.5114480000000  0.5649850000000 1.0
C      1  0.4531380000000  0.4165050000000  0.5538340000000 1.0
C      1  0.5549740000000  0.5051180000000  0.3994440000000 1.0
C      1  0.4410930000000  0.5839110000000  0.5165010000000 1.0
C      1  0.3870340000000  0.5311670000000  0.4909240000000 1.0
C      1  0.4354980000000  0.4936890000000  0.5158530000000 1.0
C      1  0.5051940000000  0.4011940000000  0.5440140000000 1.0
C      1  0.5613630000000  0.5735230000000  0.4914560000000 1.0
C      1  0.5010450000000  0.5945270000000  0.4656640000000 1.0
C      1  0.5310230000000  0.4005190000000  0.4645730000000 1.0
C      1  0.4699220000000  0.5404140000000  0.5920420000000 1.0
C      1  0.4571260000000  0.4387100000000  0.5727150000000 1.0
C      1  0.4728170000000  0.4191050000000  0.5041640000000 1.0
C      1  0.4978730000000  0.4926490000000  0.4804550000000 1.0
C      1  0.5003710000000  0.4343230000000  0.4973620000000 1.0
C      1  0.4498370000000  0.4859530000000  0.4354470000000 1.0
C      1  0.4484550000000  0.5753490000000  0.4693900000000 1.0
C      1  0.4818390000000  0.5106520000000  0.5216450000000 1.0
C      1  0.5248550000000  0.5925160000000  0.4799270000000 1.0
C      1  0.5684390000000  0.5915270000000  0.5332700000000 1.0
C      1  0.4090660000000  0.4596850000000  0.4899190000000 1.0
C      1  0.3827170000000  0.5038600000000  0.5006780000000 1.0
C      1  0.5316840000000  0.4910140000000  0.3907220000000 1.0
C      1  0.4771320000000  0.5377340000000  0.5335520000000 1.0
C      1  0.4272730000000  0.4134880000000  0.5471970000000 1.0
C      1  0.5123280000000  0.5698870000000  0.5216780000000 1.0
C      1  0.5376370000000  0.4910290000000  0.5605560000000 1.0
C      1  0.4600290000000  0.5105020000000  0.3939000000000 1.0
C      1  0.3929750000000  0.5340270000000  0.5355880000000 1.0
C      1  0.4472210000000  0.4569280000000  0.4290620000000 1.0
C      1  0.5010900000000  0.4998160000000  0.4383440000000 1.0
C      1  0.5323880000000  0.5258750000000  0.4673360000000 1.0
C      1  0.5232730000000  0.4362080000000  0.4353070000000 1.0
C      1  0.5292480000000  0.4481680000000  0.4621500000000 1.0
C      1  0.5158520000000  0.4482610000000  0.4102400000000 1.0
C      1  0.5283280000000  0.5711820000000  0.4284090000000 1.0
C      1  0.5057190000000  0.6130900000000  0.5089580000000 1.0
C      1  0.5612740000000  0.4137530000000  0.4171550000000 1.0
C      1  0.4546070000000  0.4596550000000  0.4799340000000 1.0
C      1  0.5735520000000  0.4313560000000  0.4764840000000 1.0
C      1  0.3889260000000  0.5056870000000  0.5280850000000 1.0
C      1  0.5211140000000  0.3964560000000  0.5204330000000 1.0
C      1  0.4857610000000  0.5590170000000  0.5095300000000 1.0
C      1  0.5056400000000  0.5442000000000  0.4572770000000 1.0
C      1  0.4516300000000  0.4177000000000  0.4559780000000 1.0
C      1  0.5795670000000  0.5562350000000  0.5055430000000 1.0
C      1  0.5255880000000  0.5480860000000  0.6056080000000 1.0
C      1  0.5573450000000  0.4924380000000  0.5399240000000 1.0
C      1  0.4157460000000  0.4367570000000  0.5367380000000 1.0
C      1  0.5088680000000  0.5019100000000  0.5265190000000 1.0
C      1  0.4606540000000  0.4840450000000  0.3861200000000 1.0
C      1  0.4636260000000  0.5824760000000  0.4953660000000 1.0
C      1  0.3875530000000  0.4810570000000  0.4850430000000 1.0
C      1  0.5206110000000  0.5470220000000  0.5398640000000 1.0
C      1  0.4784720000000  0.4823190000000  0.4423690000000 1.0
C      1  0.5048350000000  0.5995650000000  0.5352860000000 1.0
C      1  0.5668550000000  0.4369270000000  0.5670800000000 1.0
C      1  0.4540610000000  0.5608250000000  0.4416420000000 1.0
END
