TITL C-37220-9277-3 0.0657631935550689 125000 -721.42181654172 0 0 105 (C1) n - 1
REM
REM in /rds/project/t2_vol4/rds-t2-cs072/BORA/CARBON/from-Arr/AIRSS/Generating-Clusters/GAP-ML-2020/Only-C1/SD-CG/HFTN-CG
REM
REM
REM
REM
REM
REM ./C.cell (11c1c37f851c82e70ff6c80c92926a4b)
REM AIRSS Version 0.9.1 bugfix July 2018 build 013d7b7c2542+ Fri, 06 Jul 2018 19:26:36 +0100
REM compiler GCC version 9.3.0
REM options -cpp -mtune=generic -march=x86-64 -g -O0
REM seed 746167525 573197463 168880231 1132132160 -1863648954 -159331156 298876861 -1451421067 -1495910100 -1607454682 1008233846 1026726082 1239910471 -1164674374 866934933 663276608 -1210503377 -368434738 759695845 1591599610 -1611474426 -1353542866 1202477995 -1286608874 -734560250 -1026212843 -1447028183 -929633037 1575605650 -1374150705 2138914925 1894870226 165593988
REM
CELL 1.54180   50.00000   50.00000   50.00000   90.00000   90.00000   90.00000
LATT -1
SFAC C  
C      1  0.5868150000000  0.4972500000000  0.4490110000000 1.0
C      1  0.4797290000000  0.5317480000000  0.5435710000000 1.0
C      1  0.4816740000000  0.5052320000000  0.5340150000000 1.0
C      1  0.4862360000000  0.4359290000000  0.4705540000000 1.0
C      1  0.5381710000000  0.4883200000000  0.5623990000000 1.0
C      1  0.4707570000000  0.4579700000000  0.5431480000000 1.0
C      1  0.5377800000000  0.4418640000000  0.5124780000000 1.0
C      1  0.5689160000000  0.5496100000000  0.4954480000000 1.0
C      1  0.4615170000000  0.5786700000000  0.5065270000000 1.0
C      1  0.5292920000000  0.5757620000000  0.5095210000000 1.0
C      1  0.5020670000000  0.5390270000000  0.4287880000000 1.0
C      1  0.4499050000000  0.5540000000000  0.4464210000000 1.0
C      1  0.5612760000000  0.5264940000000  0.5118820000000 1.0
C      1  0.5456490000000  0.5733650000000  0.4634440000000 1.0
C      1  0.5284730000000  0.4525140000000  0.4457720000000 1.0
C      1  0.5002920000000  0.4309550000000  0.5694640000000 1.0
C      1  0.5108790000000  0.4939580000000  0.6098260000000 1.0
C      1  0.5961100000000  0.5015200000000  0.4890880000000 1.0
C      1  0.4414180000000  0.5569990000000  0.4991280000000 1.0
C      1  0.5194370000000  0.4940260000000  0.4795420000000 1.0
C      1  0.4734350000000  0.4313220000000  0.5572390000000 1.0
C      1  0.4304480000000  0.5569890000000  0.4696820000000 1.0
C      1  0.4850860000000  0.4633340000000  0.4186880000000 1.0
C      1  0.5942120000000  0.5197850000000  0.4662160000000 1.0
C      1  0.4877060000000  0.4820440000000  0.5516650000000 1.0
C      1  0.4858270000000  0.5787520000000  0.4888810000000 1.0
C      1  0.5171400000000  0.5585100000000  0.5475010000000 1.0
C      1  0.5159250000000  0.4771400000000  0.5464370000000 1.0
C      1  0.5165830000000  0.4353180000000  0.4654130000000 1.0
C      1  0.4723320000000  0.4242650000000  0.4488250000000 1.0
C      1  0.4151790000000  0.5342260000000  0.4674390000000 1.0
C      1  0.4626760000000  0.4822890000000  0.4199570000000 1.0
C      1  0.5359040000000  0.4624750000000  0.5788410000000 1.0
C      1  0.4941110000000  0.5792120000000  0.4618660000000 1.0
C      1  0.5325170000000  0.5171430000000  0.4713400000000 1.0
C      1  0.5240480000000  0.5550500000000  0.4283980000000 1.0
C      1  0.5706230000000  0.4777980000000  0.5218730000000 1.0
C      1  0.4432340000000  0.4718040000000  0.5484580000000 1.0
C      1  0.5785600000000  0.5037350000000  0.5110980000000 1.0
C      1  0.5806270000000  0.5433500000000  0.4695440000000 1.0
C      1  0.5509550000000  0.5717330000000  0.4921350000000 1.0
C      1  0.4688760000000  0.4416450000000  0.4287470000000 1.0
C      1  0.5107390000000  0.5165260000000  0.5919250000000 1.0
C      1  0.5411240000000  0.4245200000000  0.5382270000000 1.0
C      1  0.4904340000000  0.4276530000000  0.4998320000000 1.0
C      1  0.5164190000000  0.4597730000000  0.5250210000000 1.0
C      1  0.5200370000000  0.5748130000000  0.4509580000000 1.0
C      1  0.4924550000000  0.5540660000000  0.5311320000000 1.0
C      1  0.4756270000000  0.4896810000000  0.5800230000000 1.0
C      1  0.4481720000000  0.4620200000000  0.4350160000000 1.0
C      1  0.5310760000000  0.5161170000000  0.5709160000000 1.0
C      1  0.4989030000000  0.4833130000000  0.4613090000000 1.0
C      1  0.4783770000000  0.4656180000000  0.4724360000000 1.0
C      1  0.4956550000000  0.5154630000000  0.4162290000000 1.0
C      1  0.5093420000000  0.4723060000000  0.4325170000000 1.0
C      1  0.4809100000000  0.5008360000000  0.5061830000000 1.0
C      1  0.5051280000000  0.5600850000000  0.5020810000000 1.0
C      1  0.4617160000000  0.4150470000000  0.5133420000000 1.0
C      1  0.5206150000000  0.4282850000000  0.4921360000000 1.0
C      1  0.4201710000000  0.4734470000000  0.5046990000000 1.0
C      1  0.5101310000000  0.4517280000000  0.5869240000000 1.0
C      1  0.4407030000000  0.5162630000000  0.5621550000000 1.0
C      1  0.4427540000000  0.4293390000000  0.4996740000000 1.0
C      1  0.4289110000000  0.5155790000000  0.4504910000000 1.0
C      1  0.4638940000000  0.4118060000000  0.5405820000000 1.0
C      1  0.4479860000000  0.4676360000000  0.4645840000000 1.0
C      1  0.5478110000000  0.5389600000000  0.4297890000000 1.0
C      1  0.5637410000000  0.4247550000000  0.5560870000000 1.0
C      1  0.5694840000000  0.4620450000000  0.4750320000000 1.0
C      1  0.4237150000000  0.5343420000000  0.5140670000000 1.0
C      1  0.4794320000000  0.4727160000000  0.5002500000000 1.0
C      1  0.5621400000000  0.4898280000000  0.4371910000000 1.0
C      1  0.5441870000000  0.5089940000000  0.4250620000000 1.0
C      1  0.4475600000000  0.5277480000000  0.4329600000000 1.0
C      1  0.4617470000000  0.5125490000000  0.4866350000000 1.0
C      1  0.4945560000000  0.5361240000000  0.4579020000000 1.0
C      1  0.4153770000000  0.4949460000000  0.4876630000000 1.0
C      1  0.5622190000000  0.4757630000000  0.5486870000000 1.0
C      1  0.5182720000000  0.4978150000000  0.4190420000000 1.0
C      1  0.5535670000000  0.4646910000000  0.4502520000000 1.0
C      1  0.5338730000000  0.5230970000000  0.5222750000000 1.0
C      1  0.4749290000000  0.5567850000000  0.4608430000000 1.0
C      1  0.4762310000000  0.5800940000000  0.5315490000000 1.0
C      1  0.4265710000000  0.4850870000000  0.5297450000000 1.0
C      1  0.4893670000000  0.4528930000000  0.5171880000000 1.0
C      1  0.4276830000000  0.5149640000000  0.5356810000000 1.0
C      1  0.4824640000000  0.5179430000000  0.5843700000000 1.0
C      1  0.5311450000000  0.5340100000000  0.5495780000000 1.0
C      1  0.4624120000000  0.5408920000000  0.4856740000000 1.0
C      1  0.4969180000000  0.5960340000000  0.5373400000000 1.0
C      1  0.4342510000000  0.4524520000000  0.4890410000000 1.0
C      1  0.5113000000000  0.5355930000000  0.4822330000000 1.0
C      1  0.5911510000000  0.4792620000000  0.4719710000000 1.0
C      1  0.4670000000000  0.5099750000000  0.4200550000000 1.0
C      1  0.4952610000000  0.4743350000000  0.5983070000000 1.0
C      1  0.5102970000000  0.5122340000000  0.5028860000000 1.0
C      1  0.5235290000000  0.5846550000000  0.5360930000000 1.0
C      1  0.5163240000000  0.4207230000000  0.5495770000000 1.0
C      1  0.5621620000000  0.5532240000000  0.4500610000000 1.0
C      1  0.4394140000000  0.4957850000000  0.4700800000000 1.0
C      1  0.4645860000000  0.5328440000000  0.5678370000000 1.0
C      1  0.4472810000000  0.4899210000000  0.5701410000000 1.0
C      1  0.4092580000000  0.5221660000000  0.4927180000000 1.0
C      1  0.5576170000000  0.4510900000000  0.5627640000000 1.0
C      1  0.5614870000000  0.4576120000000  0.5027100000000 1.0
END
