TITL C-37208-9114-4 77.5681729843642 125000 -539.975773581931 0 0 79 (C1) n - 1
REM
REM in /rds/project/t2_vol4/rds-t2-cs072/BORA/CARBON/from-Arr/AIRSS/Generating-Clusters/GAP-ML-2020/Only-C1/SD-CG/HFTN-CG
REM
REM
REM
REM
REM
REM ./C.cell (11c1c37f851c82e70ff6c80c92926a4b)
REM AIRSS Version 0.9.1 bugfix July 2018 build 013d7b7c2542+ Fri, 06 Jul 2018 19:26:36 +0100
REM compiler GCC version 9.3.0
REM options -cpp -mtune=generic -march=x86-64 -g -O0
REM seed 690914926 -1682749145 2059659598 1404789966 -647636893 1399685213 1470623206 -576633436 1752309118 -1724217330 -1389005837 1496036843 1955113440 185962581 1797310936 537239800 -2024003977 -637300585 954354216 1048067371 391931934 646005085 -1081486135 -472000160 680789055 323056062 -247431767 1455607903 -1591763730 -33612610 -418461501 -505989318 1604411583
REM
CELL 1.54180   50.00000   50.00000   50.00000   90.00000   90.00000   90.00000
LATT -1
SFAC C  
C      1  0.4633530000000  0.5032720000000  0.5215760000000 1.0
C      1  0.5519490000000  0.5301440000000  0.4541700000000 1.0
C      1  0.4304560000000  0.4647890000000  0.4968390000000 1.0
C      1  0.5419220000000  0.5069050000000  0.5594320000000 1.0
C      1  0.5170790000000  0.5682110000000  0.4505820000000 1.0
C      1  0.4783360000000  0.4497010000000  0.4439630000000 1.0
C      1  0.4892140000000  0.4873760000000  0.4784900000000 1.0
C      1  0.5443080000000  0.5198420000000  0.4306810000000 1.0
C      1  0.4880630000000  0.5307760000000  0.4957950000000 1.0
C      1  0.5697600000000  0.4893480000000  0.4775910000000 1.0
C      1  0.4826130000000  0.4823870000000  0.5277130000000 1.0
C      1  0.5410930000000  0.4438390000000  0.4966790000000 1.0
C      1  0.4226780000000  0.5150150000000  0.4847010000000 1.0
C      1  0.5287870000000  0.4417910000000  0.4495680000000 1.0
C      1  0.4675880000000  0.5212130000000  0.5472700000000 1.0
C      1  0.4739080000000  0.4840770000000  0.5791860000000 1.0
C      1  0.4541330000000  0.4712470000000  0.5627340000000 1.0
C      1  0.4851880000000  0.5381520000000  0.4473270000000 1.0
C      1  0.5204390000000  0.5086300000000  0.4239100000000 1.0
C      1  0.4452520000000  0.5093440000000  0.4673230000000 1.0
C      1  0.5144970000000  0.5052980000000  0.5653410000000 1.0
C      1  0.4748110000000  0.5014570000000  0.4276380000000 1.0
C      1  0.4693730000000  0.4391570000000  0.4927210000000 1.0
C      1  0.5562380000000  0.4847450000000  0.5481490000000 1.0
C      1  0.5014500000000  0.4807610000000  0.5736880000000 1.0
C      1  0.5106550000000  0.4330560000000  0.5197340000000 1.0
C      1  0.5314960000000  0.5487060000000  0.4664510000000 1.0
C      1  0.4522210000000  0.4501940000000  0.5415630000000 1.0
C      1  0.4939730000000  0.4585050000000  0.4823100000000 1.0
C      1  0.4893940000000  0.5678040000000  0.4544800000000 1.0
C      1  0.5723400000000  0.4784350000000  0.5046020000000 1.0
C      1  0.4735770000000  0.4478940000000  0.5588150000000 1.0
C      1  0.4363960000000  0.4606820000000  0.4688860000000 1.0
C      1  0.4979920000000  0.5259580000000  0.5502710000000 1.0
C      1  0.4791790000000  0.5671010000000  0.5449650000000 1.0
C      1  0.4321360000000  0.5069900000000  0.5216590000000 1.0
C      1  0.4828750000000  0.5758310000000  0.4809460000000 1.0
C      1  0.5513580000000  0.5581320000000  0.5559730000000 1.0
C      1  0.5486390000000  0.4456530000000  0.4698100000000 1.0
C      1  0.4607570000000  0.5203690000000  0.4452990000000 1.0
C      1  0.5018070000000  0.4538810000000  0.5622830000000 1.0
C      1  0.5676210000000  0.5181170000000  0.4752370000000 1.0
C      1  0.5020820000000  0.5780570000000  0.5037550000000 1.0
C      1  0.5137470000000  0.5023780000000  0.4775630000000 1.0
C      1  0.5591650000000  0.4548280000000  0.5147180000000 1.0
C      1  0.4957340000000  0.5221360000000  0.4245930000000 1.0
C      1  0.5575960000000  0.4708090000000  0.4594720000000 1.0
C      1  0.5469320000000  0.4583380000000  0.5405050000000 1.0
C      1  0.5639240000000  0.5348020000000  0.4984220000000 1.0
C      1  0.5051080000000  0.5303960000000  0.4707230000000 1.0
C      1  0.5532370000000  0.5314680000000  0.5477310000000 1.0
C      1  0.5091900000000  0.4815380000000  0.5185810000000 1.0
C      1  0.4867470000000  0.4743370000000  0.4298810000000 1.0
C      1  0.4920190000000  0.4185130000000  0.5009640000000 1.0
C      1  0.5221680000000  0.5583770000000  0.5134270000000 1.0
C      1  0.4289330000000  0.5323080000000  0.5074550000000 1.0
C      1  0.5191350000000  0.5044800000000  0.5064640000000 1.0
C      1  0.5145740000000  0.4563270000000  0.5027970000000 1.0
C      1  0.5008200000000  0.4144820000000  0.4756000000000 1.0
C      1  0.4805220000000  0.5835110000000  0.5223850000000 1.0
C      1  0.4567830000000  0.5009170000000  0.5673480000000 1.0
C      1  0.5720410000000  0.4957810000000  0.5267260000000 1.0
C      1  0.5276760000000  0.5626490000000  0.5431880000000 1.0
C      1  0.5021840000000  0.5549950000000  0.5549560000000 1.0
C      1  0.4449590000000  0.5537260000000  0.5149930000000 1.0
C      1  0.4615880000000  0.5742630000000  0.5015950000000 1.0
C      1  0.4373790000000  0.4841590000000  0.4557980000000 1.0
C      1  0.4205010000000  0.4907480000000  0.5012600000000 1.0
C      1  0.4579800000000  0.5484940000000  0.5407740000000 1.0
C      1  0.5070330000000  0.5285950000000  0.5178790000000 1.0
C      1  0.5683060000000  0.5236910000000  0.5243150000000 1.0
C      1  0.5217890000000  0.4431200000000  0.5451720000000 1.0
C      1  0.5154780000000  0.4805180000000  0.4263010000000 1.0
C      1  0.5373340000000  0.4661040000000  0.4376690000000 1.0
C      1  0.4705780000000  0.5069420000000  0.4922800000000 1.0
C      1  0.5019200000000  0.4372270000000  0.4577060000000 1.0
C      1  0.4580530000000  0.4436770000000  0.4644500000000 1.0
C      1  0.4491450000000  0.4493450000000  0.5126140000000 1.0
C      1  0.5427350000000  0.5531780000000  0.4935930000000 1.0
END
