TITL C-37205-9132-4 183.876680383032 125000 -483.608883835891 0 0 70 (C1) n - 1
REM
REM in /rds/project/t2_vol4/rds-t2-cs072/BORA/CARBON/from-Arr/AIRSS/Generating-Clusters/GAP-ML-2020/Only-C1/SD-CG/HFTN-CG
REM
REM
REM
REM
REM
REM ./C.cell (11c1c37f851c82e70ff6c80c92926a4b)
REM AIRSS Version 0.9.1 bugfix July 2018 build 013d7b7c2542+ Fri, 06 Jul 2018 19:26:36 +0100
REM compiler GCC version 9.3.0
REM options -cpp -mtune=generic -march=x86-64 -g -O0
REM seed 1813669858 -1945598064 1217346463 -2076215067 -126504349 -1467499371 -1902317756 -407226517 -2108027452 1641842308 1580489659 328647371 585055787 1514337814 1864665328 1392731147 -1668574203 -1264846691 -1768113892 110331381 -450097998 624473447 -569700247 -1389422197 50928691 854674834 -1733662768 1204888999 -1710454277 1824487168 -1641924453 -1561975470 -23109266
REM
CELL 1.54180   50.00000   50.00000   50.00000   90.00000   90.00000   90.00000
LATT -1
SFAC C  
C      1  0.4796190000000  0.5207250000000  0.4755650000000 1.0
C      1  0.4578280000000  0.5456990000000  0.4456280000000 1.0
C      1  0.4887430000000  0.4497310000000  0.4471660000000 1.0
C      1  0.4799970000000  0.5186740000000  0.5242380000000 1.0
C      1  0.5104760000000  0.4306380000000  0.4897470000000 1.0
C      1  0.5271980000000  0.5589520000000  0.4696660000000 1.0
C      1  0.5300090000000  0.5402620000000  0.4476860000000 1.0
C      1  0.5483030000000  0.5609580000000  0.4878340000000 1.0
C      1  0.5500550000000  0.4537460000000  0.5065920000000 1.0
C      1  0.5551220000000  0.5136360000000  0.5482900000000 1.0
C      1  0.4642400000000  0.4265250000000  0.5158880000000 1.0
C      1  0.5673450000000  0.4912790000000  0.5343640000000 1.0
C      1  0.4612460000000  0.4938780000000  0.4384950000000 1.0
C      1  0.4576770000000  0.5221760000000  0.5469070000000 1.0
C      1  0.5698540000000  0.4920330000000  0.4847190000000 1.0
C      1  0.5350370000000  0.4667620000000  0.4609200000000 1.0
C      1  0.4480680000000  0.4408540000000  0.4958150000000 1.0
C      1  0.4475390000000  0.4694750000000  0.5041440000000 1.0
C      1  0.5187180000000  0.4406950000000  0.5378440000000 1.0
C      1  0.5173770000000  0.5420590000000  0.5446100000000 1.0
C      1  0.4424760000000  0.5494710000000  0.4674760000000 1.0
C      1  0.5777680000000  0.5013680000000  0.5103330000000 1.0
C      1  0.5043520000000  0.5392050000000  0.4374940000000 1.0
C      1  0.4452960000000  0.5457310000000  0.4959610000000 1.0
C      1  0.4389900000000  0.4783250000000  0.5313290000000 1.0
C      1  0.5452410000000  0.5153590000000  0.4489480000000 1.0
C      1  0.5107110000000  0.4512040000000  0.4677460000000 1.0
C      1  0.4782610000000  0.4681330000000  0.5141370000000 1.0
C      1  0.5288510000000  0.4356300000000  0.5107190000000 1.0
C      1  0.5641930000000  0.5157890000000  0.4695390000000 1.0
C      1  0.5317800000000  0.4898840000000  0.4434160000000 1.0
C      1  0.4972870000000  0.4685680000000  0.4913980000000 1.0
C      1  0.4922880000000  0.5535510000000  0.5523300000000 1.0
C      1  0.4364820000000  0.5067760000000  0.5322820000000 1.0
C      1  0.5548010000000  0.4677000000000  0.4817070000000 1.0
C      1  0.4842400000000  0.4214350000000  0.4954440000000 1.0
C      1  0.4638780000000  0.5235760000000  0.5002460000000 1.0
C      1  0.4562190000000  0.5014940000000  0.4649810000000 1.0
C      1  0.4926290000000  0.4921900000000  0.5264700000000 1.0
C      1  0.4663580000000  0.5502660000000  0.5418640000000 1.0
C      1  0.5063890000000  0.4924370000000  0.4295560000000 1.0
C      1  0.5063120000000  0.5174360000000  0.4896720000000 1.0
C      1  0.4652370000000  0.4306480000000  0.4748420000000 1.0
C      1  0.5525730000000  0.4681540000000  0.5320680000000 1.0
C      1  0.5642160000000  0.5381430000000  0.5359140000000 1.0
C      1  0.4913730000000  0.5615170000000  0.5036230000000 1.0
C      1  0.4652820000000  0.5198810000000  0.4279130000000 1.0
C      1  0.4949500000000  0.4358020000000  0.5487670000000 1.0
C      1  0.4997140000000  0.5642760000000  0.4763160000000 1.0
C      1  0.4936230000000  0.5183800000000  0.4231660000000 1.0
C      1  0.5279610000000  0.5147670000000  0.5542510000000 1.0
C      1  0.5097180000000  0.4923260000000  0.5007070000000 1.0
C      1  0.5116430000000  0.4900850000000  0.5538160000000 1.0
C      1  0.5029510000000  0.5363880000000  0.5150250000000 1.0
C      1  0.5769860000000  0.5301070000000  0.5116720000000 1.0
C      1  0.4847590000000  0.5477220000000  0.4578200000000 1.0
C      1  0.4359110000000  0.5145890000000  0.5050690000000 1.0
C      1  0.5429060000000  0.5567770000000  0.5355320000000 1.0
C      1  0.4697870000000  0.4294180000000  0.4483170000000 1.0
C      1  0.4633110000000  0.4793380000000  0.5705990000000 1.0
C      1  0.4844920000000  0.4754620000000  0.4350670000000 1.0
C      1  0.4409810000000  0.4928150000000  0.4873200000000 1.0
C      1  0.4711770000000  0.4442940000000  0.5373420000000 1.0
C      1  0.5299300000000  0.4651730000000  0.5481460000000 1.0
C      1  0.4519590000000  0.4627370000000  0.5509370000000 1.0
C      1  0.4667300000000  0.5068420000000  0.5699090000000 1.0
C      1  0.4636270000000  0.5596500000000  0.5139640000000 1.0
C      1  0.5424510000000  0.5714520000000  0.5128770000000 1.0
C      1  0.4890740000000  0.4898920000000  0.5731940000000 1.0
C      1  0.5674270000000  0.5390810000000  0.4866610000000 1.0
END
