TITL C-37206-9424-3 57.0763344521938 125000 -438.575795388715 0 0 65 (C1) n - 1
REM
REM in /rds/project/t2_vol4/rds-t2-cs072/BORA/CARBON/from-Arr/AIRSS/Generating-Clusters/GAP-ML-2020/Only-C1/SD-CG/HFTN-CG
REM
REM
REM
REM
REM
REM ./C.cell (11c1c37f851c82e70ff6c80c92926a4b)
REM AIRSS Version 0.9.1 bugfix July 2018 build 013d7b7c2542+ Fri, 06 Jul 2018 19:26:36 +0100
REM compiler GCC version 9.3.0
REM options -cpp -mtune=generic -march=x86-64 -g -O0
REM seed 1419282381 539733253 -970271902 -481530131 1090646827 1350953952 -1257450636 2115909380 715426705 -694365471 -1557410485 2136455311 -717586891 1911325021 729827495 -712486213 -1498132168 -707711469 -964063852 -91981272 618936514 1679181826 1473019637 1009100075 -1758955030 -1213046941 11171046 -204214040 -754827455 -470191409 -1353066521 -916127772 24316065
REM
CELL 1.54180   50.00000   50.00000   50.00000   90.00000   90.00000   90.00000
LATT -1
SFAC C  
C      1  0.5749560000000  0.5102980000000  0.5304400000000 1.0
C      1  0.5088140000000  0.5348200000000  0.5599960000000 1.0
C      1  0.5243420000000  0.5383020000000  0.4533230000000 1.0
C      1  0.5339030000000  0.5188230000000  0.5547550000000 1.0
C      1  0.5093160000000  0.4755690000000  0.5599440000000 1.0
C      1  0.4955260000000  0.5570130000000  0.5445260000000 1.0
C      1  0.4759370000000  0.5615910000000  0.4722570000000 1.0
C      1  0.5110820000000  0.4401810000000  0.4576490000000 1.0
C      1  0.5081310000000  0.4776190000000  0.4235830000000 1.0
C      1  0.4528400000000  0.5539130000000  0.4897730000000 1.0
C      1  0.5048380000000  0.5698180000000  0.5216660000000 1.0
C      1  0.5035020000000  0.5332120000000  0.4355270000000 1.0
C      1  0.5094960000000  0.5065940000000  0.4238750000000 1.0
C      1  0.4619640000000  0.5299680000000  0.5550590000000 1.0
C      1  0.4541980000000  0.4467490000000  0.5286060000000 1.0
C      1  0.4771450000000  0.4645000000000  0.5259140000000 1.0
C      1  0.4464970000000  0.4380400000000  0.4883180000000 1.0
C      1  0.4994440000000  0.4950960000000  0.4666890000000 1.0
C      1  0.5307980000000  0.4581270000000  0.4715390000000 1.0
C      1  0.4878490000000  0.4933860000000  0.5615060000000 1.0
C      1  0.5523110000000  0.5496580000000  0.5170280000000 1.0
C      1  0.4294300000000  0.4870720000000  0.5071700000000 1.0
C      1  0.5326190000000  0.5705020000000  0.5141630000000 1.0
C      1  0.4304470000000  0.4630240000000  0.5210440000000 1.0
C      1  0.4726770000000  0.4944330000000  0.4531080000000 1.0
C      1  0.5406100000000  0.5552520000000  0.4696710000000 1.0
C      1  0.4617430000000  0.4262180000000  0.5107300000000 1.0
C      1  0.4787730000000  0.5414780000000  0.4505630000000 1.0
C      1  0.4538440000000  0.5104360000000  0.5361740000000 1.0
C      1  0.5450440000000  0.4783550000000  0.4546460000000 1.0
C      1  0.5205750000000  0.4931440000000  0.5067830000000 1.0
C      1  0.5497300000000  0.4717070000000  0.5388970000000 1.0
C      1  0.4627290000000  0.5245550000000  0.4876410000000 1.0
C      1  0.5666600000000  0.4756220000000  0.4956930000000 1.0
C      1  0.5693730000000  0.4853320000000  0.5228130000000 1.0
C      1  0.4945620000000  0.4575080000000  0.4396420000000 1.0
C      1  0.5140330000000  0.4371370000000  0.5253040000000 1.0
C      1  0.5486890000000  0.4540390000000  0.4953420000000 1.0
C      1  0.5320650000000  0.4888280000000  0.4321390000000 1.0
C      1  0.4936470000000  0.4297920000000  0.5027630000000 1.0
C      1  0.4971890000000  0.5617210000000  0.4930050000000 1.0
C      1  0.5385440000000  0.4501710000000  0.5217700000000 1.0
C      1  0.5010460000000  0.4227370000000  0.4762780000000 1.0
C      1  0.5141000000000  0.5192000000000  0.4729850000000 1.0
C      1  0.5078040000000  0.4757280000000  0.4869260000000 1.0
C      1  0.4766940000000  0.4931860000000  0.5340090000000 1.0
C      1  0.5386160000000  0.5116460000000  0.4879530000000 1.0
C      1  0.5525020000000  0.5385370000000  0.4903300000000 1.0
C      1  0.4660350000000  0.5550640000000  0.5430800000000 1.0
C      1  0.4315500000000  0.4624440000000  0.4922990000000 1.0
C      1  0.4504090000000  0.5606320000000  0.5193480000000 1.0
C      1  0.4625510000000  0.5197750000000  0.4585040000000 1.0
C      1  0.5245660000000  0.5706380000000  0.4860550000000 1.0
C      1  0.4856770000000  0.4594090000000  0.4967340000000 1.0
C      1  0.4418030000000  0.5140690000000  0.5095170000000 1.0
C      1  0.4317250000000  0.5436610000000  0.5076430000000 1.0
C      1  0.5005740000000  0.4547330000000  0.5420320000000 1.0
C      1  0.5555430000000  0.5288460000000  0.5379530000000 1.0
C      1  0.4988120000000  0.5086760000000  0.5158460000000 1.0
C      1  0.4691740000000  0.4664940000000  0.4505850000000 1.0
C      1  0.4640760000000  0.4558520000000  0.4763700000000 1.0
C      1  0.4931010000000  0.5273200000000  0.4944140000000 1.0
C      1  0.4864480000000  0.5199310000000  0.5685650000000 1.0
C      1  0.5576090000000  0.4929740000000  0.4751390000000 1.0
C      1  0.5337130000000  0.4888440000000  0.5564000000000 1.0
END
