TITL C-37208-9114-2 0.20062116754052 125000 -461.723992461522 0 0 69 (C1) n - 1
REM
REM in /rds/project/t2_vol4/rds-t2-cs072/BORA/CARBON/from-Arr/AIRSS/Generating-Clusters/GAP-ML-2020/Only-C1/SD-CG/HFTN-CG
REM
REM
REM
REM
REM
REM ./C.cell (11c1c37f851c82e70ff6c80c92926a4b)
REM AIRSS Version 0.9.1 bugfix July 2018 build 013d7b7c2542+ Fri, 06 Jul 2018 19:26:36 +0100
REM compiler GCC version 9.3.0
REM options -cpp -mtune=generic -march=x86-64 -g -O0
REM seed 1379673909 574762335 -149305325 2049635713 -1597779427 -1148810695 858887235 150300579 -2095107087 356882464 638172598 -1564431249 -1685066925 953722713 -1296400799 1552701460 1160153346 -521089321 465792905 1629863952 -884828340 1436257970 -537094964 661342953 -179274518 1979084860 379706976 -814406518 -1736182450 -618159572 1330626136 90109331 1194354057
REM
CELL 1.54180   50.00000   50.00000   50.00000   90.00000   90.00000   90.00000
LATT -1
SFAC C  
C      1  0.4664760000000  0.4275830000000  0.4812940000000 1.0
C      1  0.4723600000000  0.5634610000000  0.5367240000000 1.0
C      1  0.5242720000000  0.5513730000000  0.5413030000000 1.0
C      1  0.5381940000000  0.5286170000000  0.4457150000000 1.0
C      1  0.5098510000000  0.5469330000000  0.5663710000000 1.0
C      1  0.4873400000000  0.4705380000000  0.4735900000000 1.0
C      1  0.5075160000000  0.5350050000000  0.4941610000000 1.0
C      1  0.5142290000000  0.4240950000000  0.4605340000000 1.0
C      1  0.4783700000000  0.5338350000000  0.4890880000000 1.0
C      1  0.5492260000000  0.5471520000000  0.5241670000000 1.0
C      1  0.5368970000000  0.4323130000000  0.5099410000000 1.0
C      1  0.4460910000000  0.5003150000000  0.5171130000000 1.0
C      1  0.5675210000000  0.4745940000000  0.5179770000000 1.0
C      1  0.4660780000000  0.5374200000000  0.4609220000000 1.0
C      1  0.4378330000000  0.4752650000000  0.4713320000000 1.0
C      1  0.5230480000000  0.4811940000000  0.5377510000000 1.0
C      1  0.5418100000000  0.4775410000000  0.4486360000000 1.0
C      1  0.4661220000000  0.5611890000000  0.4826460000000 1.0
C      1  0.5394220000000  0.4920210000000  0.4915590000000 1.0
C      1  0.4830980000000  0.4302850000000  0.5045390000000 1.0
C      1  0.4906330000000  0.5062960000000  0.5748010000000 1.0
C      1  0.5190020000000  0.5617860000000  0.4837560000000 1.0
C      1  0.4839700000000  0.4244350000000  0.4589580000000 1.0
C      1  0.5613550000000  0.5227310000000  0.5211580000000 1.0
C      1  0.4299100000000  0.4841840000000  0.4975050000000 1.0
C      1  0.4812620000000  0.5510150000000  0.5609860000000 1.0
C      1  0.5799000000000  0.5161130000000  0.4998050000000 1.0
C      1  0.5022370000000  0.4721490000000  0.5136770000000 1.0
C      1  0.4923630000000  0.4921410000000  0.4933620000000 1.0
C      1  0.5374410000000  0.5684800000000  0.5062040000000 1.0
C      1  0.5458150000000  0.4948970000000  0.5217650000000 1.0
C      1  0.5108750000000  0.5355420000000  0.4399970000000 1.0
C      1  0.5005670000000  0.4513260000000  0.4921240000000 1.0
C      1  0.4909810000000  0.5748000000000  0.4911930000000 1.0
C      1  0.4722740000000  0.5102450000000  0.5060810000000 1.0
C      1  0.5536900000000  0.5047570000000  0.4518520000000 1.0
C      1  0.4447440000000  0.5613250000000  0.5003440000000 1.0
C      1  0.4915340000000  0.5776080000000  0.5193130000000 1.0
C      1  0.4804460000000  0.4662070000000  0.5364170000000 1.0
C      1  0.4482530000000  0.5521250000000  0.5258520000000 1.0
C      1  0.4884810000000  0.5154310000000  0.5312770000000 1.0
C      1  0.4839060000000  0.5245750000000  0.4410880000000 1.0
C      1  0.5335050000000  0.4543280000000  0.5437020000000 1.0
C      1  0.4906990000000  0.4721960000000  0.4433890000000 1.0
C      1  0.4744640000000  0.4967680000000  0.4389900000000 1.0
C      1  0.5113750000000  0.5231720000000  0.5808250000000 1.0
C      1  0.4429470000000  0.5221370000000  0.5621350000000 1.0
C      1  0.5155320000000  0.4379980000000  0.4351940000000 1.0
C      1  0.5258340000000  0.4407880000000  0.4827070000000 1.0
C      1  0.4535570000000  0.4729170000000  0.5292540000000 1.0
C      1  0.4445240000000  0.5199000000000  0.4601510000000 1.0
C      1  0.5648910000000  0.5031100000000  0.4788960000000 1.0
C      1  0.4484930000000  0.4943700000000  0.4525990000000 1.0
C      1  0.5264320000000  0.5523490000000  0.4562490000000 1.0
C      1  0.5170830000000  0.4338520000000  0.5331160000000 1.0
C      1  0.5187720000000  0.5763860000000  0.5270250000000 1.0
C      1  0.5547140000000  0.4505020000000  0.5228630000000 1.0
C      1  0.4958590000000  0.4912540000000  0.5496610000000 1.0
C      1  0.5087700000000  0.5323450000000  0.5226950000000 1.0
C      1  0.5399320000000  0.4663620000000  0.4741970000000 1.0
C      1  0.5202570000000  0.4658440000000  0.4348980000000 1.0
C      1  0.4682860000000  0.5273680000000  0.5707030000000 1.0
C      1  0.5833270000000  0.4886690000000  0.4965240000000 1.0
C      1  0.4889100000000  0.4368870000000  0.5319000000000 1.0
C      1  0.4391260000000  0.4583750000000  0.5090680000000 1.0
C      1  0.5152770000000  0.5079840000000  0.4862580000000 1.0
C      1  0.4464560000000  0.4483440000000  0.4822190000000 1.0
C      1  0.4398350000000  0.5245910000000  0.5349060000000 1.0
C      1  0.4857520000000  0.4423050000000  0.4369970000000 1.0
END
