TITL C-37202-9180-6 -0.0165501053325044 125000 -506.736138789335 0 0 74 (C1) n - 1
REM
REM in /rds/project/t2_vol4/rds-t2-cs072/BORA/CARBON/from-Arr/AIRSS/Generating-Clusters/GAP-ML-2020/Only-C1/SD-CG/HFTN-CG
REM
REM
REM
REM
REM
REM ./C.cell (11c1c37f851c82e70ff6c80c92926a4b)
REM AIRSS Version 0.9.1 bugfix July 2018 build 013d7b7c2542+ Fri, 06 Jul 2018 19:26:36 +0100
REM compiler GCC version 9.3.0
REM options -cpp -mtune=generic -march=x86-64 -g -O0
REM seed 2023658013 -573635468 -615011291 606277239 -1507095135 -2085816720 -4554605 -2060579880 1498973973 -2081229961 -1568063389 2048078822 1455748814 1943879357 2103397885 -1375261944 506419292 1844586398 144688554 63503440 -135092782 1746928428 -231963477 36575202 -1557148181 -1312466964 -642000075 161471095 1185792404 1115389596 1250061712 -597266132 120850479
REM
CELL 1.54180   50.00000   50.00000   50.00000   90.00000   90.00000   90.00000
LATT -1
SFAC C  
C      1  0.4472880000000  0.5271740000000  0.4648180000000 1.0
C      1  0.4519720000000  0.5595240000000  0.4995580000000 1.0
C      1  0.5540730000000  0.4509760000000  0.4606810000000 1.0
C      1  0.5523570000000  0.4797490000000  0.5274160000000 1.0
C      1  0.4591290000000  0.5637770000000  0.5273120000000 1.0
C      1  0.5070350000000  0.4117010000000  0.5186470000000 1.0
C      1  0.5637770000000  0.4778600000000  0.4543800000000 1.0
C      1  0.5241460000000  0.4472730000000  0.5435760000000 1.0
C      1  0.5244790000000  0.5679140000000  0.5218890000000 1.0
C      1  0.4586680000000  0.4382300000000  0.5099560000000 1.0
C      1  0.4942500000000  0.5246490000000  0.5668570000000 1.0
C      1  0.4734250000000  0.4509640000000  0.5310320000000 1.0
C      1  0.5297000000000  0.4557990000000  0.4441200000000 1.0
C      1  0.5210750000000  0.5072980000000  0.4380670000000 1.0
C      1  0.5571830000000  0.5100290000000  0.5289400000000 1.0
C      1  0.5850780000000  0.5135240000000  0.5178640000000 1.0
C      1  0.4981930000000  0.4913970000000  0.5340170000000 1.0
C      1  0.5129340000000  0.5605140000000  0.5464450000000 1.0
C      1  0.5485770000000  0.5146370000000  0.4787230000000 1.0
C      1  0.4677340000000  0.5660980000000  0.4761480000000 1.0
C      1  0.5410830000000  0.5613030000000  0.4752140000000 1.0
C      1  0.4586260000000  0.4737940000000  0.5390450000000 1.0
C      1  0.5389340000000  0.4834800000000  0.4392220000000 1.0
C      1  0.4757670000000  0.4886920000000  0.4927080000000 1.0
C      1  0.4422620000000  0.5310630000000  0.4942220000000 1.0
C      1  0.4728920000000  0.5424260000000  0.5608930000000 1.0
C      1  0.4370320000000  0.5016190000000  0.5600060000000 1.0
C      1  0.5019600000000  0.4613260000000  0.5287680000000 1.0
C      1  0.5055580000000  0.4914780000000  0.4895000000000 1.0
C      1  0.5036630000000  0.4498240000000  0.4525860000000 1.0
C      1  0.5420010000000  0.4686540000000  0.5515100000000 1.0
C      1  0.5441280000000  0.4666020000000  0.5032220000000 1.0
C      1  0.5898760000000  0.5027160000000  0.4947600000000 1.0
C      1  0.5545580000000  0.4443050000000  0.4888950000000 1.0
C      1  0.4641490000000  0.5474980000000  0.4547420000000 1.0
C      1  0.4518050000000  0.5374650000000  0.5399610000000 1.0
C      1  0.5113640000000  0.5532040000000  0.4394440000000 1.0
C      1  0.4251830000000  0.4860680000000  0.4960070000000 1.0
C      1  0.5325190000000  0.5343820000000  0.4381550000000 1.0
C      1  0.5403690000000  0.5538220000000  0.5036620000000 1.0
C      1  0.5118730000000  0.5113580000000  0.5119290000000 1.0
C      1  0.5492740000000  0.5384500000000  0.4607450000000 1.0
C      1  0.4788100000000  0.4640380000000  0.4467070000000 1.0
C      1  0.4139750000000  0.4601120000000  0.5024120000000 1.0
C      1  0.4293380000000  0.5184890000000  0.5392780000000 1.0
C      1  0.4713950000000  0.4383040000000  0.4844170000000 1.0
C      1  0.4596470000000  0.4566300000000  0.4660680000000 1.0
C      1  0.4950350000000  0.5738930000000  0.4801200000000 1.0
C      1  0.5163690000000  0.5706670000000  0.4618790000000 1.0
C      1  0.4917510000000  0.5110590000000  0.4320040000000 1.0
C      1  0.4663900000000  0.5218750000000  0.5146450000000 1.0
C      1  0.5199090000000  0.5350800000000  0.5589370000000 1.0
C      1  0.4305590000000  0.4410640000000  0.5078930000000 1.0
C      1  0.5374230000000  0.4911620000000  0.5673590000000 1.0
C      1  0.4929690000000  0.5332540000000  0.5115490000000 1.0
C      1  0.5307500000000  0.4245420000000  0.5287280000000 1.0
C      1  0.5005920000000  0.4388970000000  0.4804700000000 1.0
C      1  0.5422460000000  0.4226260000000  0.5017360000000 1.0
C      1  0.4606380000000  0.4887610000000  0.5631900000000 1.0
C      1  0.5152760000000  0.4160030000000  0.4919810000000 1.0
C      1  0.5246180000000  0.5010010000000  0.4680130000000 1.0
C      1  0.5411670000000  0.5231780000000  0.5071890000000 1.0
C      1  0.4247190000000  0.5120400000000  0.5092260000000 1.0
C      1  0.5722230000000  0.4969380000000  0.4736670000000 1.0
C      1  0.4883250000000  0.4979840000000  0.5617770000000 1.0
C      1  0.5136800000000  0.4638010000000  0.5002370000000 1.0
C      1  0.5030300000000  0.5620430000000  0.5044840000000 1.0
C      1  0.4714980000000  0.4932610000000  0.5202550000000 1.0
C      1  0.4828540000000  0.5649550000000  0.5466660000000 1.0
C      1  0.5415230000000  0.5159490000000  0.5556230000000 1.0
C      1  0.4862560000000  0.5390540000000  0.4374950000000 1.0
C      1  0.4482540000000  0.4823410000000  0.4767400000000 1.0
C      1  0.4725020000000  0.4914490000000  0.4389160000000 1.0
C      1  0.4503320000000  0.5009350000000  0.4546990000000 1.0
END
