TITL C-37218-9329-6 -0.00544967812162238 125000 -130.866111211522 0 0 21 (C1) n - 1
REM
REM in /rds/project/t2_vol4/rds-t2-cs072/BORA/CARBON/from-Arr/AIRSS/Generating-Clusters/GAP-ML-2020/Only-C1/SD-CG/HFTN-CG
REM
REM
REM
REM
REM
REM ./C.cell (11c1c37f851c82e70ff6c80c92926a4b)
REM AIRSS Version 0.9.1 bugfix July 2018 build 013d7b7c2542+ Fri, 06 Jul 2018 19:26:36 +0100
REM compiler GCC version 9.3.0
REM options -cpp -mtune=generic -march=x86-64 -g -O0
REM seed -670811592 -235154981 -1613999254 -1125673690 163528553 -1960241929 554764359 1034126190 -1830374273 163097931 684782527 -827890889 740161862 1503906861 -2066656758 -787026875 1842041177 1235986611 969769926 1545668418 1733614276 -570890633 626202873 -318882672 1413399864 -912354393 355275509 1714260519 1747970096 -2098737557 -1197636661 1347406624 -2110177974
REM
CELL 1.54180   50.00000   50.00000   50.00000   90.00000   90.00000   90.00000
LATT -1
SFAC C  
C      1  0.5449560000000  0.4619930000000  0.5097600000000 1.0
C      1  0.5051970000000  0.5590320000000  0.4681570000000 1.0
C      1  0.4822180000000  0.4697740000000  0.4419490000000 1.0
C      1  0.5031980000000  0.5050130000000  0.5463280000000 1.0
C      1  0.4908500000000  0.5352600000000  0.5089770000000 1.0
C      1  0.5096110000000  0.5363400000000  0.4546190000000 1.0
C      1  0.4721130000000  0.4732830000000  0.5244750000000 1.0
C      1  0.4987250000000  0.4833460000000  0.5263850000000 1.0
C      1  0.5227160000000  0.5062120000000  0.4881470000000 1.0
C      1  0.5343700000000  0.4817790000000  0.4955140000000 1.0
C      1  0.4645830000000  0.4611120000000  0.5011980000000 1.0
C      1  0.4576950000000  0.4909960000000  0.5434120000000 1.0
C      1  0.4579810000000  0.4493300000000  0.4798930000000 1.0
C      1  0.5309000000000  0.5306760000000  0.5044350000000 1.0
C      1  0.5119640000000  0.5091780000000  0.4613310000000 1.0
C      1  0.5126410000000  0.5238280000000  0.5271410000000 1.0
C      1  0.5203920000000  0.4690190000000  0.5168600000000 1.0
C      1  0.5098290000000  0.5487510000000  0.4927940000000 1.0
C      1  0.4989110000000  0.5068520000000  0.5066740000000 1.0
C      1  0.4963210000000  0.4885120000000  0.4513480000000 1.0
C      1  0.4748300000000  0.5097130000000  0.5506020000000 1.0
END
