TITL C-37214-9158-8 -0.0760914482171012 125000 -295.045976150627 0 0 44 (C1) n - 1
REM
REM in /rds/project/t2_vol4/rds-t2-cs072/BORA/CARBON/from-Arr/AIRSS/Generating-Clusters/GAP-ML-2020/Only-C1/SD-CG/HFTN-CG
REM
REM
REM
REM
REM
REM ./C.cell (11c1c37f851c82e70ff6c80c92926a4b)
REM AIRSS Version 0.9.1 bugfix July 2018 build 013d7b7c2542+ Fri, 06 Jul 2018 19:26:36 +0100
REM compiler GCC version 9.3.0
REM options -cpp -mtune=generic -march=x86-64 -g -O0
REM seed 917529190 1704148437 -1439847419 1276340199 1230219871 394950244 -1293123909 -1198988834 -233264927 -1190623650 -495774408 665074484 1420019841 1293733185 1684556221 1420088542 592347204 -1249072423 233937825 1358698302 -2135715392 -2138039399 -1886618823 -1058675214 -1229464407 646900310 -939769882 -849260169 419106954 477812964 -48613794 -1894263077 -218703988
REM
CELL 1.54180   50.00000   50.00000   50.00000   90.00000   90.00000   90.00000
LATT -1
SFAC C  
C      1  0.4927340000000  0.4784450000000  0.4708390000000 1.0
C      1  0.4321970000000  0.4791400000000  0.5003680000000 1.0
C      1  0.5167610000000  0.4423480000000  0.4886660000000 1.0
C      1  0.4486120000000  0.4834120000000  0.5392490000000 1.0
C      1  0.5381390000000  0.5502260000000  0.5168170000000 1.0
C      1  0.4850710000000  0.4268370000000  0.5116180000000 1.0
C      1  0.4922220000000  0.4960960000000  0.5387840000000 1.0
C      1  0.5245540000000  0.5340950000000  0.5378430000000 1.0
C      1  0.5222160000000  0.5068450000000  0.4543960000000 1.0
C      1  0.5609270000000  0.5281750000000  0.4771390000000 1.0
C      1  0.5124790000000  0.4358100000000  0.5182880000000 1.0
C      1  0.5498460000000  0.5294420000000  0.5026840000000 1.0
C      1  0.4658280000000  0.5052000000000  0.5341670000000 1.0
C      1  0.5593070000000  0.4782160000000  0.5194600000000 1.0
C      1  0.5752490000000  0.4841280000000  0.4999440000000 1.0
C      1  0.4477720000000  0.5242780000000  0.4898010000000 1.0
C      1  0.5260780000000  0.5111250000000  0.5007600000000 1.0
C      1  0.5163840000000  0.4573990000000  0.5365830000000 1.0
C      1  0.5352680000000  0.4916760000000  0.4767960000000 1.0
C      1  0.4846340000000  0.5387020000000  0.5093740000000 1.0
C      1  0.4244580000000  0.4817550000000  0.5275380000000 1.0
C      1  0.5012690000000  0.5486780000000  0.5411200000000 1.0
C      1  0.4894180000000  0.4338330000000  0.4843910000000 1.0
C      1  0.4612720000000  0.5252700000000  0.5149280000000 1.0
C      1  0.5383180000000  0.5370320000000  0.4612930000000 1.0
C      1  0.4614500000000  0.5405680000000  0.4687510000000 1.0
C      1  0.4736490000000  0.4579350000000  0.4780980000000 1.0
C      1  0.4962970000000  0.5628910000000  0.5165170000000 1.0
C      1  0.4651120000000  0.4591840000000  0.5417420000000 1.0
C      1  0.4506220000000  0.4569630000000  0.4958140000000 1.0
C      1  0.5143070000000  0.5502250000000  0.4747700000000 1.0
C      1  0.5193600000000  0.5047710000000  0.5295830000000 1.0
C      1  0.5643090000000  0.4978100000000  0.4783580000000 1.0
C      1  0.5201770000000  0.5641630000000  0.5004130000000 1.0
C      1  0.5031940000000  0.5252900000000  0.4892010000000 1.0
C      1  0.5352570000000  0.4790940000000  0.5324900000000 1.0
C      1  0.4915620000000  0.4688880000000  0.5447350000000 1.0
C      1  0.4616730000000  0.4416780000000  0.5198490000000 1.0
C      1  0.5325430000000  0.5249120000000  0.4372800000000 1.0
C      1  0.4862600000000  0.5525280000000  0.4614240000000 1.0
C      1  0.4775440000000  0.5270160000000  0.4511090000000 1.0
C      1  0.4949690000000  0.5072050000000  0.4646380000000 1.0
C      1  0.4319210000000  0.5026720000000  0.4857010000000 1.0
C      1  0.5187800000000  0.4680450000000  0.4766820000000 1.0
END
