TITL C-37219-9146-3 -0.0641791014824987 125000 -218.139499562367 0 0 34 (C1) n - 1
REM
REM in /rds/project/t2_vol4/rds-t2-cs072/BORA/CARBON/from-Arr/AIRSS/Generating-Clusters/GAP-ML-2020/Only-C1/SD-CG/HFTN-CG
REM
REM
REM
REM
REM
REM ./C.cell (11c1c37f851c82e70ff6c80c92926a4b)
REM AIRSS Version 0.9.1 bugfix July 2018 build 013d7b7c2542+ Fri, 06 Jul 2018 19:26:36 +0100
REM compiler GCC version 9.3.0
REM options -cpp -mtune=generic -march=x86-64 -g -O0
REM seed -1412172959 1753186061 217478765 -1860303839 -1360683538 -1514102459 1723431095 853200309 -675922921 1020012149 331268028 -1637030185 -151013709 155697611 1153958915 -283139595 815400509 -1136368470 -276230850 2055423246 1192540972 1553628753 -1628732699 -252379970 1504585891 -1607384506 2067414790 1526926585 -1809374582 -686917798 901081593 -1700471051 1701064386
REM
CELL 1.54180   50.00000   50.00000   50.00000   90.00000   90.00000   90.00000
LATT -1
SFAC C  
C      1  0.4875080000000  0.5246800000000  0.4922560000000 1.0
C      1  0.5080500000000  0.5080370000000  0.4833150000000 1.0
C      1  0.4958160000000  0.4384540000000  0.4561120000000 1.0
C      1  0.4753070000000  0.4803180000000  0.4631020000000 1.0
C      1  0.5256060000000  0.5483300000000  0.5119410000000 1.0
C      1  0.4874390000000  0.5620310000000  0.5342910000000 1.0
C      1  0.4879660000000  0.4427560000000  0.5045850000000 1.0
C      1  0.5389500000000  0.5182530000000  0.4448880000000 1.0
C      1  0.4673270000000  0.5488180000000  0.4567520000000 1.0
C      1  0.4908600000000  0.4943010000000  0.5574190000000 1.0
C      1  0.5202910000000  0.5243660000000  0.5286950000000 1.0
C      1  0.5432900000000  0.5315010000000  0.4964960000000 1.0
C      1  0.5434370000000  0.5105670000000  0.5175040000000 1.0
C      1  0.4708270000000  0.5703600000000  0.4439230000000 1.0
C      1  0.5322490000000  0.5196990000000  0.4701640000000 1.0
C      1  0.5160350000000  0.4827240000000  0.5604000000000 1.0
C      1  0.4898960000000  0.4696260000000  0.5089960000000 1.0
C      1  0.4808830000000  0.4911110000000  0.5284840000000 1.0
C      1  0.4550570000000  0.5005580000000  0.4711040000000 1.0
C      1  0.4798740000000  0.5367190000000  0.5425700000000 1.0
C      1  0.5376890000000  0.4765910000000  0.5488010000000 1.0
C      1  0.5443990000000  0.4653500000000  0.4986420000000 1.0
C      1  0.4822530000000  0.5202900000000  0.5645190000000 1.0
C      1  0.5402950000000  0.4472580000000  0.4814860000000 1.0
C      1  0.5458700000000  0.4828050000000  0.5207010000000 1.0
C      1  0.4890030000000  0.5182050000000  0.5205370000000 1.0
C      1  0.4509930000000  0.4937720000000  0.5217070000000 1.0
C      1  0.5206700000000  0.4321620000000  0.4691860000000 1.0
C      1  0.4447180000000  0.4940650000000  0.4969490000000 1.0
C      1  0.5072500000000  0.5669560000000  0.5180610000000 1.0
C      1  0.4820140000000  0.4600830000000  0.4461470000000 1.0
C      1  0.4673330000000  0.5273140000000  0.4730880000000 1.0
C      1  0.4954780000000  0.4832020000000  0.4836320000000 1.0
C      1  0.4953610000000  0.4287390000000  0.4835460000000 1.0
END
