TITL C-37204-9105-1 210.912751041142 125000 -842.883333175216 0 0 122 (C1) n - 1
REM
REM in /rds/project/t2_vol4/rds-t2-cs072/BORA/CARBON/from-Arr/AIRSS/Generating-Clusters/GAP-ML-2020/Only-C1/SD-CG/HFTN-CG
REM
REM
REM
REM
REM
REM ./C.cell (11c1c37f851c82e70ff6c80c92926a4b)
REM AIRSS Version 0.9.1 bugfix July 2018 build 013d7b7c2542+ Fri, 06 Jul 2018 19:26:36 +0100
REM compiler GCC version 9.3.0
REM options -cpp -mtune=generic -march=x86-64 -g -O0
REM seed 127476422 -1660550319 1100123894 378104573 -586068201 2094238879 698695742 1364897260 -1560107729 -1122807734 421509401 -1997856811 1943846242 -1596811357 -1158162397 1556535137 511001656 -538834566 -341699167 -1216885062 -1504227141 281759981 -1567176630 -1361290614 -213328752 -1384022550 1406836518 -404338342 1639762286 722307468 -491250897 -1609861116 -1179305093
REM
CELL 1.54180   50.00000   50.00000   50.00000   90.00000   90.00000   90.00000
LATT -1
SFAC C  
C      1  0.5969570000000  0.4779360000000  0.5175890000000 1.0
C      1  0.4450750000000  0.4468470000000  0.5570800000000 1.0
C      1  0.4810610000000  0.5137430000000  0.5855580000000 1.0
C      1  0.4144260000000  0.4892580000000  0.4722730000000 1.0
C      1  0.4173820000000  0.4687820000000  0.4943040000000 1.0
C      1  0.5000800000000  0.5564640000000  0.4632150000000 1.0
C      1  0.5014400000000  0.5175920000000  0.4022650000000 1.0
C      1  0.4529900000000  0.4419450000000  0.4271230000000 1.0
C      1  0.5060090000000  0.4869020000000  0.4532260000000 1.0
C      1  0.4343550000000  0.4462120000000  0.4889070000000 1.0
C      1  0.4842180000000  0.4672520000000  0.4618120000000 1.0
C      1  0.4459280000000  0.5841620000000  0.4989470000000 1.0
C      1  0.4780480000000  0.5540270000000  0.5658560000000 1.0
C      1  0.5854670000000  0.5019550000000  0.5530240000000 1.0
C      1  0.5308990000000  0.5316560000000  0.4324080000000 1.0
C      1  0.5816260000000  0.4656020000000  0.4746380000000 1.0
C      1  0.4175360000000  0.5316720000000  0.5331420000000 1.0
C      1  0.4572980000000  0.4620080000000  0.5774900000000 1.0
C      1  0.5245960000000  0.4217300000000  0.5095570000000 1.0
C      1  0.5835370000000  0.5202710000000  0.4646320000000 1.0
C      1  0.4280910000000  0.5556750000000  0.5233430000000 1.0
C      1  0.4548130000000  0.4227280000000  0.4487280000000 1.0
C      1  0.4381190000000  0.5192980000000  0.5765950000000 1.0
C      1  0.4692110000000  0.4820250000000  0.5042800000000 1.0
C      1  0.5715450000000  0.5357700000000  0.5732460000000 1.0
C      1  0.5639870000000  0.4365300000000  0.5418690000000 1.0
C      1  0.5043610000000  0.4316810000000  0.4205760000000 1.0
C      1  0.4330940000000  0.4360180000000  0.4632070000000 1.0
C      1  0.5441650000000  0.4777000000000  0.5090940000000 1.0
C      1  0.4564070000000  0.5793850000000  0.4564800000000 1.0
C      1  0.5243770000000  0.4930860000000  0.5896400000000 1.0
C      1  0.5500440000000  0.5615410000000  0.5408550000000 1.0
C      1  0.4638010000000  0.5355330000000  0.5835250000000 1.0
C      1  0.5244640000000  0.5246770000000  0.5147900000000 1.0
C      1  0.4253720000000  0.5637920000000  0.4958690000000 1.0
C      1  0.5418930000000  0.4879170000000  0.5346270000000 1.0
C      1  0.5721090000000  0.5088250000000  0.5771050000000 1.0
C      1  0.4866040000000  0.4161390000000  0.5406240000000 1.0
C      1  0.4637260000000  0.5938390000000  0.4801490000000 1.0
C      1  0.5522920000000  0.5533930000000  0.4900020000000 1.0
C      1  0.4968670000000  0.4804640000000  0.5197100000000 1.0
C      1  0.4809900000000  0.5734480000000  0.4446510000000 1.0
C      1  0.5372200000000  0.4309890000000  0.5525610000000 1.0
C      1  0.4861750000000  0.4678720000000  0.5675880000000 1.0
C      1  0.4169750000000  0.5144600000000  0.4847220000000 1.0
C      1  0.4191540000000  0.4803440000000  0.5209560000000 1.0
C      1  0.5184440000000  0.5038930000000  0.5341300000000 1.0
C      1  0.4610590000000  0.4234030000000  0.5486000000000 1.0
C      1  0.5157790000000  0.5900300000000  0.4855000000000 1.0
C      1  0.4389690000000  0.5564020000000  0.4520170000000 1.0
C      1  0.4761890000000  0.5069630000000  0.4125340000000 1.0
C      1  0.4436260000000  0.4882160000000  0.5687450000000 1.0
C      1  0.5530060000000  0.4900130000000  0.5875080000000 1.0
C      1  0.4618920000000  0.5285930000000  0.4875880000000 1.0
C      1  0.4301400000000  0.4717350000000  0.5464020000000 1.0
C      1  0.4214880000000  0.4809640000000  0.4437990000000 1.0
C      1  0.5182300000000  0.4961390000000  0.4797590000000 1.0
C      1  0.4366870000000  0.4938280000000  0.4221920000000 1.0
C      1  0.4976500000000  0.5438830000000  0.4142250000000 1.0
C      1  0.5520490000000  0.5250680000000  0.5048460000000 1.0
C      1  0.5537920000000  0.4743130000000  0.4437520000000 1.0
C      1  0.5232390000000  0.4282510000000  0.4652200000000 1.0
C      1  0.4306540000000  0.5417960000000  0.4771820000000 1.0
C      1  0.5258800000000  0.5077860000000  0.4153050000000 1.0
C      1  0.5971150000000  0.5061690000000  0.5094810000000 1.0
C      1  0.5155360000000  0.4193450000000  0.5364470000000 1.0
C      1  0.4723030000000  0.4957630000000  0.5636940000000 1.0
C      1  0.5463400000000  0.5518410000000  0.4474150000000 1.0
C      1  0.5476660000000  0.5714540000000  0.5144700000000 1.0
C      1  0.4747440000000  0.5579770000000  0.4214130000000 1.0
C      1  0.4562680000000  0.5085870000000  0.5125740000000 1.0
C      1  0.5231620000000  0.5852960000000  0.5128240000000 1.0
C      1  0.4677350000000  0.4849570000000  0.4753000000000 1.0
C      1  0.4483080000000  0.5201210000000  0.4161970000000 1.0
C      1  0.4791560000000  0.4209650000000  0.4608510000000 1.0
C      1  0.5028980000000  0.5753960000000  0.5318220000000 1.0
C      1  0.4831150000000  0.4420770000000  0.4807850000000 1.0
C      1  0.5090000000000  0.5162880000000  0.5830210000000 1.0
C      1  0.4896130000000  0.4612830000000  0.5392710000000 1.0
C      1  0.4732950000000  0.4570950000000  0.4141700000000 1.0
C      1  0.5108720000000  0.4397730000000  0.4897660000000 1.0
C      1  0.4685010000000  0.5108960000000  0.4660400000000 1.0
C      1  0.4885580000000  0.5103380000000  0.4449950000000 1.0
C      1  0.5037920000000  0.4214390000000  0.4458970000000 1.0
C      1  0.5041210000000  0.5352080000000  0.4424240000000 1.0
C      1  0.4821940000000  0.5574660000000  0.5196590000000 1.0
C      1  0.5671840000000  0.5444690000000  0.4649040000000 1.0
C      1  0.5119110000000  0.5274390000000  0.5541890000000 1.0
C      1  0.4908400000000  0.6000110000000  0.4827300000000 1.0
C      1  0.4830840000000  0.5369210000000  0.5419160000000 1.0
C      1  0.5880360000000  0.4567960000000  0.5008720000000 1.0
C      1  0.5289470000000  0.5658370000000  0.4691860000000 1.0
C      1  0.5236520000000  0.5563870000000  0.5536590000000 1.0
C      1  0.5069700000000  0.5206790000000  0.4935230000000 1.0
C      1  0.5486220000000  0.4994030000000  0.4877050000000 1.0
C      1  0.5917000000000  0.4761110000000  0.5453780000000 1.0
C      1  0.5508580000000  0.4285140000000  0.4707240000000 1.0
C      1  0.4191850000000  0.5275120000000  0.5599680000000 1.0
C      1  0.5333950000000  0.4495470000000  0.5746670000000 1.0
C      1  0.5765130000000  0.4559490000000  0.5582800000000 1.0
C      1  0.5723410000000  0.4349640000000  0.5143010000000 1.0
C      1  0.4490320000000  0.5459400000000  0.4267730000000 1.0
C      1  0.5578420000000  0.4636270000000  0.5783210000000 1.0
C      1  0.6016510000000  0.5171460000000  0.4849110000000 1.0
C      1  0.5711820000000  0.5442280000000  0.5471860000000 1.0
C      1  0.5263030000000  0.4807460000000  0.4295180000000 1.0
C      1  0.4713310000000  0.4412020000000  0.5281920000000 1.0
C      1  0.5785500000000  0.5205520000000  0.5289420000000 1.0
C      1  0.5683600000000  0.4916510000000  0.4645320000000 1.0
C      1  0.5122060000000  0.4678290000000  0.5822890000000 1.0
C      1  0.4294840000000  0.4539730000000  0.4410520000000 1.0
C      1  0.5004840000000  0.5715180000000  0.5604500000000 1.0
C      1  0.5040430000000  0.4579270000000  0.4159730000000 1.0
C      1  0.5169490000000  0.4708840000000  0.4992250000000 1.0
C      1  0.5521940000000  0.4230850000000  0.4992780000000 1.0
C      1  0.4620180000000  0.4498820000000  0.5015520000000 1.0
C      1  0.4873270000000  0.5430980000000  0.4906000000000 1.0
C      1  0.4239470000000  0.5090180000000  0.5138420000000 1.0
C      1  0.5644110000000  0.4506690000000  0.4577200000000 1.0
C      1  0.4535600000000  0.5704660000000  0.5229700000000 1.0
C      1  0.4671840000000  0.5141420000000  0.5390380000000 1.0
C      1  0.4608600000000  0.4817190000000  0.4099710000000 1.0
END
