TITL C-37213-9158-5 -0.160680351110855 125000 -747.229790469089 0 0 106 (C1) n - 1
REM
REM in /rds/project/t2_vol4/rds-t2-cs072/BORA/CARBON/from-Arr/AIRSS/Generating-Clusters/GAP-ML-2020/Only-C1/SD-CG/HFTN-CG
REM
REM
REM
REM
REM
REM ./C.cell (11c1c37f851c82e70ff6c80c92926a4b)
REM AIRSS Version 0.9.1 bugfix July 2018 build 013d7b7c2542+ Fri, 06 Jul 2018 19:26:36 +0100
REM compiler GCC version 9.3.0
REM options -cpp -mtune=generic -march=x86-64 -g -O0
REM seed -1988800777 40083161 1157374621 -1026119651 2017166169 -772169703 -1129998327 1953960915 -553545051 -773887255 1926190413 243678082 -956764068 -455351159 536722700 -778964288 -385191360 -1754083966 -1427015944 -787941067 -135433481 1945374019 -546924976 727446679 982588144 1510988279 -1417969625 76572703 -369979328 -2056844803 1048218712 -1701855780 2011864980
REM
CELL 1.54180   50.00000   50.00000   50.00000   90.00000   90.00000   90.00000
LATT -1
SFAC C  
C      1  0.5840060000000  0.5577940000000  0.5150860000000 1.0
C      1  0.4815890000000  0.4908780000000  0.5231560000000 1.0
C      1  0.5413250000000  0.4690220000000  0.4585570000000 1.0
C      1  0.4213550000000  0.4863200000000  0.4686770000000 1.0
C      1  0.4536080000000  0.4150890000000  0.5261130000000 1.0
C      1  0.5098770000000  0.5465290000000  0.4231030000000 1.0
C      1  0.5914870000000  0.4891030000000  0.4904570000000 1.0
C      1  0.4255870000000  0.4503910000000  0.5018080000000 1.0
C      1  0.4618900000000  0.5069500000000  0.5967880000000 1.0
C      1  0.5281940000000  0.4731590000000  0.5594180000000 1.0
C      1  0.4961130000000  0.5681530000000  0.5206040000000 1.0
C      1  0.5028410000000  0.5020000000000  0.4632650000000 1.0
C      1  0.5180560000000  0.4291940000000  0.4392330000000 1.0
C      1  0.5889410000000  0.5122090000000  0.5064560000000 1.0
C      1  0.4909620000000  0.4624180000000  0.5271990000000 1.0
C      1  0.5380220000000  0.5388050000000  0.4319600000000 1.0
C      1  0.5667500000000  0.5132040000000  0.4570810000000 1.0
C      1  0.4295260000000  0.5135140000000  0.4756560000000 1.0
C      1  0.5470910000000  0.5121260000000  0.4370780000000 1.0
C      1  0.4770510000000  0.4444070000000  0.4508600000000 1.0
C      1  0.4904470000000  0.5471060000000  0.5852230000000 1.0
C      1  0.4165270000000  0.5188130000000  0.5029220000000 1.0
C      1  0.4831240000000  0.4546880000000  0.4234570000000 1.0
C      1  0.4243150000000  0.4809960000000  0.5370850000000 1.0
C      1  0.5527360000000  0.4870530000000  0.5617590000000 1.0
C      1  0.4256090000000  0.5358760000000  0.5234290000000 1.0
C      1  0.5048440000000  0.5272020000000  0.4799120000000 1.0
C      1  0.4737010000000  0.4883800000000  0.4969580000000 1.0
C      1  0.4851380000000  0.4033390000000  0.4937760000000 1.0
C      1  0.5244030000000  0.4845500000000  0.5053820000000 1.0
C      1  0.4620120000000  0.4217680000000  0.4996410000000 1.0
C      1  0.5155890000000  0.4759840000000  0.4180150000000 1.0
C      1  0.5444300000000  0.4831270000000  0.4877760000000 1.0
C      1  0.5018390000000  0.4254040000000  0.5412980000000 1.0
C      1  0.5208570000000  0.5830600000000  0.4833420000000 1.0
C      1  0.4979100000000  0.4520580000000  0.4752580000000 1.0
C      1  0.5485250000000  0.5549830000000  0.4531480000000 1.0
C      1  0.5822940000000  0.4901430000000  0.4638040000000 1.0
C      1  0.5668690000000  0.5544280000000  0.5366200000000 1.0
C      1  0.5331360000000  0.4232730000000  0.5096910000000 1.0
C      1  0.4969250000000  0.5746640000000  0.5491460000000 1.0
C      1  0.4517990000000  0.5017060000000  0.4372830000000 1.0
C      1  0.5528330000000  0.5148070000000  0.5681690000000 1.0
C      1  0.4908630000000  0.5289730000000  0.4134610000000 1.0
C      1  0.4853800000000  0.5202020000000  0.5949040000000 1.0
C      1  0.4382250000000  0.5244140000000  0.5469850000000 1.0
C      1  0.5716260000000  0.4464110000000  0.4819400000000 1.0
C      1  0.5292960000000  0.5747260000000  0.4575360000000 1.0
C      1  0.4740780000000  0.5062840000000  0.4164190000000 1.0
C      1  0.5187030000000  0.5494980000000  0.5794430000000 1.0
C      1  0.4830540000000  0.5809880000000  0.4537310000000 1.0
C      1  0.5804950000000  0.5381290000000  0.4961940000000 1.0
C      1  0.4600410000000  0.5456330000000  0.5443260000000 1.0
C      1  0.5231780000000  0.5682060000000  0.5574150000000 1.0
C      1  0.4935510000000  0.4001490000000  0.4684100000000 1.0
C      1  0.5826420000000  0.5081890000000  0.5337750000000 1.0
C      1  0.5248730000000  0.5651080000000  0.5083210000000 1.0
C      1  0.4387390000000  0.4754980000000  0.4497950000000 1.0
C      1  0.5410280000000  0.5669470000000  0.5348900000000 1.0
C      1  0.5269220000000  0.4431580000000  0.4646600000000 1.0
C      1  0.4583260000000  0.4887710000000  0.5760790000000 1.0
C      1  0.4735040000000  0.5045260000000  0.4570360000000 1.0
C      1  0.4786280000000  0.5841250000000  0.5033160000000 1.0
C      1  0.4525250000000  0.4372840000000  0.5415260000000 1.0
C      1  0.4574460000000  0.5586170000000  0.4836640000000 1.0
C      1  0.4826800000000  0.5387090000000  0.5222780000000 1.0
C      1  0.4344290000000  0.5250860000000  0.4479010000000 1.0
C      1  0.5113210000000  0.4479370000000  0.4202220000000 1.0
C      1  0.5462610000000  0.4326470000000  0.4861990000000 1.0
C      1  0.5234220000000  0.5131500000000  0.5137680000000 1.0
C      1  0.5272420000000  0.4902700000000  0.4418180000000 1.0
C      1  0.5700250000000  0.5282380000000  0.5493100000000 1.0
C      1  0.4394270000000  0.5511300000000  0.4431770000000 1.0
C      1  0.4519300000000  0.5755020000000  0.5050960000000 1.0
C      1  0.5584240000000  0.5363200000000  0.4756710000000 1.0
C      1  0.4315390000000  0.4537930000000  0.5298740000000 1.0
C      1  0.4873130000000  0.4813470000000  0.4129360000000 1.0
C      1  0.4771430000000  0.5345630000000  0.4919270000000 1.0
C      1  0.4767910000000  0.5604080000000  0.5645010000000 1.0
C      1  0.5280800000000  0.4361630000000  0.5344910000000 1.0
C      1  0.5701150000000  0.4641870000000  0.4590750000000 1.0
C      1  0.4883540000000  0.4425280000000  0.5027580000000 1.0
C      1  0.4926340000000  0.4164980000000  0.4473470000000 1.0
C      1  0.5855200000000  0.4624240000000  0.5013050000000 1.0
C      1  0.5738870000000  0.4823080000000  0.5429840000000 1.0
C      1  0.4617090000000  0.5106600000000  0.4827940000000 1.0
C      1  0.4134590000000  0.4737260000000  0.4923610000000 1.0
C      1  0.4423200000000  0.4368580000000  0.4835900000000 1.0
C      1  0.5035240000000  0.4177110000000  0.5126210000000 1.0
C      1  0.4932330000000  0.5900950000000  0.4797540000000 1.0
C      1  0.4986770000000  0.5145470000000  0.5282990000000 1.0
C      1  0.4799640000000  0.4467630000000  0.5502320000000 1.0
C      1  0.5209220000000  0.4647090000000  0.5318740000000 1.0
C      1  0.5774950000000  0.4606640000000  0.5272590000000 1.0
C      1  0.5064030000000  0.5711770000000  0.4397540000000 1.0
C      1  0.4806600000000  0.4684630000000  0.5719540000000 1.0
C      1  0.5296760000000  0.5233460000000  0.5817470000000 1.0
C      1  0.5088770000000  0.5050060000000  0.5887900000000 1.0
C      1  0.4375170000000  0.4975710000000  0.5565400000000 1.0
C      1  0.5290850000000  0.5348150000000  0.4949950000000 1.0
C      1  0.4417480000000  0.5600240000000  0.5255910000000 1.0
C      1  0.4995990000000  0.4803800000000  0.4836570000000 1.0
C      1  0.4123730000000  0.4927760000000  0.5137450000000 1.0
C      1  0.4567670000000  0.5679180000000  0.4565070000000 1.0
C      1  0.5065500000000  0.4792600000000  0.5770290000000 1.0
C      1  0.4496530000000  0.4498160000000  0.4587940000000 1.0
END
