TITL C-37225-3736-4 0.177965953373951 125000 -632.559630467226 0 0 92 (C1) n - 1
REM
REM in /rds/project/t2_vol4/rds-t2-cs072/BORA/CARBON/from-Arr/AIRSS/Generating-Clusters/GAP-ML-2020/Only-C1/SD-CG/HFTN-CG
REM
REM
REM
REM
REM
REM ./C.cell (11c1c37f851c82e70ff6c80c92926a4b)
REM AIRSS Version 0.9.1 bugfix July 2018 build 013d7b7c2542+ Fri, 06 Jul 2018 19:26:36 +0100
REM compiler GCC version 9.3.0
REM options -cpp -mtune=generic -march=x86-64 -g -O0
REM seed 507323017 -1670113980 1212817341 -1165463338 1651348447 1767589028 34213571 -804969386 1839813060 690337171 285713796 -1644410568 -2125005201 -869451125 -767724251 2028073679 -413362319 -1897824845 -111083758 -1040108179 -1422604126 1424034404 289508942 -1159358727 -1102641055 -1047437762 -528165992 1724034061 -1233721515 109090965 1757032700 1412956839 -257969954
REM
CELL 1.54180   50.00000   50.00000   50.00000   90.00000   90.00000   90.00000
LATT -1
SFAC C  
C      1  0.5107940000000  0.5700210000000  0.4951460000000 1.0
C      1  0.4632440000000  0.4961950000000  0.4363690000000 1.0
C      1  0.4115740000000  0.5047490000000  0.5191420000000 1.0
C      1  0.4961240000000  0.4190090000000  0.5133280000000 1.0
C      1  0.5596360000000  0.5584400000000  0.5015070000000 1.0
C      1  0.5391420000000  0.5400060000000  0.4369980000000 1.0
C      1  0.5092640000000  0.4346850000000  0.4708130000000 1.0
C      1  0.5324210000000  0.4996250000000  0.4949540000000 1.0
C      1  0.4713480000000  0.5514540000000  0.5198080000000 1.0
C      1  0.5097760000000  0.4639750000000  0.4330010000000 1.0
C      1  0.5370390000000  0.5127610000000  0.4278190000000 1.0
C      1  0.4147580000000  0.4879370000000  0.4917050000000 1.0
C      1  0.4605890000000  0.4672940000000  0.4320230000000 1.0
C      1  0.4723830000000  0.4799860000000  0.5619910000000 1.0
C      1  0.4605390000000  0.4212360000000  0.4679790000000 1.0
C      1  0.4511100000000  0.4956550000000  0.5473960000000 1.0
C      1  0.4197520000000  0.5074740000000  0.4684640000000 1.0
C      1  0.4279650000000  0.4371670000000  0.4889890000000 1.0
C      1  0.5038580000000  0.5709020000000  0.5572640000000 1.0
C      1  0.4870700000000  0.4952190000000  0.5800580000000 1.0
C      1  0.4714660000000  0.4714410000000  0.5044490000000 1.0
C      1  0.4720780000000  0.5379950000000  0.5642450000000 1.0
C      1  0.5052210000000  0.5123810000000  0.5271910000000 1.0
C      1  0.5894080000000  0.4907370000000  0.4777570000000 1.0
C      1  0.5391560000000  0.4851550000000  0.4665440000000 1.0
C      1  0.5807520000000  0.5019470000000  0.4508050000000 1.0
C      1  0.5422110000000  0.4414330000000  0.5108640000000 1.0
C      1  0.4373220000000  0.5040680000000  0.5027560000000 1.0
C      1  0.4694190000000  0.4701690000000  0.4768930000000 1.0
C      1  0.5692960000000  0.5672100000000  0.5300370000000 1.0
C      1  0.5189320000000  0.5211920000000  0.5793280000000 1.0
C      1  0.5172280000000  0.5572510000000  0.4472350000000 1.0
C      1  0.5515290000000  0.4730150000000  0.5529760000000 1.0
C      1  0.4899870000000  0.5241450000000  0.5798400000000 1.0
C      1  0.5635370000000  0.5244870000000  0.5561530000000 1.0
C      1  0.4878020000000  0.4569740000000  0.5465870000000 1.0
C      1  0.5899990000000  0.5193360000000  0.4867760000000 1.0
C      1  0.4972940000000  0.4644440000000  0.5155870000000 1.0
C      1  0.5732400000000  0.5303610000000  0.5082820000000 1.0
C      1  0.4510010000000  0.4200460000000  0.4958470000000 1.0
C      1  0.4696040000000  0.4199590000000  0.5176040000000 1.0
C      1  0.4221360000000  0.4879220000000  0.5400250000000 1.0
C      1  0.5836510000000  0.4668240000000  0.4877640000000 1.0
C      1  0.4826130000000  0.5586380000000  0.5472640000000 1.0
C      1  0.4859750000000  0.5186400000000  0.4829760000000 1.0
C      1  0.5102600000000  0.4938110000000  0.4572090000000 1.0
C      1  0.4899120000000  0.5507630000000  0.4455670000000 1.0
C      1  0.5405790000000  0.4494660000000  0.5380270000000 1.0
C      1  0.4244670000000  0.5339260000000  0.4813090000000 1.0
C      1  0.5253280000000  0.5710700000000  0.4704680000000 1.0
C      1  0.5508380000000  0.5117380000000  0.5163620000000 1.0
C      1  0.5619420000000  0.5473170000000  0.4536550000000 1.0
C      1  0.5283650000000  0.4710880000000  0.5711280000000 1.0
C      1  0.5478270000000  0.4579700000000  0.4654470000000 1.0
C      1  0.4226170000000  0.4614080000000  0.5300200000000 1.0
C      1  0.4463210000000  0.4604580000000  0.4549840000000 1.0
C      1  0.4845610000000  0.4316100000000  0.4574520000000 1.0
C      1  0.5610570000000  0.4499900000000  0.4900810000000 1.0
C      1  0.5590940000000  0.4984310000000  0.5434650000000 1.0
C      1  0.4841450000000  0.4520940000000  0.4354080000000 1.0
C      1  0.4811160000000  0.5182830000000  0.5127480000000 1.0
C      1  0.4656400000000  0.4371850000000  0.5405590000000 1.0
C      1  0.5284690000000  0.5312870000000  0.5292430000000 1.0
C      1  0.4847400000000  0.5084400000000  0.4206650000000 1.0
C      1  0.5258750000000  0.4479110000000  0.4519480000000 1.0
C      1  0.4403620000000  0.4453750000000  0.5424480000000 1.0
C      1  0.5135990000000  0.4884320000000  0.5151450000000 1.0
C      1  0.5434550000000  0.5750180000000  0.5385650000000 1.0
C      1  0.5534520000000  0.5653110000000  0.4744280000000 1.0
C      1  0.5770020000000  0.5408080000000  0.5365400000000 1.0
C      1  0.5158500000000  0.4502690000000  0.5555130000000 1.0
C      1  0.5150900000000  0.5167300000000  0.4787770000000 1.0
C      1  0.4466280000000  0.5387160000000  0.4632710000000 1.0
C      1  0.5360290000000  0.5356400000000  0.5612420000000 1.0
C      1  0.5544160000000  0.4966420000000  0.4437570000000 1.0
C      1  0.5114240000000  0.4958420000000  0.4274100000000 1.0
C      1  0.4746880000000  0.5465140000000  0.4710600000000 1.0
C      1  0.4244290000000  0.5309240000000  0.5104710000000 1.0
C      1  0.4168870000000  0.4597690000000  0.5009770000000 1.0
C      1  0.4363290000000  0.4359070000000  0.4610460000000 1.0
C      1  0.5305470000000  0.5655230000000  0.5618000000000 1.0
C      1  0.4831770000000  0.5631000000000  0.4951630000000 1.0
C      1  0.5129250000000  0.4381560000000  0.5012520000000 1.0
C      1  0.4410840000000  0.5132110000000  0.4489690000000 1.0
C      1  0.5823950000000  0.5290260000000  0.4601580000000 1.0
C      1  0.4613330000000  0.4960410000000  0.5172190000000 1.0
C      1  0.5159360000000  0.4927310000000  0.5826710000000 1.0
C      1  0.4502390000000  0.5259960000000  0.5518280000000 1.0
C      1  0.4846050000000  0.5348390000000  0.4248950000000 1.0
C      1  0.5310340000000  0.5596840000000  0.5153440000000 1.0
C      1  0.4438610000000  0.5423130000000  0.5284030000000 1.0
C      1  0.4808270000000  0.4936770000000  0.4653610000000 1.0
END
