TITL C-37220-9277-5 0.121335758742537 125000 -410.48804102037 0 0 61 (C1) n - 1
REM
REM in /rds/project/t2_vol4/rds-t2-cs072/BORA/CARBON/from-Arr/AIRSS/Generating-Clusters/GAP-ML-2020/Only-C1/SD-CG/HFTN-CG
REM
REM
REM
REM
REM
REM ./C.cell (11c1c37f851c82e70ff6c80c92926a4b)
REM AIRSS Version 0.9.1 bugfix July 2018 build 013d7b7c2542+ Fri, 06 Jul 2018 19:26:36 +0100
REM compiler GCC version 9.3.0
REM options -cpp -mtune=generic -march=x86-64 -g -O0
REM seed 323837072 1125613937 -870049988 1708728594 -1899880301 175268610 1601844066 -36670921 -1841467095 -1448865177 -615742548 -1333716945 1989074962 -1804823116 -1729105517 -135835911 436925263 -564863761 878894408 -6752756 -1431641234 -1438305839 899411153 -636913155 175932207 1803251559 -1986359965 -153605367 1329617257 451974478 747818044 -259150067 -919985012
REM
CELL 1.54180   50.00000   50.00000   50.00000   90.00000   90.00000   90.00000
LATT -1
SFAC C  
C      1  0.5448110000000  0.4715650000000  0.5385240000000 1.0
C      1  0.4802090000000  0.4948470000000  0.5627200000000 1.0
C      1  0.5543880000000  0.5207200000000  0.5274190000000 1.0
C      1  0.5576890000000  0.5412610000000  0.5080780000000 1.0
C      1  0.5295290000000  0.5614290000000  0.4546750000000 1.0
C      1  0.4313380000000  0.4767000000000  0.4964590000000 1.0
C      1  0.5470870000000  0.4928590000000  0.5169900000000 1.0
C      1  0.4728770000000  0.5035600000000  0.5223840000000 1.0
C      1  0.4964660000000  0.4293180000000  0.5278850000000 1.0
C      1  0.4965590000000  0.4716750000000  0.5538450000000 1.0
C      1  0.4825910000000  0.4876660000000  0.4832550000000 1.0
C      1  0.4582020000000  0.5023810000000  0.5466220000000 1.0
C      1  0.4688690000000  0.5615990000000  0.5177060000000 1.0
C      1  0.4750760000000  0.4788800000000  0.5091950000000 1.0
C      1  0.5207320000000  0.5511950000000  0.5455580000000 1.0
C      1  0.5542760000000  0.5299090000000  0.4835250000000 1.0
C      1  0.4525850000000  0.5364510000000  0.4590300000000 1.0
C      1  0.4864340000000  0.4275480000000  0.5014430000000 1.0
C      1  0.4508560000000  0.5294130000000  0.5374560000000 1.0
C      1  0.4663010000000  0.4759870000000  0.4609090000000 1.0
C      1  0.5384140000000  0.5286370000000  0.5492940000000 1.0
C      1  0.4976430000000  0.5160230000000  0.5678290000000 1.0
C      1  0.4608890000000  0.4386710000000  0.4938010000000 1.0
C      1  0.5411700000000  0.4447890000000  0.5355350000000 1.0
C      1  0.4483800000000  0.5426240000000  0.5101620000000 1.0
C      1  0.5189970000000  0.4476770000000  0.4619270000000 1.0
C      1  0.4304290000000  0.5031110000000  0.4862070000000 1.0
C      1  0.4383240000000  0.4817940000000  0.4705220000000 1.0
C      1  0.5341010000000  0.5705870000000  0.4778210000000 1.0
C      1  0.5157310000000  0.4966220000000  0.5135800000000 1.0
C      1  0.4974320000000  0.4955260000000  0.4253970000000 1.0
C      1  0.5418240000000  0.5659860000000  0.5049920000000 1.0
C      1  0.5245240000000  0.5078640000000  0.5639320000000 1.0
C      1  0.5196070000000  0.5661050000000  0.5215830000000 1.0
C      1  0.4702860000000  0.4472360000000  0.4678390000000 1.0
C      1  0.5228880000000  0.5320110000000  0.4490300000000 1.0
C      1  0.4515610000000  0.4603110000000  0.5108650000000 1.0
C      1  0.4982860000000  0.5229570000000  0.4346170000000 1.0
C      1  0.4695530000000  0.5504360000000  0.5449170000000 1.0
C      1  0.4418930000000  0.5301560000000  0.4849200000000 1.0
C      1  0.4559970000000  0.4531300000000  0.5386330000000 1.0
C      1  0.4946370000000  0.5644390000000  0.5065190000000 1.0
C      1  0.5548710000000  0.4859900000000  0.4873830000000 1.0
C      1  0.4946960000000  0.5386510000000  0.5496730000000 1.0
C      1  0.5201530000000  0.5254730000000  0.4793670000000 1.0
C      1  0.4971390000000  0.5195020000000  0.5200980000000 1.0
C      1  0.5141360000000  0.4505330000000  0.4344280000000 1.0
C      1  0.4965310000000  0.4358070000000  0.4751010000000 1.0
C      1  0.5240800000000  0.4260140000000  0.5335820000000 1.0
C      1  0.5110560000000  0.4955580000000  0.4837880000000 1.0
C      1  0.4717200000000  0.4928090000000  0.4379060000000 1.0
C      1  0.5025390000000  0.5381490000000  0.4983730000000 1.0
C      1  0.5321110000000  0.4750630000000  0.4701350000000 1.0
C      1  0.5182800000000  0.4762300000000  0.4242920000000 1.0
C      1  0.4809640000000  0.4465850000000  0.5469180000000 1.0
C      1  0.4993690000000  0.4740910000000  0.5234230000000 1.0
C      1  0.5629680000000  0.5075930000000  0.4709730000000 1.0
C      1  0.5255380000000  0.4804650000000  0.5590010000000 1.0
C      1  0.5467910000000  0.5113340000000  0.4453690000000 1.0
C      1  0.5376430000000  0.4861400000000  0.4426510000000 1.0
C      1  0.4699720000000  0.5223570000000  0.4439400000000 1.0
END
