TITL C-37209-9200-2 -82.5931275790211 125000 -964.54016257275 0 0 137 (C1) n - 1
REM
REM in /rds/project/t2_vol4/rds-t2-cs072/BORA/CARBON/from-Arr/AIRSS/Generating-Clusters/GAP-ML-2020/Only-C1/SD-CG/HFTN-CG
REM
REM
REM
REM
REM
REM ./C.cell (11c1c37f851c82e70ff6c80c92926a4b)
REM AIRSS Version 0.9.1 bugfix July 2018 build 013d7b7c2542+ Fri, 06 Jul 2018 19:26:36 +0100
REM compiler GCC version 9.3.0
REM options -cpp -mtune=generic -march=x86-64 -g -O0
REM seed -508015455 -692152749 -1965290098 -1234331337 -325210695 -614983440 1213251968 -86016617 -952469923 848207874 261519553 -530125245 -1294936078 1253854172 -652384943 483404704 -404705223 768443875 1886359403 1416929665 -825147424 689208424 148435983 -29338084 -260985145 92821861 -38251670 1573789926 1073707233 -2126860794 -516135590 -1437458888 1068714224
REM
CELL 1.54180   50.00000   50.00000   50.00000   90.00000   90.00000   90.00000
LATT -1
SFAC C  
C      1  0.5571440000000  0.4947730000000  0.4800090000000 1.0
C      1  0.4383380000000  0.5240410000000  0.5637410000000 1.0
C      1  0.5434830000000  0.4318660000000  0.5439410000000 1.0
C      1  0.4649820000000  0.5694140000000  0.5268420000000 1.0
C      1  0.4853520000000  0.5905040000000  0.5285190000000 1.0
C      1  0.5140430000000  0.5729680000000  0.4877040000000 1.0
C      1  0.5897970000000  0.5590590000000  0.5066610000000 1.0
C      1  0.4305010000000  0.5497500000000  0.5510340000000 1.0
C      1  0.5272740000000  0.4995230000000  0.5889900000000 1.0
C      1  0.4296170000000  0.5389510000000  0.4448000000000 1.0
C      1  0.4760170000000  0.4952920000000  0.5573860000000 1.0
C      1  0.4176110000000  0.4691730000000  0.5347240000000 1.0
C      1  0.5524910000000  0.5568050000000  0.4641740000000 1.0
C      1  0.4837430000000  0.4817160000000  0.5978410000000 1.0
C      1  0.4969610000000  0.4831630000000  0.5416830000000 1.0
C      1  0.4279820000000  0.4504760000000  0.5564000000000 1.0
C      1  0.5117040000000  0.4762380000000  0.5956910000000 1.0
C      1  0.5437770000000  0.5462390000000  0.5587610000000 1.0
C      1  0.4963590000000  0.5449320000000  0.4927570000000 1.0
C      1  0.4589130000000  0.4143210000000  0.4670800000000 1.0
C      1  0.5808230000000  0.5345250000000  0.4355580000000 1.0
C      1  0.4859980000000  0.4764450000000  0.4865060000000 1.0
C      1  0.4525270000000  0.4808680000000  0.4417150000000 1.0
C      1  0.4419010000000  0.5598910000000  0.5062190000000 1.0
C      1  0.5099520000000  0.5090150000000  0.4611360000000 1.0
C      1  0.4077510000000  0.5258620000000  0.5182770000000 1.0
C      1  0.6129890000000  0.5143360000000  0.5105900000000 1.0
C      1  0.5606510000000  0.5235360000000  0.5592880000000 1.0
C      1  0.4651120000000  0.4436410000000  0.4323850000000 1.0
C      1  0.4456790000000  0.5252300000000  0.4244290000000 1.0
C      1  0.5107620000000  0.5634500000000  0.4383040000000 1.0
C      1  0.5160010000000  0.4547220000000  0.4367030000000 1.0
C      1  0.4232320000000  0.4301160000000  0.4936570000000 1.0
C      1  0.5048970000000  0.5811340000000  0.4600800000000 1.0
C      1  0.4752900000000  0.5257940000000  0.4249280000000 1.0
C      1  0.5117180000000  0.4959690000000  0.4007390000000 1.0
C      1  0.5970240000000  0.5577910000000  0.4807760000000 1.0
C      1  0.4138490000000  0.4682000000000  0.4804200000000 1.0
C      1  0.5460680000000  0.4931680000000  0.4532330000000 1.0
C      1  0.5371120000000  0.5492310000000  0.4404020000000 1.0
C      1  0.5579040000000  0.5576520000000  0.5114850000000 1.0
C      1  0.6013990000000  0.5031590000000  0.4870850000000 1.0
C      1  0.5789510000000  0.5214490000000  0.5358550000000 1.0
C      1  0.5602580000000  0.5266640000000  0.5114000000000 1.0
C      1  0.4024500000000  0.4929920000000  0.5494820000000 1.0
C      1  0.4811340000000  0.5095850000000  0.5852450000000 1.0
C      1  0.5033380000000  0.4149000000000  0.4848380000000 1.0
C      1  0.5752420000000  0.5172030000000  0.4857160000000 1.0
C      1  0.5242090000000  0.4730030000000  0.4118840000000 1.0
C      1  0.4406040000000  0.4613650000000  0.5807610000000 1.0
C      1  0.5095340000000  0.5898180000000  0.5118720000000 1.0
C      1  0.5309210000000  0.5133310000000  0.4111860000000 1.0
C      1  0.5092640000000  0.5204960000000  0.5864930000000 1.0
C      1  0.4689430000000  0.4580350000000  0.5891210000000 1.0
C      1  0.5262400000000  0.4337750000000  0.4927000000000 1.0
C      1  0.5152960000000  0.4511990000000  0.5828230000000 1.0
C      1  0.4504010000000  0.5303390000000  0.4965270000000 1.0
C      1  0.4839760000000  0.4312720000000  0.5484350000000 1.0
C      1  0.4395890000000  0.5638480000000  0.4533760000000 1.0
C      1  0.5637250000000  0.4438080000000  0.4564710000000 1.0
C      1  0.4617900000000  0.4657340000000  0.5151370000000 1.0
C      1  0.5942770000000  0.4581720000000  0.4997840000000 1.0
C      1  0.5208010000000  0.4771120000000  0.4596550000000 1.0
C      1  0.4688560000000  0.5199150000000  0.5169830000000 1.0
C      1  0.4178790000000  0.5131750000000  0.4532870000000 1.0
C      1  0.4340520000000  0.5007690000000  0.4332190000000 1.0
C      1  0.4916160000000  0.4359610000000  0.4403870000000 1.0
C      1  0.3909040000000  0.5134770000000  0.5361690000000 1.0
C      1  0.5253610000000  0.5853880000000  0.5352830000000 1.0
C      1  0.4186770000000  0.5029600000000  0.5717660000000 1.0
C      1  0.4204640000000  0.5503600000000  0.5244820000000 1.0
C      1  0.5188880000000  0.4661550000000  0.4878150000000 1.0
C      1  0.4874700000000  0.4169890000000  0.4619710000000 1.0
C      1  0.4407090000000  0.5759340000000  0.4806540000000 1.0
C      1  0.4809400000000  0.5151000000000  0.4560890000000 1.0
C      1  0.5894090000000  0.4737020000000  0.5236070000000 1.0
C      1  0.4120250000000  0.4540290000000  0.5067740000000 1.0
C      1  0.4780250000000  0.5891340000000  0.4577620000000 1.0
C      1  0.4847310000000  0.5050250000000  0.4040880000000 1.0
C      1  0.5458020000000  0.5657690000000  0.5374000000000 1.0
C      1  0.4845140000000  0.5548420000000  0.4277430000000 1.0
C      1  0.5631940000000  0.4406970000000  0.5273410000000 1.0
C      1  0.5420200000000  0.4825020000000  0.5018750000000 1.0
C      1  0.4268460000000  0.5087080000000  0.5013270000000 1.0
C      1  0.5598720000000  0.5454560000000  0.4197820000000 1.0
C      1  0.4552910000000  0.5059220000000  0.5406010000000 1.0
C      1  0.5696920000000  0.4834480000000  0.4335370000000 1.0
C      1  0.4620840000000  0.5933020000000  0.4795720000000 1.0
C      1  0.4528580000000  0.5663020000000  0.5534660000000 1.0
C      1  0.5778850000000  0.5090600000000  0.4213250000000 1.0
C      1  0.5114860000000  0.5186170000000  0.4894930000000 1.0
C      1  0.4724540000000  0.5359070000000  0.4759860000000 1.0
C      1  0.6007230000000  0.5384030000000  0.5220020000000 1.0
C      1  0.4453100000000  0.4119390000000  0.4923600000000 1.0
C      1  0.5981530000000  0.4985690000000  0.5301060000000 1.0
C      1  0.5504090000000  0.4992890000000  0.5715520000000 1.0
C      1  0.4860150000000  0.5435380000000  0.5219620000000 1.0
C      1  0.4584610000000  0.4166810000000  0.5400400000000 1.0
C      1  0.4899620000000  0.4064270000000  0.5084450000000 1.0
C      1  0.5745160000000  0.4370930000000  0.5016090000000 1.0
C      1  0.5049980000000  0.5315720000000  0.5392090000000 1.0
C      1  0.5517870000000  0.4661350000000  0.4168060000000 1.0
C      1  0.4970750000000  0.5654670000000  0.5707760000000 1.0
C      1  0.4403830000000  0.4866190000000  0.5227590000000 1.0
C      1  0.4154460000000  0.4968590000000  0.4767570000000 1.0
C      1  0.5453320000000  0.4450350000000  0.4351680000000 1.0
C      1  0.4914440000000  0.5020360000000  0.5057170000000 1.0
C      1  0.5518220000000  0.4744010000000  0.5582200000000 1.0
C      1  0.4829080000000  0.4600580000000  0.5335900000000 1.0
C      1  0.5568890000000  0.5211740000000  0.4042520000000 1.0
C      1  0.5778310000000  0.5418380000000  0.4650700000000 1.0
C      1  0.4611170000000  0.4677810000000  0.4180620000000 1.0
C      1  0.4349160000000  0.4258840000000  0.5483220000000 1.0
C      1  0.4700350000000  0.5570500000000  0.5744930000000 1.0
C      1  0.5277320000000  0.4247150000000  0.5222900000000 1.0
C      1  0.4239370000000  0.4435410000000  0.4678410000000 1.0
C      1  0.5115320000000  0.5047960000000  0.5293670000000 1.0
C      1  0.4610320000000  0.5312860000000  0.5816880000000 1.0
C      1  0.5424190000000  0.5663810000000  0.4877840000000 1.0
C      1  0.4453790000000  0.4328900000000  0.4510940000000 1.0
C      1  0.4883630000000  0.4402450000000  0.5770270000000 1.0
C      1  0.5991840000000  0.4741210000000  0.4774800000000 1.0
C      1  0.5016550000000  0.5854860000000  0.5518440000000 1.0
C      1  0.4645140000000  0.5715130000000  0.4398730000000 1.0
C      1  0.5556680000000  0.4328580000000  0.4813650000000 1.0
C      1  0.4712420000000  0.4891510000000  0.4629320000000 1.0
C      1  0.4674620000000  0.4562000000000  0.4907760000000 1.0
C      1  0.5606180000000  0.4701500000000  0.5294150000000 1.0
C      1  0.5031060000000  0.4157980000000  0.5313720000000 1.0
C      1  0.5833140000000  0.4656190000000  0.4546370000000 1.0
C      1  0.5379950000000  0.4508780000000  0.5654100000000 1.0
C      1  0.5155900000000  0.5423860000000  0.5679340000000 1.0
C      1  0.4622480000000  0.4062410000000  0.5138830000000 1.0
C      1  0.4685100000000  0.4840190000000  0.3979630000000 1.0
C      1  0.5310750000000  0.5180910000000  0.4415490000000 1.0
C      1  0.4284380000000  0.4847180000000  0.5887860000000 1.0
C      1  0.5337770000000  0.5094210000000  0.5092120000000 1.0
END
