TITL C-37224-9125-1 -0.046061069175815 125000 -205.457236674594 0 0 32 (C1) n - 1
REM
REM in /rds/project/t2_vol4/rds-t2-cs072/BORA/CARBON/from-Arr/AIRSS/Generating-Clusters/GAP-ML-2020/Only-C1/SD-CG/HFTN-CG
REM
REM
REM
REM
REM
REM ./C.cell (11c1c37f851c82e70ff6c80c92926a4b)
REM AIRSS Version 0.9.1 bugfix July 2018 build 013d7b7c2542+ Fri, 06 Jul 2018 19:26:36 +0100
REM compiler GCC version 9.3.0
REM options -cpp -mtune=generic -march=x86-64 -g -O0
REM seed 434816972 810832505 -2140096450 -1349066183 -1975728996 -1352910518 -366816964 643275517 -2048531267 31631488 246053374 2031179903 1875043570 320266267 1901397870 481343115 -636769684 -565051526 -1692838993 -127824646 547804124 -1305615686 970535401 -131713516 2141679451 413506135 1975672777 -1647954454 -1637282752 1789622868 1879842143 1639237935 1975033748
REM
CELL 1.54180   50.00000   50.00000   50.00000   90.00000   90.00000   90.00000
LATT -1
SFAC C  
C      1  0.5225160000000  0.5047280000000  0.5025390000000 1.0
C      1  0.5112610000000  0.5332850000000  0.5389070000000 1.0
C      1  0.5226060000000  0.5363400000000  0.4674850000000 1.0
C      1  0.5180370000000  0.5461670000000  0.5156630000000 1.0
C      1  0.4457750000000  0.5193580000000  0.4829070000000 1.0
C      1  0.5282480000000  0.5124550000000  0.5492060000000 1.0
C      1  0.4886910000000  0.4532850000000  0.4844470000000 1.0
C      1  0.4489040000000  0.4914010000000  0.4886770000000 1.0
C      1  0.4765660000000  0.4927130000000  0.4506810000000 1.0
C      1  0.5297820000000  0.5335440000000  0.4942080000000 1.0
C      1  0.4729270000000  0.4868990000000  0.5030870000000 1.0
C      1  0.4915540000000  0.5088180000000  0.5065660000000 1.0
C      1  0.5209650000000  0.4635880000000  0.5488450000000 1.0
C      1  0.5243610000000  0.5121150000000  0.4505710000000 1.0
C      1  0.4569450000000  0.5363980000000  0.5015320000000 1.0
C      1  0.5108770000000  0.4623170000000  0.4696140000000 1.0
C      1  0.4888560000000  0.4908600000000  0.5508070000000 1.0
C      1  0.4853980000000  0.5174530000000  0.5346660000000 1.0
C      1  0.4513190000000  0.5005580000000  0.4622290000000 1.0
C      1  0.4937700000000  0.5361850000000  0.4644350000000 1.0
C      1  0.4605030000000  0.5309660000000  0.5285350000000 1.0
C      1  0.5147260000000  0.4904260000000  0.5622990000000 1.0
C      1  0.4866200000000  0.4664060000000  0.4581260000000 1.0
C      1  0.4821070000000  0.5306350000000  0.4895920000000 1.0
C      1  0.4835860000000  0.4623950000000  0.5107610000000 1.0
C      1  0.5410630000000  0.4703270000000  0.5292270000000 1.0
C      1  0.4952310000000  0.5129500000000  0.4456760000000 1.0
C      1  0.5453020000000  0.4627590000000  0.5038530000000 1.0
C      1  0.5388130000000  0.4907440000000  0.4575350000000 1.0
C      1  0.5376130000000  0.4989700000000  0.5265490000000 1.0
C      1  0.4935490000000  0.4648440000000  0.5366680000000 1.0
C      1  0.5315250000000  0.4801130000000  0.4841060000000 1.0
END
