TITL C-37217-9226-2 -0.00520238341449639 125000 -93.1400570884322 0 0 15 (C1) n - 1
REM
REM in /rds/project/t2_vol4/rds-t2-cs072/BORA/CARBON/from-Arr/AIRSS/Generating-Clusters/GAP-ML-2020/Only-C1/SD-CG/HFTN-CG
REM
REM
REM
REM
REM
REM ./C.cell (11c1c37f851c82e70ff6c80c92926a4b)
REM AIRSS Version 0.9.1 bugfix July 2018 build 013d7b7c2542+ Fri, 06 Jul 2018 19:26:36 +0100
REM compiler GCC version 9.3.0
REM options -cpp -mtune=generic -march=x86-64 -g -O0
REM seed 2139966093 -1310265144 986161276 -127220377 -1554529482 -2063708977 1925412326 -1727519513 -414544578 813000871 -256151631 -1757430995 -484186040 -561318634 -1558232394 -1775934729 -451826309 -436623123 -1987255814 1673397207 -1904033881 -176551363 284501624 951308907 -1730420067 -375739529 -1808913464 -1051121202 -1805141417 1769038222 -1896452705 560236377 1421282224
REM
CELL 1.54180   50.00000   50.00000   50.00000   90.00000   90.00000   90.00000
LATT -1
SFAC C  
C      1  0.5155290000000  0.5249210000000  0.4773210000000 1.0
C      1  0.4498590000000  0.5061580000000  0.5011060000000 1.0
C      1  0.5079480000000  0.5352730000000  0.4992970000000 1.0
C      1  0.5058270000000  0.5028320000000  0.5353400000000 1.0
C      1  0.4869140000000  0.4935460000000  0.5522820000000 1.0
C      1  0.5221690000000  0.4847750000000  0.5226100000000 1.0
C      1  0.5301640000000  0.4785060000000  0.4551930000000 1.0
C      1  0.4724580000000  0.5404760000000  0.5296110000000 1.0
C      1  0.4982790000000  0.5300300000000  0.5240650000000 1.0
C      1  0.5240780000000  0.4987750000000  0.4740190000000 1.0
C      1  0.4572490000000  0.5252260000000  0.5168960000000 1.0
C      1  0.5272370000000  0.4794270000000  0.4967490000000 1.0
C      1  0.5339930000000  0.4586410000000  0.4779800000000 1.0
C      1  0.4396700000000  0.4893720000000  0.4844410000000 1.0
C      1  0.5286270000000  0.4520420000000  0.4530890000000 1.0
END
