TITL C-37222-9218-5 -0.0876128038827594 125000 -656.924038980882 0 0 96 (C1) n - 1
REM
REM in /rds/project/t2_vol4/rds-t2-cs072/BORA/CARBON/from-Arr/AIRSS/Generating-Clusters/GAP-ML-2020/Only-C1/SD-CG/HFTN-CG
REM
REM
REM
REM
REM
REM ./C.cell (11c1c37f851c82e70ff6c80c92926a4b)
REM AIRSS Version 0.9.1 bugfix July 2018 build 013d7b7c2542+ Fri, 06 Jul 2018 19:26:36 +0100
REM compiler GCC version 9.3.0
REM options -cpp -mtune=generic -march=x86-64 -g -O0
REM seed 280036804 -1484400384 317895768 -883215126 1869198275 -595755486 -1511020472 -1087691880 498314968 -1846314144 -492159849 -1795846691 238974524 -788709312 -2110028413 -1568786218 -79298249 -2084796556 2029553897 -1552813406 775914733 403401993 -1897593766 -2000289588 583604432 -1642272294 -631946574 1255157691 197814911 363340362 1365280411 1632002584 -1293659880
REM
CELL 1.54180   50.00000   50.00000   50.00000   90.00000   90.00000   90.00000
LATT -1
SFAC C  
C      1  0.4805170000000  0.4590150000000  0.5588550000000 1.0
C      1  0.5239750000000  0.5188320000000  0.5040740000000 1.0
C      1  0.4184300000000  0.5424310000000  0.5205320000000 1.0
C      1  0.5736610000000  0.4730710000000  0.4944470000000 1.0
C      1  0.4744250000000  0.5075200000000  0.4358420000000 1.0
C      1  0.4489220000000  0.5562020000000  0.4560660000000 1.0
C      1  0.4177130000000  0.5207520000000  0.4700690000000 1.0
C      1  0.5005060000000  0.5859840000000  0.5135540000000 1.0
C      1  0.4914490000000  0.5240620000000  0.5790290000000 1.0
C      1  0.4943860000000  0.5222110000000  0.4939150000000 1.0
C      1  0.5477110000000  0.4421250000000  0.5484100000000 1.0
C      1  0.5217610000000  0.4282590000000  0.5514260000000 1.0
C      1  0.4661070000000  0.3990240000000  0.5005070000000 1.0
C      1  0.5257360000000  0.4975240000000  0.4343380000000 1.0
C      1  0.4526740000000  0.4998090000000  0.5002720000000 1.0
C      1  0.4786340000000  0.5423510000000  0.5370960000000 1.0
C      1  0.5502580000000  0.4766040000000  0.4764540000000 1.0
C      1  0.5139080000000  0.4751010000000  0.5131880000000 1.0
C      1  0.5079590000000  0.5443580000000  0.5417390000000 1.0
C      1  0.5720080000000  0.4463360000000  0.5018470000000 1.0
C      1  0.5697060000000  0.5416550000000  0.4986090000000 1.0
C      1  0.5139220000000  0.4153500000000  0.5028020000000 1.0
C      1  0.4355620000000  0.5575660000000  0.5370370000000 1.0
C      1  0.4769750000000  0.5593580000000  0.4500710000000 1.0
C      1  0.5419960000000  0.5674090000000  0.5536390000000 1.0
C      1  0.5113000000000  0.5808770000000  0.4867150000000 1.0
C      1  0.4881210000000  0.5339570000000  0.4409740000000 1.0
C      1  0.4813880000000  0.4891780000000  0.4608970000000 1.0
C      1  0.5110100000000  0.5409180000000  0.4239620000000 1.0
C      1  0.4790090000000  0.4937750000000  0.4905190000000 1.0
C      1  0.4451430000000  0.5074340000000  0.4364110000000 1.0
C      1  0.5530720000000  0.5146250000000  0.5472290000000 1.0
C      1  0.4937680000000  0.4343690000000  0.5586740000000 1.0
C      1  0.4658530000000  0.4201070000000  0.5189280000000 1.0
C      1  0.5436670000000  0.4765450000000  0.4315990000000 1.0
C      1  0.5290080000000  0.4530750000000  0.4396890000000 1.0
C      1  0.4787060000000  0.4428250000000  0.4470060000000 1.0
C      1  0.5103540000000  0.4106920000000  0.5311600000000 1.0
C      1  0.4451800000000  0.5107620000000  0.5538270000000 1.0
C      1  0.5327780000000  0.4983480000000  0.5876010000000 1.0
C      1  0.5428160000000  0.4164960000000  0.5031540000000 1.0
C      1  0.4474020000000  0.4553370000000  0.4861310000000 1.0
C      1  0.5163190000000  0.5147970000000  0.4152810000000 1.0
C      1  0.4728980000000  0.5848730000000  0.5185590000000 1.0
C      1  0.4642600000000  0.4497590000000  0.5116050000000 1.0
C      1  0.4831420000000  0.4151680000000  0.5402020000000 1.0
C      1  0.4245800000000  0.4720220000000  0.4914940000000 1.0
C      1  0.5825790000000  0.4986070000000  0.5028560000000 1.0
C      1  0.5773520000000  0.5409950000000  0.5258590000000 1.0
C      1  0.5217860000000  0.5697100000000  0.5292240000000 1.0
C      1  0.5319940000000  0.5683790000000  0.5013780000000 1.0
C      1  0.4944030000000  0.4695700000000  0.4095140000000 1.0
C      1  0.5247510000000  0.5570120000000  0.4439810000000 1.0
C      1  0.5272980000000  0.5646450000000  0.5778540000000 1.0
C      1  0.5595010000000  0.5455380000000  0.5475750000000 1.0
C      1  0.4278290000000  0.5316800000000  0.5449610000000 1.0
C      1  0.4370310000000  0.4831170000000  0.4494620000000 1.0
C      1  0.5075780000000  0.4434800000000  0.4836790000000 1.0
C      1  0.5238400000000  0.5170570000000  0.5339080000000 1.0
C      1  0.4700700000000  0.5242500000000  0.5594080000000 1.0
C      1  0.4235800000000  0.5403470000000  0.4919760000000 1.0
C      1  0.5373850000000  0.5378440000000  0.4625870000000 1.0
C      1  0.4909290000000  0.4644710000000  0.5002920000000 1.0
C      1  0.5414930000000  0.5437590000000  0.4915800000000 1.0
C      1  0.5008680000000  0.4514920000000  0.4293970000000 1.0
C      1  0.5778920000000  0.5194800000000  0.4830180000000 1.0
C      1  0.4609580000000  0.5696330000000  0.4980850000000 1.0
C      1  0.5546270000000  0.4319340000000  0.4819990000000 1.0
C      1  0.4192620000000  0.4906350000000  0.4693440000000 1.0
C      1  0.5613450000000  0.5184660000000  0.4591240000000 1.0
C      1  0.5104360000000  0.4908740000000  0.5369840000000 1.0
C      1  0.5525290000000  0.4909360000000  0.5692180000000 1.0
C      1  0.4387350000000  0.5640070000000  0.4810990000000 1.0
C      1  0.5776750000000  0.5121580000000  0.5280200000000 1.0
C      1  0.5267440000000  0.4914830000000  0.4902680000000 1.0
C      1  0.4417520000000  0.4846340000000  0.5401970000000 1.0
C      1  0.5108770000000  0.4960500000000  0.4617060000000 1.0
C      1  0.5062660000000  0.5249380000000  0.4654500000000 1.0
C      1  0.4727770000000  0.5399680000000  0.5060030000000 1.0
C      1  0.5350220000000  0.4500000000000  0.4688750000000 1.0
C      1  0.4340480000000  0.5309270000000  0.4486150000000 1.0
C      1  0.5561390000000  0.4652290000000  0.5611030000000 1.0
C      1  0.4929830000000  0.4965350000000  0.4148560000000 1.0
C      1  0.4603550000000  0.4642580000000  0.4589780000000 1.0
C      1  0.5059690000000  0.5000050000000  0.5833300000000 1.0
C      1  0.5577880000000  0.4909700000000  0.4516360000000 1.0
C      1  0.5079650000000  0.5467010000000  0.5717150000000 1.0
C      1  0.4488670000000  0.5264740000000  0.4986190000000 1.0
C      1  0.4990210000000  0.4809730000000  0.5614810000000 1.0
C      1  0.4884980000000  0.4055330000000  0.4860770000000 1.0
C      1  0.4896190000000  0.4264950000000  0.4668050000000 1.0
C      1  0.5032120000000  0.5713110000000  0.4601290000000 1.0
C      1  0.4588330000000  0.4624980000000  0.5396370000000 1.0
C      1  0.4303600000000  0.4871210000000  0.5144660000000 1.0
C      1  0.5584020000000  0.4315260000000  0.5230850000000 1.0
C      1  0.4621030000000  0.5674480000000  0.5391460000000 1.0
END
