TITL C-37229-9184-5 37.8042873938899 125000 -319.577260574647 0 0 49 (C1) n - 1
REM
REM in /rds/project/t2_vol4/rds-t2-cs072/BORA/CARBON/from-Arr/AIRSS/Generating-Clusters/GAP-ML-2020/Only-C1/SD-CG/HFTN-CG
REM
REM
REM
REM
REM
REM ./C.cell (11c1c37f851c82e70ff6c80c92926a4b)
REM AIRSS Version 0.9.1 bugfix July 2018 build 013d7b7c2542+ Fri, 06 Jul 2018 19:26:36 +0100
REM compiler GCC version 9.3.0
REM options -cpp -mtune=generic -march=x86-64 -g -O0
REM seed -721745803 1694276257 1833097357 -106052280 -155831282 1713214266 767089431 792521557 -337907933 3994466 -1874431784 457231566 681989754 373847640 1277606920 -789188840 -161922462 1601281142 232989887 -1558991869 1265458015 -193662884 -1081494665 -1355976695 -1042619621 1419625247 1775103819 361560270 -1488905392 -1886880173 -541165758 1078820913 -766272882
REM
CELL 1.54180   50.00000   50.00000   50.00000   90.00000   90.00000   90.00000
LATT -1
SFAC C  
C      1  0.4779990000000  0.4581760000000  0.5146110000000 1.0
C      1  0.4519930000000  0.5134860000000  0.4928110000000 1.0
C      1  0.5061770000000  0.4659470000000  0.5536570000000 1.0
C      1  0.4966260000000  0.5234780000000  0.5561160000000 1.0
C      1  0.4981340000000  0.4457020000000  0.5341910000000 1.0
C      1  0.5382420000000  0.4462270000000  0.4754770000000 1.0
C      1  0.4982250000000  0.4579750000000  0.4435520000000 1.0
C      1  0.4660850000000  0.4812730000000  0.5297960000000 1.0
C      1  0.4837910000000  0.5632000000000  0.5251950000000 1.0
C      1  0.4405610000000  0.4925300000000  0.4750880000000 1.0
C      1  0.4974330000000  0.5466350000000  0.5004990000000 1.0
C      1  0.5358250000000  0.5534600000000  0.5194090000000 1.0
C      1  0.4357740000000  0.4663260000000  0.4835500000000 1.0
C      1  0.5508960000000  0.4666440000000  0.4936630000000 1.0
C      1  0.5535270000000  0.5386760000000  0.5001730000000 1.0
C      1  0.5391500000000  0.4638960000000  0.5212250000000 1.0
C      1  0.4999410000000  0.4605420000000  0.4907750000000 1.0
C      1  0.4741680000000  0.5190620000000  0.4717430000000 1.0
C      1  0.4768600000000  0.4746890000000  0.4473090000000 1.0
C      1  0.5480330000000  0.5202020000000  0.4798880000000 1.0
C      1  0.5385930000000  0.5296800000000  0.5356560000000 1.0
C      1  0.5239100000000  0.4393950000000  0.5209780000000 1.0
C      1  0.5152800000000  0.4857540000000  0.4816620000000 1.0
C      1  0.4556940000000  0.5293400000000  0.5332540000000 1.0
C      1  0.4974600000000  0.5181510000000  0.5101620000000 1.0
C      1  0.5235830000000  0.5267520000000  0.4662040000000 1.0
C      1  0.4617130000000  0.4981330000000  0.4545270000000 1.0
C      1  0.5153360000000  0.5120750000000  0.5356160000000 1.0
C      1  0.4870610000000  0.4802620000000  0.5691120000000 1.0
C      1  0.5115150000000  0.5665370000000  0.5161810000000 1.0
C      1  0.5189420000000  0.4362970000000  0.4930700000000 1.0
C      1  0.5387860000000  0.4847570000000  0.4491860000000 1.0
C      1  0.4436140000000  0.5388570000000  0.5085220000000 1.0
C      1  0.5580660000000  0.5176450000000  0.5192410000000 1.0
C      1  0.4681840000000  0.5073900000000  0.5176220000000 1.0
C      1  0.4594960000000  0.4528800000000  0.4902290000000 1.0
C      1  0.4624170000000  0.4794340000000  0.5573660000000 1.0
C      1  0.5456930000000  0.4907310000000  0.4782710000000 1.0
C      1  0.5179130000000  0.5462920000000  0.4449530000000 1.0
C      1  0.5246940000000  0.4823220000000  0.5395680000000 1.0
C      1  0.4765700000000  0.5486530000000  0.4800550000000 1.0
C      1  0.4801200000000  0.4551870000000  0.4695200000000 1.0
C      1  0.4614600000000  0.5600410000000  0.5009650000000 1.0
C      1  0.5261080000000  0.4590490000000  0.4500600000000 1.0
C      1  0.5023980000000  0.5107290000000  0.4818300000000 1.0
C      1  0.5248640000000  0.5070800000000  0.4415250000000 1.0
C      1  0.4925180000000  0.5067080000000  0.5762760000000 1.0
C      1  0.4776010000000  0.5429500000000  0.5446820000000 1.0
C      1  0.5209690000000  0.5287930000000  0.4249810000000 1.0
END
