TITL C-37206-9424-4 0.038590644626097 125000 -659.17046195035 0 0 95 (C1) n - 1
REM
REM in /rds/project/t2_vol4/rds-t2-cs072/BORA/CARBON/from-Arr/AIRSS/Generating-Clusters/GAP-ML-2020/Only-C1/SD-CG/HFTN-CG
REM
REM
REM
REM
REM
REM ./C.cell (11c1c37f851c82e70ff6c80c92926a4b)
REM AIRSS Version 0.9.1 bugfix July 2018 build 013d7b7c2542+ Fri, 06 Jul 2018 19:26:36 +0100
REM compiler GCC version 9.3.0
REM options -cpp -mtune=generic -march=x86-64 -g -O0
REM seed 529881207 1439363 322316048 796697408 1827743553 -1999424076 -328224865 -1647830073 -894286080 971775143 1936406801 1136251989 -1620336297 1593724296 -822038872 -312829166 -1563143738 850747222 -483078582 -1808735875 1981964101 -1298200035 -320564182 -1218051369 969702951 -1212820628 -1084088380 -1384658728 1609039075 107983961 -151164092 2046717360 -1486394862
REM
CELL 1.54180   50.00000   50.00000   50.00000   90.00000   90.00000   90.00000
LATT -1
SFAC C  
C      1  0.4884460000000  0.5395770000000  0.5795290000000 1.0
C      1  0.5260390000000  0.5798670000000  0.5214630000000 1.0
C      1  0.5284330000000  0.4449500000000  0.5082810000000 1.0
C      1  0.4577110000000  0.4471300000000  0.4479900000000 1.0
C      1  0.4622390000000  0.5370350000000  0.4677750000000 1.0
C      1  0.4410260000000  0.4656360000000  0.4624380000000 1.0
C      1  0.5612750000000  0.5414070000000  0.5679040000000 1.0
C      1  0.4470790000000  0.5491560000000  0.4336750000000 1.0
C      1  0.4890610000000  0.4525180000000  0.5578790000000 1.0
C      1  0.5512010000000  0.5646410000000  0.5565440000000 1.0
C      1  0.4455390000000  0.5206780000000  0.4257340000000 1.0
C      1  0.5665220000000  0.4849540000000  0.5020590000000 1.0
C      1  0.5203570000000  0.5316340000000  0.4231060000000 1.0
C      1  0.4269410000000  0.5550870000000  0.4846010000000 1.0
C      1  0.4871270000000  0.5218650000000  0.4984770000000 1.0
C      1  0.5728650000000  0.4756430000000  0.4728080000000 1.0
C      1  0.5834780000000  0.5343900000000  0.5088410000000 1.0
C      1  0.5236380000000  0.5670730000000  0.5644580000000 1.0
C      1  0.4756680000000  0.5147400000000  0.5859290000000 1.0
C      1  0.4346190000000  0.4932760000000  0.5680980000000 1.0
C      1  0.5631940000000  0.4554410000000  0.4538490000000 1.0
C      1  0.4708570000000  0.5543290000000  0.5610800000000 1.0
C      1  0.5208560000000  0.4783170000000  0.4600410000000 1.0
C      1  0.4913660000000  0.4929130000000  0.4126320000000 1.0
C      1  0.5279040000000  0.4358480000000  0.4272300000000 1.0
C      1  0.5187500000000  0.5702130000000  0.4960120000000 1.0
C      1  0.5358300000000  0.4951130000000  0.5027170000000 1.0
C      1  0.5131970000000  0.4242280000000  0.4916190000000 1.0
C      1  0.5526550000000  0.5708830000000  0.5290710000000 1.0
C      1  0.5422440000000  0.4188590000000  0.5408500000000 1.0
C      1  0.4761200000000  0.5645630000000  0.4666930000000 1.0
C      1  0.4452130000000  0.5509430000000  0.5082720000000 1.0
C      1  0.4805270000000  0.5711350000000  0.5397000000000 1.0
C      1  0.4937490000000  0.4641990000000  0.4142000000000 1.0
C      1  0.5641640000000  0.5548830000000  0.5089610000000 1.0
C      1  0.5439530000000  0.4347950000000  0.4511820000000 1.0
C      1  0.5345710000000  0.5221850000000  0.5148630000000 1.0
C      1  0.4897660000000  0.4899300000000  0.5841310000000 1.0
C      1  0.5392250000000  0.5466570000000  0.4920790000000 1.0
C      1  0.4737220000000  0.4670500000000  0.5766720000000 1.0
C      1  0.4503760000000  0.4421990000000  0.4749880000000 1.0
C      1  0.5206600000000  0.4220860000000  0.4648620000000 1.0
C      1  0.4599670000000  0.4313060000000  0.4993480000000 1.0
C      1  0.5433290000000  0.5352690000000  0.4390730000000 1.0
C      1  0.5733360000000  0.4951930000000  0.4503590000000 1.0
C      1  0.4355640000000  0.4928530000000  0.4691910000000 1.0
C      1  0.4916160000000  0.4722160000000  0.4979250000000 1.0
C      1  0.4350760000000  0.5349450000000  0.5319170000000 1.0
C      1  0.4468000000000  0.4670230000000  0.5693800000000 1.0
C      1  0.5615040000000  0.4764060000000  0.4323850000000 1.0
C      1  0.5161740000000  0.4718380000000  0.5138100000000 1.0
C      1  0.4809370000000  0.4930000000000  0.5348370000000 1.0
C      1  0.5422830000000  0.4958920000000  0.5710310000000 1.0
C      1  0.4670320000000  0.4789550000000  0.5120180000000 1.0
C      1  0.4449100000000  0.5003690000000  0.4977890000000 1.0
C      1  0.4472790000000  0.5384320000000  0.5571980000000 1.0
C      1  0.4953400000000  0.4790660000000  0.4715620000000 1.0
C      1  0.4828520000000  0.5211730000000  0.4522880000000 1.0
C      1  0.4916110000000  0.4143550000000  0.5307880000000 1.0
C      1  0.4970110000000  0.5093200000000  0.4749100000000 1.0
C      1  0.5220620000000  0.4588830000000  0.4133580000000 1.0
C      1  0.5596590000000  0.4834320000000  0.5529130000000 1.0
C      1  0.4358520000000  0.4603640000000  0.5421430000000 1.0
C      1  0.5037400000000  0.4266550000000  0.4403090000000 1.0
C      1  0.4489050000000  0.5159710000000  0.5747790000000 1.0
C      1  0.4321190000000  0.5425880000000  0.4588570000000 1.0
C      1  0.5168820000000  0.5281220000000  0.5341580000000 1.0
C      1  0.5501640000000  0.4417530000000  0.5265160000000 1.0
C      1  0.4941340000000  0.5403850000000  0.4319420000000 1.0
C      1  0.4296770000000  0.5133010000000  0.4502330000000 1.0
C      1  0.5042820000000  0.4742750000000  0.5441810000000 1.0
C      1  0.5630170000000  0.4683740000000  0.5308010000000 1.0
C      1  0.5653990000000  0.5223690000000  0.4483760000000 1.0
C      1  0.4560420000000  0.4496000000000  0.5235060000000 1.0
C      1  0.4748780000000  0.5617840000000  0.4375110000000 1.0
C      1  0.4936800000000  0.5167020000000  0.5252310000000 1.0
C      1  0.5151470000000  0.4862320000000  0.5695320000000 1.0
C      1  0.4727770000000  0.5103200000000  0.4263360000000 1.0
C      1  0.4864620000000  0.4177580000000  0.5023530000000 1.0
C      1  0.5430880000000  0.5290130000000  0.4682270000000 1.0
C      1  0.4814000000000  0.4439310000000  0.4315550000000 1.0
C      1  0.4895350000000  0.5711060000000  0.4904750000000 1.0
C      1  0.5163340000000  0.5438660000000  0.5790100000000 1.0
C      1  0.5417580000000  0.5251030000000  0.5774750000000 1.0
C      1  0.4283900000000  0.5076880000000  0.5227360000000 1.0
C      1  0.5383390000000  0.4817350000000  0.4159050000000 1.0
C      1  0.4755200000000  0.4344750000000  0.5418770000000 1.0
C      1  0.5275370000000  0.5031320000000  0.4747850000000 1.0
C      1  0.5079820000000  0.5780280000000  0.5434550000000 1.0
C      1  0.4702280000000  0.5691330000000  0.5130840000000 1.0
C      1  0.5186660000000  0.5038140000000  0.4135710000000 1.0
C      1  0.4594100000000  0.5263380000000  0.4946190000000 1.0
C      1  0.5834790000000  0.5092680000000  0.5043480000000 1.0
C      1  0.4248690000000  0.4875020000000  0.5412960000000 1.0
C      1  0.5178050000000  0.4113630000000  0.5394440000000 1.0
END
