TITL C-37214-9158-6 -40.5990366099852 125000 -678.00724025379 0 0 98 (C1) n - 1
REM
REM in /rds/project/t2_vol4/rds-t2-cs072/BORA/CARBON/from-Arr/AIRSS/Generating-Clusters/GAP-ML-2020/Only-C1/SD-CG/HFTN-CG
REM
REM
REM
REM
REM
REM ./C.cell (11c1c37f851c82e70ff6c80c92926a4b)
REM AIRSS Version 0.9.1 bugfix July 2018 build 013d7b7c2542+ Fri, 06 Jul 2018 19:26:36 +0100
REM compiler GCC version 9.3.0
REM options -cpp -mtune=generic -march=x86-64 -g -O0
REM seed -1520783007 -945752441 -2026447025 -1364362989 -1476635935 -613000185 -1441559721 1741602860 -1607219319 1184433217 -1760664232 -952075969 -1991481331 -307709674 -1092326216 -1921120652 -1057896452 895033948 -123842082 -842699229 1808511237 725879132 1283192530 882571537 938600493 1522474160 -867431558 -1191730759 1542150425 16484392 -1259987576 -1438628322 -1381157812
REM
CELL 1.54180   50.00000   50.00000   50.00000   90.00000   90.00000   90.00000
LATT -1
SFAC C  
C      1  0.4489540000000  0.5036030000000  0.5700360000000 1.0
C      1  0.5116360000000  0.4478780000000  0.4948580000000 1.0
C      1  0.5418300000000  0.5409870000000  0.5630150000000 1.0
C      1  0.4643220000000  0.4261640000000  0.4849520000000 1.0
C      1  0.5628590000000  0.5355720000000  0.4938820000000 1.0
C      1  0.4246680000000  0.4998190000000  0.5292680000000 1.0
C      1  0.5604360000000  0.5057970000000  0.4909330000000 1.0
C      1  0.4485160000000  0.5187930000000  0.4860640000000 1.0
C      1  0.5813340000000  0.4846660000000  0.4910920000000 1.0
C      1  0.5123210000000  0.5169720000000  0.5895350000000 1.0
C      1  0.5572250000000  0.5482970000000  0.5186660000000 1.0
C      1  0.5128270000000  0.4738840000000  0.4621800000000 1.0
C      1  0.5294760000000  0.4673260000000  0.4860050000000 1.0
C      1  0.4083030000000  0.5108660000000  0.4831450000000 1.0
C      1  0.5656100000000  0.4445260000000  0.5118530000000 1.0
C      1  0.4559550000000  0.4673670000000  0.4665510000000 1.0
C      1  0.5002080000000  0.4276900000000  0.5453180000000 1.0
C      1  0.5229730000000  0.4253670000000  0.5282470000000 1.0
C      1  0.5017390000000  0.5272730000000  0.4914800000000 1.0
C      1  0.5718470000000  0.5075070000000  0.5494370000000 1.0
C      1  0.5154390000000  0.4192490000000  0.4999580000000 1.0
C      1  0.4976000000000  0.5395730000000  0.5785040000000 1.0
C      1  0.5127630000000  0.5508940000000  0.4263520000000 1.0
C      1  0.5822130000000  0.4692380000000  0.5148470000000 1.0
C      1  0.5333530000000  0.5305910000000  0.4209300000000 1.0
C      1  0.4825170000000  0.4448510000000  0.4362690000000 1.0
C      1  0.5061020000000  0.5208840000000  0.4647650000000 1.0
C      1  0.4515770000000  0.5331190000000  0.5646570000000 1.0
C      1  0.5558050000000  0.5009380000000  0.4605960000000 1.0
C      1  0.5341060000000  0.4714720000000  0.5353970000000 1.0
C      1  0.4860260000000  0.4836950000000  0.4069530000000 1.0
C      1  0.4867440000000  0.5393150000000  0.4225000000000 1.0
C      1  0.5611660000000  0.5280260000000  0.4477430000000 1.0
C      1  0.4437100000000  0.5763530000000  0.4728940000000 1.0
C      1  0.4237950000000  0.5329980000000  0.4965050000000 1.0
C      1  0.5618230000000  0.5351200000000  0.5436130000000 1.0
C      1  0.4947400000000  0.4626550000000  0.5108170000000 1.0
C      1  0.5151390000000  0.4695360000000  0.5782840000000 1.0
C      1  0.5202350000000  0.5039090000000  0.4250790000000 1.0
C      1  0.4844430000000  0.4152310000000  0.5022970000000 1.0
C      1  0.5393720000000  0.5199890000000  0.5818980000000 1.0
C      1  0.4441570000000  0.5432880000000  0.5382410000000 1.0
C      1  0.4533890000000  0.4393780000000  0.5298700000000 1.0
C      1  0.5547030000000  0.4987070000000  0.5720570000000 1.0
C      1  0.5086230000000  0.5161590000000  0.5378470000000 1.0
C      1  0.4380360000000  0.5039960000000  0.4375110000000 1.0
C      1  0.4895240000000  0.4880440000000  0.4999510000000 1.0
C      1  0.4811430000000  0.5078580000000  0.4525770000000 1.0
C      1  0.5441160000000  0.4438490000000  0.5295920000000 1.0
C      1  0.4882570000000  0.4967100000000  0.5431850000000 1.0
C      1  0.5147450000000  0.5094220000000  0.5097610000000 1.0
C      1  0.5277830000000  0.5777310000000  0.4917310000000 1.0
C      1  0.4325640000000  0.4823810000000  0.4519780000000 1.0
C      1  0.4159050000000  0.4859850000000  0.4752310000000 1.0
C      1  0.4455270000000  0.4411720000000  0.5022570000000 1.0
C      1  0.4718640000000  0.5287580000000  0.5023700000000 1.0
C      1  0.5158600000000  0.5696290000000  0.4480850000000 1.0
C      1  0.4877420000000  0.5725150000000  0.5154650000000 1.0
C      1  0.5393460000000  0.4765540000000  0.5652290000000 1.0
C      1  0.4707680000000  0.5011480000000  0.5176320000000 1.0
C      1  0.5843760000000  0.4876840000000  0.5352850000000 1.0
C      1  0.5354910000000  0.5676870000000  0.5168830000000 1.0
C      1  0.5260320000000  0.4992940000000  0.4544920000000 1.0
C      1  0.4436070000000  0.4916730000000  0.5079750000000 1.0
C      1  0.5089570000000  0.4582150000000  0.4368380000000 1.0
C      1  0.4711900000000  0.5438890000000  0.5812900000000 1.0
C      1  0.4739530000000  0.4892340000000  0.5743880000000 1.0
C      1  0.4653800000000  0.5474890000000  0.4394910000000 1.0
C      1  0.5367750000000  0.4900360000000  0.5063970000000 1.0
C      1  0.4699620000000  0.4614080000000  0.5677010000000 1.0
C      1  0.4544060000000  0.5225110000000  0.4530710000000 1.0
C      1  0.4834350000000  0.4842780000000  0.4703290000000 1.0
C      1  0.5001480000000  0.4912090000000  0.5882160000000 1.0
C      1  0.4651920000000  0.5719160000000  0.4544800000000 1.0
C      1  0.4483090000000  0.4595710000000  0.5502020000000 1.0
C      1  0.4383790000000  0.4677040000000  0.4914750000000 1.0
C      1  0.5141550000000  0.5458890000000  0.5533570000000 1.0
C      1  0.5111780000000  0.5663920000000  0.5323380000000 1.0
C      1  0.5034240000000  0.4702190000000  0.5375950000000 1.0
C      1  0.4241740000000  0.5283500000000  0.5255820000000 1.0
C      1  0.5380400000000  0.5687190000000  0.4669510000000 1.0
C      1  0.4393710000000  0.5605730000000  0.4937910000000 1.0
C      1  0.5741680000000  0.4749750000000  0.4648500000000 1.0
C      1  0.4924920000000  0.5789030000000  0.4624070000000 1.0
C      1  0.5731940000000  0.4478840000000  0.4638250000000 1.0
C      1  0.4618710000000  0.5549510000000  0.5152340000000 1.0
C      1  0.5573250000000  0.5476650000000  0.4688740000000 1.0
C      1  0.5610150000000  0.4313740000000  0.4845950000000 1.0
C      1  0.4344490000000  0.4861080000000  0.5525090000000 1.0
C      1  0.4971490000000  0.4518550000000  0.5614380000000 1.0
C      1  0.4659840000000  0.4400780000000  0.4600860000000 1.0
C      1  0.4993090000000  0.5816530000000  0.4905230000000 1.0
C      1  0.5139540000000  0.4767150000000  0.4147500000000 1.0
C      1  0.4898660000000  0.5097150000000  0.4235170000000 1.0
C      1  0.4771330000000  0.4222030000000  0.5294770000000 1.0
C      1  0.5390720000000  0.4136000000000  0.4839200000000 1.0
C      1  0.5605600000000  0.5346960000000  0.4207700000000 1.0
C      1  0.4707710000000  0.4624140000000  0.4171550000000 1.0
END
