TITL C-37218-9329-5 0.0507044585715696 125000 -599.895413526533 0 0 85 (C1) n - 1
REM
REM in /rds/project/t2_vol4/rds-t2-cs072/BORA/CARBON/from-Arr/AIRSS/Generating-Clusters/GAP-ML-2020/Only-C1/SD-CG/HFTN-CG
REM
REM
REM
REM
REM
REM ./C.cell (11c1c37f851c82e70ff6c80c92926a4b)
REM AIRSS Version 0.9.1 bugfix July 2018 build 013d7b7c2542+ Fri, 06 Jul 2018 19:26:36 +0100
REM compiler GCC version 9.3.0
REM options -cpp -mtune=generic -march=x86-64 -g -O0
REM seed -463077592 113164460 -681158572 -1086017792 1431012588 1876104210 1822092503 1192778393 1275716086 -1965461044 -1432775485 -993415799 -1978425920 1920396476 -1344387749 -273155917 954011053 839968030 -324144720 607394687 143153647 -1561365045 1335188206 13094836 1528533978 -1182223883 1337583693 -519045666 1763529622 -276145224 197207077 -1666241117 1104931076
REM
CELL 1.54180   50.00000   50.00000   50.00000   90.00000   90.00000   90.00000
LATT -1
SFAC C  
C      1  0.4837150000000  0.4682020000000  0.4978290000000 1.0
C      1  0.5449290000000  0.5048780000000  0.5257030000000 1.0
C      1  0.4386350000000  0.5521720000000  0.4996740000000 1.0
C      1  0.5239590000000  0.4274610000000  0.4515790000000 1.0
C      1  0.5194390000000  0.5105940000000  0.4869290000000 1.0
C      1  0.5649390000000  0.4882210000000  0.5390320000000 1.0
C      1  0.4384080000000  0.5459770000000  0.4711300000000 1.0
C      1  0.4735230000000  0.5399850000000  0.4334700000000 1.0
C      1  0.4220730000000  0.4867160000000  0.5472590000000 1.0
C      1  0.4604990000000  0.5553650000000  0.4551360000000 1.0
C      1  0.4742760000000  0.5112430000000  0.4737830000000 1.0
C      1  0.4962550000000  0.4676930000000  0.4476620000000 1.0
C      1  0.5352370000000  0.5283980000000  0.5429460000000 1.0
C      1  0.4505880000000  0.4538650000000  0.4718480000000 1.0
C      1  0.4864910000000  0.4908580000000  0.5384320000000 1.0
C      1  0.5138770000000  0.4329460000000  0.4771670000000 1.0
C      1  0.5037270000000  0.5218230000000  0.5080380000000 1.0
C      1  0.5534350000000  0.4756110000000  0.4697300000000 1.0
C      1  0.4284600000000  0.4722520000000  0.4735710000000 1.0
C      1  0.4153440000000  0.5115960000000  0.4940730000000 1.0
C      1  0.4585080000000  0.5626350000000  0.5194990000000 1.0
C      1  0.5272900000000  0.5716960000000  0.4870660000000 1.0
C      1  0.4457370000000  0.4516930000000  0.5247070000000 1.0
C      1  0.4860400000000  0.5710500000000  0.5164820000000 1.0
C      1  0.4796570000000  0.4900430000000  0.5680180000000 1.0
C      1  0.5889890000000  0.5351240000000  0.5076460000000 1.0
C      1  0.4173410000000  0.4827770000000  0.4979760000000 1.0
C      1  0.5044060000000  0.4622950000000  0.4767380000000 1.0
C      1  0.5033340000000  0.5626810000000  0.5381710000000 1.0
C      1  0.5445230000000  0.5220380000000  0.4374600000000 1.0
C      1  0.4957950000000  0.5444100000000  0.5594670000000 1.0
C      1  0.5819130000000  0.4787240000000  0.5180520000000 1.0
C      1  0.5487810000000  0.5160630000000  0.4973990000000 1.0
C      1  0.5087580000000  0.4971140000000  0.5697420000000 1.0
C      1  0.5073650000000  0.4289820000000  0.5490780000000 1.0
C      1  0.4685640000000  0.5270920000000  0.4096390000000 1.0
C      1  0.5271030000000  0.4783060000000  0.5155360000000 1.0
C      1  0.5305840000000  0.5552870000000  0.5324810000000 1.0
C      1  0.5426140000000  0.4726310000000  0.4416630000000 1.0
C      1  0.4294210000000  0.5321100000000  0.5404060000000 1.0
C      1  0.5256430000000  0.4286340000000  0.5271320000000 1.0
C      1  0.5904080000000  0.4979840000000  0.4975720000000 1.0
C      1  0.5283250000000  0.5467830000000  0.4419990000000 1.0
C      1  0.4782690000000  0.4601430000000  0.5671160000000 1.0
C      1  0.5016630000000  0.4956360000000  0.4380470000000 1.0
C      1  0.5629640000000  0.4534050000000  0.4840970000000 1.0
C      1  0.4807570000000  0.4248780000000  0.5379950000000 1.0
C      1  0.5091970000000  0.4224140000000  0.5031350000000 1.0
C      1  0.4860690000000  0.5644500000000  0.4658150000000 1.0
C      1  0.4317150000000  0.4940440000000  0.4546520000000 1.0
C      1  0.4688720000000  0.5382540000000  0.5636960000000 1.0
C      1  0.5486650000000  0.4675420000000  0.5523900000000 1.0
C      1  0.4629190000000  0.4443470000000  0.5472120000000 1.0
C      1  0.5678650000000  0.5013560000000  0.4775610000000 1.0
C      1  0.5230900000000  0.4518480000000  0.4392850000000 1.0
C      1  0.5052030000000  0.4510750000000  0.5669210000000 1.0
C      1  0.4983180000000  0.5737620000000  0.4897870000000 1.0
C      1  0.5434240000000  0.5631210000000  0.5091370000000 1.0
C      1  0.5635720000000  0.5479060000000  0.4693100000000 1.0
C      1  0.4221090000000  0.5327570000000  0.5127500000000 1.0
C      1  0.4596880000000  0.5118160000000  0.5709270000000 1.0
C      1  0.5158090000000  0.5240300000000  0.5630050000000 1.0
C      1  0.5689320000000  0.4549930000000  0.5103000000000 1.0
C      1  0.5313480000000  0.4971610000000  0.4323560000000 1.0
C      1  0.4250780000000  0.5191950000000  0.4683960000000 1.0
C      1  0.4810890000000  0.5099060000000  0.5185840000000 1.0
C      1  0.5243260000000  0.4727360000000  0.5667100000000 1.0
C      1  0.4511240000000  0.5499850000000  0.5442380000000 1.0
C      1  0.4545610000000  0.4867230000000  0.4375440000000 1.0
C      1  0.5253210000000  0.4807760000000  0.4860970000000 1.0
C      1  0.4743670000000  0.5039950000000  0.4245140000000 1.0
C      1  0.4249200000000  0.4719550000000  0.5241710000000 1.0
C      1  0.5635160000000  0.5441320000000  0.4982020000000 1.0
C      1  0.4715760000000  0.4962900000000  0.4959230000000 1.0
C      1  0.6090320000000  0.5193360000000  0.5034000000000 1.0
C      1  0.5006050000000  0.5160350000000  0.4632890000000 1.0
C      1  0.4993400000000  0.4707040000000  0.5234080000000 1.0
C      1  0.5453760000000  0.4506220000000  0.5281320000000 1.0
C      1  0.4619680000000  0.4457490000000  0.4993120000000 1.0
C      1  0.4337750000000  0.5089380000000  0.5570580000000 1.0
C      1  0.5405100000000  0.5620050000000  0.4627610000000 1.0
C      1  0.4813150000000  0.4236350000000  0.5101040000000 1.0
C      1  0.5003130000000  0.5439270000000  0.4487130000000 1.0
C      1  0.5658730000000  0.5229030000000  0.4562770000000 1.0
C      1  0.4666560000000  0.4635060000000  0.4487550000000 1.0
END
