TITL C-37227-2271-11 0.0260387810531464 125000 -151.302550586857 0 0 24 (C1) n - 1
REM
REM in /rds/project/t2_vol4/rds-t2-cs072/BORA/CARBON/from-Arr/AIRSS/Generating-Clusters/GAP-ML-2020/Only-C1/SD-CG/HFTN-CG
REM
REM
REM
REM
REM
REM ./C.cell (11c1c37f851c82e70ff6c80c92926a4b)
REM AIRSS Version 0.9.1 bugfix July 2018 build 013d7b7c2542+ Fri, 06 Jul 2018 19:26:36 +0100
REM compiler GCC version 9.3.0
REM options -cpp -mtune=generic -march=x86-64 -g -O0
REM seed 575618457 1746178804 1081190084 -1265860623 852033579 -204275149 -2134811676 164436232 2089266699 -1075641097 -2070461219 -100330673 511298375 655892079 2088892222 392737233 1084440872 280350960 896886382 269180728 -1921864404 -1368078715 1446028914 1811342378 633612838 456688040 -1066709592 100699037 -1417556667 -1529607313 -1258827353 -957576285 1433615536
REM
CELL 1.54180   50.00000   50.00000   50.00000   90.00000   90.00000   90.00000
LATT -1
SFAC C  
C      1  0.5134770000000  0.5367590000000  0.5429730000000 1.0
C      1  0.4849020000000  0.4771180000000  0.4397870000000 1.0
C      1  0.4871890000000  0.5373950000000  0.5338890000000 1.0
C      1  0.5181310000000  0.4640610000000  0.5247550000000 1.0
C      1  0.4794460000000  0.4663240000000  0.4625110000000 1.0
C      1  0.5295120000000  0.5476590000000  0.4976600000000 1.0
C      1  0.4746650000000  0.4824110000000  0.5304810000000 1.0
C      1  0.4854870000000  0.4638100000000  0.4891510000000 1.0
C      1  0.4535810000000  0.4966870000000  0.5207440000000 1.0
C      1  0.5052630000000  0.4955660000000  0.4523510000000 1.0
C      1  0.5106280000000  0.4524000000000  0.4992590000000 1.0
C      1  0.5115100000000  0.5093500000000  0.5380210000000 1.0
C      1  0.4660770000000  0.5123170000000  0.4990730000000 1.0
C      1  0.5085220000000  0.5291900000000  0.4912580000000 1.0
C      1  0.5343880000000  0.4813070000000  0.5095010000000 1.0
C      1  0.5005960000000  0.4817940000000  0.5425870000000 1.0
C      1  0.5310990000000  0.4689260000000  0.4836300000000 1.0
C      1  0.5284620000000  0.4831440000000  0.4613330000000 1.0
C      1  0.4953410000000  0.5173230000000  0.4664250000000 1.0
C      1  0.4819470000000  0.5351250000000  0.5069390000000 1.0
C      1  0.4878310000000  0.4901000000000  0.5026510000000 1.0
C      1  0.5144130000000  0.5044130000000  0.5099170000000 1.0
C      1  0.4671710000000  0.5179250000000  0.4715280000000 1.0
C      1  0.5303610000000  0.5488970000000  0.5235770000000 1.0
END
