TITL C-38716-3380-4 61.2665247820506 125000 -166.838956391648 0 0 26 (C1) n - 1
REM
REM in /rds/project/t2_vol4/rds-t2-cs072/BORA/CARBON/from-Arr/AIRSS/Generating-Clusters/GAP-ML-2020/Only-C1/SD-CG/HFTN-CG
REM
REM
REM
REM
REM
REM ./C.cell (11c1c37f851c82e70ff6c80c92926a4b)
REM AIRSS Version 0.9.1 bugfix July 2018 build 013d7b7c2542+ Fri, 06 Jul 2018 19:26:36 +0100
REM compiler GCC version 9.3.0
REM options -cpp -mtune=generic -march=x86-64 -g -O0
REM seed -670428007 1383365583 -1254619163 -1083872572 844675805 -306327439 -1920313711 -94498255 1885349173 837735865 1780251073 -673132964 1316378271 31472439 2129706348 -604850816 1285918317 -991834679 1657028300 1456902035 -1110713891 -2021659499 -701340117 522259457 530176972 999219584 -1155129230 -1177831193 -675203348 -1531193166 -70175157 1672185738 323929740
REM
CELL 1.54180   50.00000   50.00000   50.00000   90.00000   90.00000   90.00000
LATT -1
SFAC C  
C      1  0.4983580000000  0.4521910000000  0.4864910000000 1.0
C      1  0.4549490000000  0.4723200000000  0.4919140000000 1.0
C      1  0.5015840000000  0.5444530000000  0.4920060000000 1.0
C      1  0.5373860000000  0.4825620000000  0.4869710000000 1.0
C      1  0.4932090000000  0.4972220000000  0.4978260000000 1.0
C      1  0.5385930000000  0.5105280000000  0.4940650000000 1.0
C      1  0.4734850000000  0.4529190000000  0.4987000000000 1.0
C      1  0.5086310000000  0.5042070000000  0.4579160000000 1.0
C      1  0.5290640000000  0.4968950000000  0.5438740000000 1.0
C      1  0.4652480000000  0.5259660000000  0.5149790000000 1.0
C      1  0.5153270000000  0.5594070000000  0.5102970000000 1.0
C      1  0.5099030000000  0.5161670000000  0.5371060000000 1.0
C      1  0.5121420000000  0.4732260000000  0.4992910000000 1.0
C      1  0.5464800000000  0.4788370000000  0.5426850000000 1.0
C      1  0.4686140000000  0.4942260000000  0.4801190000000 1.0
C      1  0.5483330000000  0.5253010000000  0.5142470000000 1.0
C      1  0.5256440000000  0.4813540000000  0.4610140000000 1.0
C      1  0.5232610000000  0.5383080000000  0.5250290000000 1.0
C      1  0.4589250000000  0.5201750000000  0.4879800000000 1.0
C      1  0.5110540000000  0.5180770000000  0.4841470000000 1.0
C      1  0.4706880000000  0.4858740000000  0.5370720000000 1.0
C      1  0.4848280000000  0.5076060000000  0.5262680000000 1.0
C      1  0.4740360000000  0.5419640000000  0.4948080000000 1.0
C      1  0.4631830000000  0.4689040000000  0.5188690000000 1.0
C      1  0.5021170000000  0.4636210000000  0.4600410000000 1.0
C      1  0.4849590000000  0.4876900000000  0.4562840000000 1.0
END
