TITL C-38614-923-10 -0.126980616920228 125000 -348.107705116872 0 0 52 (C1) n - 1
REM
REM in /rds/project/t2_vol4/rds-t2-cs072/BORA/CARBON/from-Arr/AIRSS/Generating-Clusters/GAP-ML-2020/Only-C1/SD-CG/HFTN-CG
REM
REM
REM
REM
REM
REM ./C.cell (11c1c37f851c82e70ff6c80c92926a4b)
REM AIRSS Version 0.9.1 bugfix July 2018 build 013d7b7c2542+ Fri, 06 Jul 2018 19:26:36 +0100
REM compiler GCC version 9.3.0
REM options -cpp -mtune=generic -march=x86-64 -g -O0
REM seed 1811259488 1232935569 1245138948 -1317495078 1627233043 -1974227452 -1136449058 -920880927 -1701879180 -122543956 -1456295050 -1329235593 1997647063 -2095794891 -1174959998 1712475542 1662944581 -1773335857 -53925595 -112773197 -952801660 -101871587 -419471759 -685629930 -908016764 -2058700707 -2077097654 -529543030 75134254 1593852815 144826610 1913986928 1123808969
REM
CELL 1.54180   50.00000   50.00000   50.00000   90.00000   90.00000   90.00000
LATT -1
SFAC C  
C      1  0.5546780000000  0.4798390000000  0.5320200000000 1.0
C      1  0.4801890000000  0.4993000000000  0.5599850000000 1.0
C      1  0.5069590000000  0.4300020000000  0.4661080000000 1.0
C      1  0.5505410000000  0.5158420000000  0.5031180000000 1.0
C      1  0.5100810000000  0.5032440000000  0.5603490000000 1.0
C      1  0.4702270000000  0.4568010000000  0.4543840000000 1.0
C      1  0.4481230000000  0.4892380000000  0.5233620000000 1.0
C      1  0.4721880000000  0.4844840000000  0.4455260000000 1.0
C      1  0.5482340000000  0.5342760000000  0.4783140000000 1.0
C      1  0.5113760000000  0.4637070000000  0.4334530000000 1.0
C      1  0.5331620000000  0.4989980000000  0.5423730000000 1.0
C      1  0.4739670000000  0.5547440000000  0.5207890000000 1.0
C      1  0.4983960000000  0.4895270000000  0.4325150000000 1.0
C      1  0.4934030000000  0.4431850000000  0.4440240000000 1.0
C      1  0.4671210000000  0.5025730000000  0.4678370000000 1.0
C      1  0.5016980000000  0.5226580000000  0.4962680000000 1.0
C      1  0.5136610000000  0.4886350000000  0.5227340000000 1.0
C      1  0.5246860000000  0.5017930000000  0.4961690000000 1.0
C      1  0.5076650000000  0.4599090000000  0.5304150000000 1.0
C      1  0.5304900000000  0.4659640000000  0.4552170000000 1.0
C      1  0.5656900000000  0.4902970000000  0.5091810000000 1.0
C      1  0.4607810000000  0.5355070000000  0.5370110000000 1.0
C      1  0.4456910000000  0.5343080000000  0.4952960000000 1.0
C      1  0.5179690000000  0.5483320000000  0.5389380000000 1.0
C      1  0.4757720000000  0.5273330000000  0.5582090000000 1.0
C      1  0.5317220000000  0.5320340000000  0.4560850000000 1.0
C      1  0.5280840000000  0.5536120000000  0.4722750000000 1.0
C      1  0.4737160000000  0.5457190000000  0.4604270000000 1.0
C      1  0.5337290000000  0.4413480000000  0.4697290000000 1.0
C      1  0.4731410000000  0.4871820000000  0.4923960000000 1.0
C      1  0.5458810000000  0.5490050000000  0.5442410000000 1.0
C      1  0.5251050000000  0.4910520000000  0.4684640000000 1.0
C      1  0.4599490000000  0.5594470000000  0.4975830000000 1.0
C      1  0.4929160000000  0.4357490000000  0.4901840000000 1.0
C      1  0.5137970000000  0.4416020000000  0.5100970000000 1.0
C      1  0.5573300000000  0.4630590000000  0.5101460000000 1.0
C      1  0.4869380000000  0.4530040000000  0.5462180000000 1.0
C      1  0.5117660000000  0.5104240000000  0.4511130000000 1.0
C      1  0.4907720000000  0.5228540000000  0.4679280000000 1.0
C      1  0.4792060000000  0.5666780000000  0.4773110000000 1.0
C      1  0.4538850000000  0.4697710000000  0.5026340000000 1.0
C      1  0.5065180000000  0.5662400000000  0.4875870000000 1.0
C      1  0.5465280000000  0.5243980000000  0.5320310000000 1.0
C      1  0.4611660000000  0.4822180000000  0.5480780000000 1.0
C      1  0.4637170000000  0.4552730000000  0.5573910000000 1.0
C      1  0.5038780000000  0.5323480000000  0.5583630000000 1.0
C      1  0.4513380000000  0.5272920000000  0.4685940000000 1.0
C      1  0.4890290000000  0.5025120000000  0.5127630000000 1.0
C      1  0.4693720000000  0.4539360000000  0.4838660000000 1.0
C      1  0.5022220000000  0.5505730000000  0.5131700000000 1.0
C      1  0.4454570000000  0.5182370000000  0.5198510000000 1.0
C      1  0.5400890000000  0.4439340000000  0.4978790000000 1.0
END
