TITL C-38620-991-1 -128.946990192381 125000 -1025.74278932242 0 0 146 (C1) n - 1
REM
REM in /rds/project/t2_vol4/rds-t2-cs072/BORA/CARBON/from-Arr/AIRSS/Generating-Clusters/GAP-ML-2020/Only-C1/SD-CG/HFTN-CG
REM
REM
REM
REM
REM
REM ./C.cell (11c1c37f851c82e70ff6c80c92926a4b)
REM AIRSS Version 0.9.1 bugfix July 2018 build 013d7b7c2542+ Fri, 06 Jul 2018 19:26:36 +0100
REM compiler GCC version 9.3.0
REM options -cpp -mtune=generic -march=x86-64 -g -O0
REM seed 1937963603 -1416335970 879300860 -642746603 903555859 665966068 -1040821394 328499507 1298159223 1609024098 -1847273131 -2113965495 622284384 -99846669 1664875555 -680698674 2079865725 -938182323 -461279059 1220961678 -1418438562 1727368855 446320241 -722201659 -818504438 1510919504 752850844 767207763 -888905341 -197866732 2047969062 283963578 2090352982
REM
CELL 1.54180   50.00000   50.00000   50.00000   90.00000   90.00000   90.00000
LATT -1
SFAC C  
C      1  0.5162980000000  0.4731710000000  0.5565470000000 1.0
C      1  0.4003870000000  0.4978320000000  0.4842440000000 1.0
C      1  0.4832360000000  0.4562980000000  0.4920790000000 1.0
C      1  0.4663360000000  0.5704420000000  0.4625030000000 1.0
C      1  0.4188060000000  0.5522580000000  0.5145210000000 1.0
C      1  0.4998620000000  0.4585390000000  0.5159220000000 1.0
C      1  0.4675630000000  0.5317690000000  0.4364350000000 1.0
C      1  0.4698080000000  0.4255750000000  0.5583160000000 1.0
C      1  0.5421670000000  0.5101450000000  0.4970900000000 1.0
C      1  0.5494130000000  0.5170540000000  0.5989020000000 1.0
C      1  0.4815440000000  0.4595320000000  0.4119390000000 1.0
C      1  0.5793070000000  0.5612270000000  0.4556770000000 1.0
C      1  0.5909700000000  0.5656070000000  0.4804570000000 1.0
C      1  0.4553120000000  0.4711570000000  0.4469270000000 1.0
C      1  0.5311970000000  0.5672470000000  0.4714130000000 1.0
C      1  0.5730270000000  0.4665130000000  0.5104420000000 1.0
C      1  0.5906610000000  0.5357120000000  0.4473470000000 1.0
C      1  0.4685940000000  0.5242140000000  0.4698330000000 1.0
C      1  0.4904640000000  0.5399980000000  0.5730130000000 1.0
C      1  0.5702600000000  0.4439360000000  0.5273890000000 1.0
C      1  0.4384220000000  0.5640090000000  0.4716970000000 1.0
C      1  0.4993990000000  0.6023770000000  0.4558140000000 1.0
C      1  0.5704030000000  0.4827510000000  0.5561050000000 1.0
C      1  0.4609550000000  0.5304340000000  0.5195040000000 1.0
C      1  0.5654150000000  0.5512950000000  0.5178540000000 1.0
C      1  0.4625810000000  0.4475090000000  0.4298510000000 1.0
C      1  0.5700940000000  0.5169620000000  0.4356840000000 1.0
C      1  0.5024400000000  0.5243590000000  0.5489280000000 1.0
C      1  0.4832150000000  0.5482660000000  0.4802730000000 1.0
C      1  0.5162630000000  0.5821260000000  0.4481880000000 1.0
C      1  0.4194640000000  0.5068250000000  0.5342630000000 1.0
C      1  0.4402720000000  0.4701600000000  0.4755860000000 1.0
C      1  0.5422710000000  0.5563410000000  0.5372160000000 1.0
C      1  0.5619690000000  0.5332080000000  0.5786810000000 1.0
C      1  0.4000310000000  0.5088380000000  0.5111720000000 1.0
C      1  0.4373740000000  0.5312730000000  0.4349910000000 1.0
C      1  0.4858170000000  0.5110570000000  0.4174400000000 1.0
C      1  0.5234240000000  0.4250750000000  0.5531610000000 1.0
C      1  0.4447300000000  0.4376620000000  0.5163850000000 1.0
C      1  0.4598200000000  0.4948490000000  0.5771470000000 1.0
C      1  0.5319930000000  0.5032290000000  0.4033840000000 1.0
C      1  0.5344290000000  0.5845040000000  0.5403080000000 1.0
C      1  0.5594590000000  0.4214200000000  0.4867100000000 1.0
C      1  0.4494810000000  0.5191940000000  0.4936770000000 1.0
C      1  0.4461890000000  0.4872290000000  0.4221760000000 1.0
C      1  0.5576950000000  0.4442200000000  0.4456040000000 1.0
C      1  0.4921480000000  0.5939560000000  0.5450620000000 1.0
C      1  0.4318050000000  0.5082150000000  0.5807410000000 1.0
C      1  0.5289840000000  0.5966030000000  0.5153450000000 1.0
C      1  0.4644540000000  0.4671510000000  0.5881680000000 1.0
C      1  0.4491290000000  0.4901820000000  0.4983070000000 1.0
C      1  0.4105930000000  0.4697110000000  0.5681770000000 1.0
C      1  0.4669370000000  0.4884340000000  0.5454310000000 1.0
C      1  0.5154980000000  0.5587370000000  0.5744780000000 1.0
C      1  0.5276490000000  0.5031380000000  0.5929340000000 1.0
C      1  0.5217230000000  0.5170960000000  0.4544360000000 1.0
C      1  0.4291570000000  0.5346250000000  0.5864950000000 1.0
C      1  0.5009200000000  0.4952280000000  0.6007370000000 1.0
C      1  0.5163130000000  0.3954820000000  0.5124800000000 1.0
C      1  0.5908630000000  0.5015600000000  0.5476600000000 1.0
C      1  0.4061510000000  0.4455960000000  0.4686170000000 1.0
C      1  0.5025030000000  0.5658830000000  0.4277520000000 1.0
C      1  0.4916150000000  0.4135030000000  0.4440710000000 1.0
C      1  0.4237250000000  0.5425600000000  0.4581630000000 1.0
C      1  0.5338740000000  0.4108040000000  0.5296580000000 1.0
C      1  0.4508790000000  0.4211440000000  0.4696890000000 1.0
C      1  0.5008580000000  0.4591080000000  0.4684570000000 1.0
C      1  0.4288770000000  0.4519710000000  0.5597270000000 1.0
C      1  0.4611600000000  0.5785200000000  0.5140250000000 1.0
C      1  0.5136720000000  0.4279800000000  0.4309650000000 1.0
C      1  0.5617370000000  0.5317240000000  0.4921210000000 1.0
C      1  0.5164060000000  0.5252060000000  0.5026340000000 1.0
C      1  0.5269600000000  0.4771220000000  0.4199790000000 1.0
C      1  0.4405410000000  0.4845550000000  0.5268130000000 1.0
C      1  0.4796010000000  0.5118810000000  0.5333420000000 1.0
C      1  0.5553740000000  0.5185630000000  0.4084420000000 1.0
C      1  0.5850470000000  0.4896070000000  0.4728350000000 1.0
C      1  0.4101470000000  0.4722430000000  0.4748980000000 1.0
C      1  0.4765650000000  0.5592910000000  0.4364890000000 1.0
C      1  0.4538260000000  0.4454830000000  0.4886470000000 1.0
C      1  0.5651590000000  0.4921650000000  0.4510090000000 1.0
C      1  0.5471140000000  0.4864370000000  0.5158970000000 1.0
C      1  0.4320840000000  0.4568900000000  0.5318080000000 1.0
C      1  0.5831660000000  0.5273160000000  0.5599700000000 1.0
C      1  0.5433250000000  0.5444750000000  0.4159900000000 1.0
C      1  0.5717810000000  0.4417890000000  0.4709500000000 1.0
C      1  0.5955990000000  0.5147390000000  0.5209970000000 1.0
C      1  0.5640060000000  0.4548970000000  0.5529920000000 1.0
C      1  0.4821280000000  0.5124810000000  0.5882880000000 1.0
C      1  0.4942250000000  0.5052720000000  0.5095110000000 1.0
C      1  0.4208480000000  0.4247800000000  0.4664650000000 1.0
C      1  0.5531530000000  0.4697030000000  0.4343420000000 1.0
C      1  0.4600180000000  0.4185030000000  0.5310060000000 1.0
C      1  0.5714950000000  0.5741250000000  0.5001110000000 1.0
C      1  0.5377150000000  0.4968040000000  0.4701530000000 1.0
C      1  0.5469380000000  0.4951210000000  0.5439890000000 1.0
C      1  0.5442580000000  0.5846820000000  0.4934620000000 1.0
C      1  0.4662990000000  0.5575060000000  0.5634630000000 1.0
C      1  0.4658460000000  0.4242220000000  0.4436620000000 1.0
C      1  0.5160540000000  0.5485300000000  0.4092060000000 1.0
C      1  0.4008700000000  0.5360710000000  0.5007320000000 1.0
C      1  0.4910220000000  0.4679240000000  0.5424160000000 1.0
C      1  0.5234730000000  0.5019840000000  0.5592770000000 1.0
C      1  0.5005600000000  0.6022190000000  0.5182070000000 1.0
C      1  0.4980100000000  0.4261190000000  0.5685440000000 1.0
C      1  0.4714170000000  0.3993090000000  0.5131890000000 1.0
C      1  0.5117780000000  0.5406960000000  0.4762790000000 1.0
C      1  0.4864270000000  0.4801930000000  0.4532950000000 1.0
C      1  0.4403860000000  0.5452300000000  0.5636840000000 1.0
C      1  0.5424660000000  0.5499560000000  0.5665380000000 1.0
C      1  0.4901210000000  0.4668370000000  0.6000090000000 1.0
C      1  0.4684650000000  0.5790190000000  0.5445770000000 1.0
C      1  0.4688180000000  0.4018510000000  0.4842940000000 1.0
C      1  0.5864450000000  0.5385230000000  0.5336840000000 1.0
C      1  0.5172800000000  0.3980230000000  0.4834050000000 1.0
C      1  0.5448370000000  0.5332520000000  0.4435890000000 1.0
C      1  0.4930280000000  0.3841520000000  0.5222950000000 1.0
C      1  0.4711670000000  0.4866020000000  0.4083700000000 1.0
C      1  0.4928750000000  0.3995910000000  0.4692050000000 1.0
C      1  0.5134000000000  0.5828310000000  0.5596580000000 1.0
C      1  0.4791920000000  0.5525150000000  0.5105250000000 1.0
C      1  0.4129580000000  0.4959520000000  0.5624610000000 1.0
C      1  0.5253380000000  0.4702970000000  0.4782620000000 1.0
C      1  0.5003040000000  0.4429890000000  0.5907870000000 1.0
C      1  0.4329300000000  0.5353680000000  0.5351590000000 1.0
C      1  0.5050890000000  0.4973330000000  0.4368790000000 1.0
C      1  0.5362530000000  0.4503160000000  0.5593850000000 1.0
C      1  0.6013160000000  0.5367270000000  0.4743760000000 1.0
C      1  0.5085100000000  0.5222770000000  0.4019480000000 1.0
C      1  0.4358110000000  0.5695270000000  0.4998210000000 1.0
C      1  0.5090020000000  0.4527140000000  0.4157420000000 1.0
C      1  0.5824530000000  0.4641880000000  0.4841930000000 1.0
C      1  0.4782840000000  0.5984430000000  0.5005120000000 1.0
C      1  0.4781440000000  0.5964390000000  0.4719520000000 1.0
C      1  0.5380270000000  0.4235490000000  0.4448630000000 1.0
C      1  0.4537540000000  0.4450400000000  0.5722470000000 1.0
C      1  0.5537650000000  0.5499250000000  0.4647330000000 1.0
C      1  0.4777270000000  0.4859090000000  0.4957280000000 1.0
C      1  0.4832620000000  0.5003530000000  0.4720880000000 1.0
C      1  0.5126250000000  0.5430180000000  0.5261760000000 1.0
C      1  0.5570970000000  0.4218090000000  0.5158820000000 1.0
C      1  0.4305990000000  0.5094460000000  0.4202870000000 1.0
C      1  0.5891610000000  0.5153140000000  0.4906580000000 1.0
C      1  0.5392000000000  0.4099430000000  0.4702620000000 1.0
C      1  0.4046910000000  0.5264710000000  0.4739340000000 1.0
C      1  0.5259450000000  0.4670600000000  0.5060600000000 1.0
END
