TITL C-38602-1021-10 0.196565624699998 125000 -436.82123271236 0 0 63 (C1) n - 1
REM
REM in /rds/project/t2_vol4/rds-t2-cs072/BORA/CARBON/from-Arr/AIRSS/Generating-Clusters/GAP-ML-2020/Only-C1/SD-CG/HFTN-CG
REM
REM
REM
REM
REM
REM ./C.cell (11c1c37f851c82e70ff6c80c92926a4b)
REM AIRSS Version 0.9.1 bugfix July 2018 build 013d7b7c2542+ Fri, 06 Jul 2018 19:26:36 +0100
REM compiler GCC version 9.3.0
REM options -cpp -mtune=generic -march=x86-64 -g -O0
REM seed -1748413602 -1430742512 -758633987 1203324434 -1662872291 1586008283 -2097017522 -198534343 -235959999 -1809741247 -65128812 545781099 1403191672 251959557 -1191761617 -1801291122 1798497711 -24056075 1994869329 -507930791 1123377382 -459833973 1625658402 -783364620 -1903573606 183845159 1544273970 409452069 296713923 1694092749 -318223513 -245634128 387018643
REM
CELL 1.54180   50.00000   50.00000   50.00000   90.00000   90.00000   90.00000
LATT -1
SFAC C  
C      1  0.5161380000000  0.4331860000000  0.4728880000000 1.0
C      1  0.5426680000000  0.4653290000000  0.4454190000000 1.0
C      1  0.4792090000000  0.4997550000000  0.5173030000000 1.0
C      1  0.5075650000000  0.5597900000000  0.4816750000000 1.0
C      1  0.5374590000000  0.4867620000000  0.4263610000000 1.0
C      1  0.5179990000000  0.4873220000000  0.5708070000000 1.0
C      1  0.5614660000000  0.4655080000000  0.4672120000000 1.0
C      1  0.5043360000000  0.5620710000000  0.5105980000000 1.0
C      1  0.5545070000000  0.4932500000000  0.5140070000000 1.0
C      1  0.4728740000000  0.5087930000000  0.5663980000000 1.0
C      1  0.5254930000000  0.5377960000000  0.4408950000000 1.0
C      1  0.4371100000000  0.5128450000000  0.4696670000000 1.0
C      1  0.5276910000000  0.5450450000000  0.4684500000000 1.0
C      1  0.4261290000000  0.5171210000000  0.4970620000000 1.0
C      1  0.4350840000000  0.5380150000000  0.5145140000000 1.0
C      1  0.5364910000000  0.5215590000000  0.4819480000000 1.0
C      1  0.4946490000000  0.4321570000000  0.5166450000000 1.0
C      1  0.4599540000000  0.5323740000000  0.5572140000000 1.0
C      1  0.5238200000000  0.4824540000000  0.5190300000000 1.0
C      1  0.5424180000000  0.4783760000000  0.5583510000000 1.0
C      1  0.5217690000000  0.5513520000000  0.5312180000000 1.0
C      1  0.4809130000000  0.5297490000000  0.4509640000000 1.0
C      1  0.5599320000000  0.4955450000000  0.5447540000000 1.0
C      1  0.5178730000000  0.5006550000000  0.4764650000000 1.0
C      1  0.4518160000000  0.5335860000000  0.4588420000000 1.0
C      1  0.4279840000000  0.4928110000000  0.5123430000000 1.0
C      1  0.4419900000000  0.4752400000000  0.4951500000000 1.0
C      1  0.4384890000000  0.5260420000000  0.5405620000000 1.0
C      1  0.4771230000000  0.5621360000000  0.5211310000000 1.0
C      1  0.5154260000000  0.4772200000000  0.4919530000000 1.0
C      1  0.4581450000000  0.5559850000000  0.4765940000000 1.0
C      1  0.5586310000000  0.4476700000000  0.4888160000000 1.0
C      1  0.4744070000000  0.4489100000000  0.5286700000000 1.0
C      1  0.4844510000000  0.5566710000000  0.4665550000000 1.0
C      1  0.5031300000000  0.4637720000000  0.5603870000000 1.0
C      1  0.4758800000000  0.4625350000000  0.5539580000000 1.0
C      1  0.5519630000000  0.5209090000000  0.5049900000000 1.0
C      1  0.5478750000000  0.5319320000000  0.4260450000000 1.0
C      1  0.5050970000000  0.5405090000000  0.5521820000000 1.0
C      1  0.5038400000000  0.4992970000000  0.5301960000000 1.0
C      1  0.5024500000000  0.5104820000000  0.5600470000000 1.0
C      1  0.4781210000000  0.5163310000000  0.4966790000000 1.0
C      1  0.5176000000000  0.4523000000000  0.4504490000000 1.0
C      1  0.4790700000000  0.5506850000000  0.5473700000000 1.0
C      1  0.5263930000000  0.4589320000000  0.5400700000000 1.0
C      1  0.5350900000000  0.4339010000000  0.4952670000000 1.0
C      1  0.5472980000000  0.5376980000000  0.5278820000000 1.0
C      1  0.4896110000000  0.5077410000000  0.4715180000000 1.0
C      1  0.4861100000000  0.4635400000000  0.4861670000000 1.0
C      1  0.4582230000000  0.4859780000000  0.5571750000000 1.0
C      1  0.4965890000000  0.4713430000000  0.4422100000000 1.0
C      1  0.4923030000000  0.4352230000000  0.4875710000000 1.0
C      1  0.5015740000000  0.5218410000000  0.4327290000000 1.0
C      1  0.4533920000000  0.5578500000000  0.5046280000000 1.0
C      1  0.5538290000000  0.5079350000000  0.4192530000000 1.0
C      1  0.4364760000000  0.4969380000000  0.5400370000000 1.0
C      1  0.4769450000000  0.4799590000000  0.4627400000000 1.0
C      1  0.4473640000000  0.4855400000000  0.4687040000000 1.0
C      1  0.5088190000000  0.4930380000000  0.4281400000000 1.0
C      1  0.4674500000000  0.4680110000000  0.5076440000000 1.0
C      1  0.5224240000000  0.4352830000000  0.5218320000000 1.0
C      1  0.5577780000000  0.5229410000000  0.5498010000000 1.0
C      1  0.5652960000000  0.4744770000000  0.4938680000000 1.0
END
