TITL C-38583-3996-16 56.5153118623546 125000 -1384.44647834174 0 0 199 (C1) n - 1
REM
REM in /rds/project/t2_vol4/rds-t2-cs072/BORA/CARBON/from-Arr/AIRSS/Generating-Clusters/GAP-ML-2020/Only-C1/SD-CG/HFTN-CG/C160-200
REM
REM
REM
REM
REM
REM ./C.cell (f2ad243b7eb7c0cd63fb1bbaf7e03044)
REM AIRSS Version 0.9.1 bugfix July 2018 build 013d7b7c2542+ Fri, 06 Jul 2018 19:26:36 +0100
REM compiler GCC version 9.3.0
REM options -cpp -mtune=generic -march=x86-64 -g -O0
REM seed -1907898828 -1545448440 -142482503 -250227007 -1701014819 20469192 921104221 -2077734317 1665816441 -1791214426 -223243421 -990388719 -999076381 -805957396 -945655787 1678125951 -1585763290 1821733777 -1656183239 819004370 -1509899994 1937425197 1893757816 -1295125800 -450694926 640283238 -1918440459 1571606224 1522070988 -138016266 -1575355523 -2044064004 1427188450
REM
CELL 1.54180   50.00000   50.00000   50.00000   90.00000   90.00000   90.00000
LATT -1
SFAC C  
C      1  0.5363070000000  0.4945150000000  0.5844760000000 1.0
C      1  0.4755320000000  0.4538480000000  0.5268380000000 1.0
C      1  0.5299990000000  0.5289770000000  0.5436580000000 1.0
C      1  0.4019970000000  0.5574780000000  0.4909920000000 1.0
C      1  0.5658510000000  0.5387550000000  0.4091810000000 1.0
C      1  0.5058100000000  0.4566440000000  0.4051960000000 1.0
C      1  0.5384210000000  0.5978070000000  0.5058230000000 1.0
C      1  0.5078800000000  0.5638620000000  0.4287640000000 1.0
C      1  0.4834770000000  0.5677190000000  0.4694300000000 1.0
C      1  0.5119690000000  0.6000070000000  0.4619760000000 1.0
C      1  0.4352060000000  0.5270550000000  0.4047290000000 1.0
C      1  0.5937130000000  0.5459080000000  0.4486680000000 1.0
C      1  0.3812100000000  0.4879640000000  0.4626090000000 1.0
C      1  0.4585760000000  0.5584080000000  0.4792030000000 1.0
C      1  0.5069750000000  0.5486650000000  0.5477280000000 1.0
C      1  0.5593530000000  0.5786210000000  0.4437600000000 1.0
C      1  0.4531610000000  0.5354050000000  0.5526030000000 1.0
C      1  0.5452610000000  0.4019060000000  0.4727460000000 1.0
C      1  0.4824250000000  0.5099070000000  0.5334930000000 1.0
C      1  0.5857280000000  0.4930380000000  0.5537030000000 1.0
C      1  0.5704010000000  0.4154520000000  0.4818950000000 1.0
C      1  0.4647010000000  0.5152640000000  0.4299390000000 1.0
C      1  0.4526370000000  0.4691750000000  0.4891960000000 1.0
C      1  0.4913690000000  0.4947470000000  0.4668260000000 1.0
C      1  0.5972190000000  0.4562170000000  0.4929230000000 1.0
C      1  0.4697390000000  0.5347070000000  0.6163830000000 1.0
C      1  0.5189550000000  0.4610690000000  0.5465130000000 1.0
C      1  0.4772030000000  0.4933220000000  0.4108700000000 1.0
C      1  0.5605510000000  0.4042580000000  0.5538630000000 1.0
C      1  0.4350040000000  0.4032990000000  0.4722870000000 1.0
C      1  0.5661270000000  0.5627810000000  0.5790230000000 1.0
C      1  0.5807520000000  0.4706390000000  0.5712310000000 1.0
C      1  0.5662010000000  0.5920390000000  0.4938930000000 1.0
C      1  0.4915190000000  0.5511460000000  0.6070920000000 1.0
C      1  0.5843520000000  0.4394250000000  0.4713590000000 1.0
C      1  0.4639640000000  0.4901690000000  0.5503540000000 1.0
C      1  0.5056750000000  0.4098870000000  0.5379810000000 1.0
C      1  0.5624330000000  0.4889900000000  0.4634110000000 1.0
C      1  0.5694250000000  0.5610950000000  0.5311440000000 1.0
C      1  0.3916770000000  0.4747440000000  0.5346430000000 1.0
C      1  0.4957860000000  0.4658140000000  0.6124010000000 1.0
C      1  0.4969750000000  0.4403590000000  0.5447070000000 1.0
C      1  0.4905080000000  0.6065460000000  0.5363180000000 1.0
C      1  0.3894960000000  0.4656250000000  0.4769390000000 1.0
C      1  0.5612320000000  0.4632680000000  0.5236830000000 1.0
C      1  0.5176490000000  0.4944710000000  0.3785990000000 1.0
C      1  0.4407330000000  0.5087580000000  0.5929280000000 1.0
C      1  0.5987510000000  0.5296730000000  0.5156390000000 1.0
C      1  0.4625300000000  0.5396790000000  0.4073300000000 1.0
C      1  0.3941790000000  0.5459700000000  0.5157490000000 1.0
C      1  0.4567760000000  0.4262580000000  0.4286310000000 1.0
C      1  0.4873430000000  0.5370150000000  0.3916900000000 1.0
C      1  0.4274870000000  0.5123780000000  0.5054850000000 1.0
C      1  0.5516120000000  0.4670160000000  0.4006460000000 1.0
C      1  0.4940610000000  0.4451460000000  0.4893470000000 1.0
C      1  0.3894540000000  0.4601010000000  0.5070960000000 1.0
C      1  0.5403290000000  0.5363950000000  0.3940940000000 1.0
C      1  0.4449940000000  0.4532290000000  0.4206560000000 1.0
C      1  0.5918440000000  0.5013990000000  0.4313410000000 1.0
C      1  0.5617900000000  0.4937090000000  0.3938960000000 1.0
C      1  0.5301810000000  0.4077540000000  0.4492650000000 1.0
C      1  0.4652550000000  0.5766310000000  0.5722520000000 1.0
C      1  0.5858960000000  0.5444940000000  0.5705940000000 1.0
C      1  0.4769380000000  0.3906050000000  0.5008830000000 1.0
C      1  0.4841480000000  0.4863440000000  0.5730280000000 1.0
C      1  0.5274460000000  0.4087650000000  0.5164960000000 1.0
C      1  0.5148560000000  0.6086210000000  0.4896030000000 1.0
C      1  0.5244430000000  0.4995190000000  0.4300710000000 1.0
C      1  0.5416010000000  0.5102150000000  0.3806610000000 1.0
C      1  0.5173720000000  0.4771660000000  0.5217040000000 1.0
C      1  0.4070780000000  0.4627360000000  0.5532490000000 1.0
C      1  0.4948010000000  0.5083300000000  0.3908120000000 1.0
C      1  0.5149090000000  0.5745280000000  0.5685960000000 1.0
C      1  0.4046270000000  0.5380730000000  0.4702580000000 1.0
C      1  0.5040640000000  0.5493460000000  0.4747510000000 1.0
C      1  0.4830360000000  0.5309740000000  0.5540540000000 1.0
C      1  0.5288280000000  0.5786910000000  0.4489610000000 1.0
C      1  0.4073810000000  0.4500540000000  0.4601390000000 1.0
C      1  0.5554640000000  0.4050740000000  0.5265040000000 1.0
C      1  0.5391310000000  0.4614530000000  0.5031200000000 1.0
C      1  0.5575850000000  0.4725590000000  0.5882860000000 1.0
C      1  0.4572690000000  0.4070890000000  0.5425480000000 1.0
C      1  0.5149650000000  0.5997430000000  0.5493910000000 1.0
C      1  0.4812270000000  0.3977730000000  0.5288120000000 1.0
C      1  0.4723410000000  0.5729000000000  0.5220350000000 1.0
C      1  0.5987180000000  0.5553790000000  0.4985510000000 1.0
C      1  0.4509360000000  0.4695150000000  0.5346530000000 1.0
C      1  0.5123640000000  0.4085240000000  0.5681300000000 1.0
C      1  0.4280650000000  0.4315530000000  0.4684920000000 1.0
C      1  0.5247770000000  0.4682040000000  0.3885260000000 1.0
C      1  0.5344450000000  0.4273280000000  0.4280820000000 1.0
C      1  0.5817540000000  0.5749240000000  0.5101670000000 1.0
C      1  0.4910350000000  0.4719990000000  0.4505580000000 1.0
C      1  0.5918040000000  0.4559710000000  0.5249170000000 1.0
C      1  0.5433160000000  0.5733470000000  0.5802900000000 1.0
C      1  0.4667000000000  0.4424160000000  0.5019300000000 1.0
C      1  0.5437490000000  0.4488760000000  0.5959060000000 1.0
C      1  0.5392980000000  0.4064840000000  0.5735540000000 1.0
C      1  0.5220450000000  0.4371510000000  0.4990440000000 1.0
C      1  0.5674280000000  0.4921330000000  0.5274860000000 1.0
C      1  0.5966140000000  0.5182800000000  0.4531660000000 1.0
C      1  0.5199750000000  0.4973950000000  0.4758110000000 1.0
C      1  0.4703340000000  0.4666960000000  0.5963980000000 1.0
C      1  0.5196750000000  0.5180900000000  0.4082330000000 1.0
C      1  0.4007910000000  0.4360690000000  0.5110530000000 1.0
C      1  0.4843640000000  0.5934770000000  0.4536720000000 1.0
C      1  0.4597910000000  0.5658980000000  0.4204070000000 1.0
C      1  0.4492640000000  0.4552060000000  0.4642490000000 1.0
C      1  0.4788340000000  0.5203850000000  0.4543980000000 1.0
C      1  0.4278180000000  0.4640400000000  0.4416600000000 1.0
C      1  0.4118490000000  0.5165320000000  0.5594080000000 1.0
C      1  0.5896450000000  0.4463010000000  0.5573260000000 1.0
C      1  0.4386350000000  0.4135270000000  0.4465520000000 1.0
C      1  0.4765580000000  0.4886950000000  0.4919960000000 1.0
C      1  0.4130800000000  0.5455960000000  0.5639870000000 1.0
C      1  0.4398130000000  0.5788590000000  0.4644270000000 1.0
C      1  0.5082790000000  0.4327330000000  0.4189170000000 1.0
C      1  0.5815280000000  0.4772590000000  0.4431260000000 1.0
C      1  0.4869230000000  0.4245480000000  0.4385320000000 1.0
C      1  0.4469800000000  0.5361370000000  0.5992400000000 1.0
C      1  0.4997580000000  0.4926890000000  0.6209970000000 1.0
C      1  0.3972320000000  0.5173020000000  0.5154720000000 1.0
C      1  0.6053720000000  0.4834410000000  0.5334770000000 1.0
C      1  0.4592410000000  0.6034020000000  0.4677160000000 1.0
C      1  0.4190500000000  0.4916200000000  0.4323860000000 1.0
C      1  0.5491850000000  0.5273760000000  0.4995070000000 1.0
C      1  0.4660930000000  0.6152830000000  0.4908830000000 1.0
C      1  0.5778190000000  0.5118540000000  0.4092000000000 1.0
C      1  0.4485970000000  0.3958700000000  0.4965360000000 1.0
C      1  0.5560220000000  0.4255960000000  0.5876570000000 1.0
C      1  0.5951470000000  0.5627380000000  0.4712870000000 1.0
C      1  0.5772130000000  0.4238670000000  0.5670430000000 1.0
C      1  0.4309610000000  0.4468060000000  0.5473190000000 1.0
C      1  0.4928590000000  0.4700950000000  0.5076570000000 1.0
C      1  0.5370620000000  0.6036760000000  0.5341740000000 1.0
C      1  0.4119050000000  0.5502570000000  0.5369380000000 1.0
C      1  0.5399970000000  0.4750200000000  0.4778480000000 1.0
C      1  0.5466220000000  0.5161520000000  0.5656190000000 1.0
C      1  0.4967400000000  0.4323760000000  0.5778300000000 1.0
C      1  0.5786000000000  0.4495540000000  0.4434340000000 1.0
C      1  0.4507150000000  0.4286430000000  0.5625110000000 1.0
C      1  0.4239610000000  0.5749960000000  0.4897120000000 1.0
C      1  0.5567280000000  0.4463110000000  0.4228970000000 1.0
C      1  0.5022140000000  0.4027080000000  0.4538560000000 1.0
C      1  0.4831500000000  0.5806670000000  0.4275280000000 1.0
C      1  0.5736340000000  0.5122740000000  0.5054750000000 1.0
C      1  0.5451840000000  0.5475450000000  0.5221820000000 1.0
C      1  0.3940750000000  0.5029780000000  0.5393980000000 1.0
C      1  0.5144180000000  0.5057610000000  0.5276710000000 1.0
C      1  0.5216210000000  0.5149880000000  0.5007830000000 1.0
C      1  0.5211840000000  0.5069490000000  0.6089040000000 1.0
C      1  0.4484050000000  0.5631640000000  0.5079970000000 1.0
C      1  0.4383350000000  0.5401910000000  0.5252070000000 1.0
C      1  0.4517370000000  0.4774480000000  0.4050070000000 1.0
C      1  0.4366320000000  0.5132750000000  0.4444570000000 1.0
C      1  0.4687780000000  0.4395320000000  0.5824840000000 1.0
C      1  0.5387750000000  0.5089370000000  0.4545380000000 1.0
C      1  0.5008340000000  0.5579360000000  0.5191680000000 1.0
C      1  0.5128150000000  0.4763680000000  0.5719150000000 1.0
C      1  0.5281880000000  0.5676290000000  0.5067080000000 1.0
C      1  0.5000000000000  0.4787320000000  0.4251740000000 1.0
C      1  0.6053100000000  0.4843140000000  0.4902550000000 1.0
C      1  0.4704520000000  0.5886520000000  0.5466080000000 1.0
C      1  0.4201320000000  0.4269830000000  0.5269030000000 1.0
C      1  0.5471230000000  0.5348680000000  0.4712540000000 1.0
C      1  0.5886640000000  0.5418590000000  0.5416710000000 1.0
C      1  0.4304000000000  0.5198360000000  0.4757140000000 1.0
C      1  0.5072720000000  0.5289440000000  0.5976040000000 1.0
C      1  0.5138600000000  0.4522640000000  0.5937680000000 1.0
C      1  0.5455660000000  0.4512750000000  0.5460920000000 1.0
C      1  0.5747180000000  0.5834810000000  0.4678960000000 1.0
C      1  0.4389310000000  0.4837950000000  0.5093660000000 1.0
C      1  0.5764480000000  0.5191420000000  0.5628530000000 1.0
C      1  0.4430130000000  0.5534190000000  0.5750100000000 1.0
C      1  0.5252590000000  0.3924640000000  0.4916780000000 1.0
C      1  0.4371280000000  0.5652020000000  0.4369680000000 1.0
C      1  0.4379420000000  0.4055680000000  0.5219820000000 1.0
C      1  0.5854010000000  0.5023160000000  0.4774910000000 1.0
C      1  0.4548080000000  0.4896130000000  0.6088350000000 1.0
C      1  0.4304590000000  0.4975960000000  0.4052660000000 1.0
C      1  0.4989110000000  0.3906850000000  0.4809960000000 1.0
C      1  0.4821100000000  0.4476630000000  0.4604810000000 1.0
C      1  0.4583590000000  0.5293630000000  0.4766490000000 1.0
C      1  0.5743000000000  0.4119220000000  0.5085570000000 1.0
C      1  0.4229090000000  0.5388460000000  0.4301830000000 1.0
C      1  0.4741160000000  0.5058570000000  0.6223150000000 1.0
C      1  0.4950920000000  0.5439820000000  0.4493460000000 1.0
C      1  0.4411310000000  0.5088690000000  0.5634320000000 1.0
C      1  0.5736050000000  0.5567580000000  0.4301170000000 1.0
C      1  0.4897610000000  0.5720500000000  0.5877120000000 1.0
C      1  0.6140300000000  0.5007250000000  0.5138340000000 1.0
C      1  0.5303540000000  0.5590570000000  0.4744340000000 1.0
C      1  0.4747010000000  0.5170940000000  0.5033400000000 1.0
C      1  0.4992220000000  0.5346710000000  0.4992560000000 1.0
C      1  0.3975570000000  0.5316650000000  0.4438000000000 1.0
C      1  0.4903800000000  0.6135850000000  0.5057310000000 1.0
C      1  0.4884360000000  0.5154850000000  0.5779310000000 1.0
C      1  0.3926060000000  0.5025180000000  0.4428250000000 1.0
C      1  0.5123700000000  0.5489220000000  0.4028010000000 1.0
END
