TITL C-38614-923-9 -0.00800458604466771 125000 -162.908400704693 0 0 25 (C1) n - 1
REM
REM in /rds/project/t2_vol4/rds-t2-cs072/BORA/CARBON/from-Arr/AIRSS/Generating-Clusters/GAP-ML-2020/Only-C1/SD-CG/HFTN-CG
REM
REM
REM
REM
REM
REM ./C.cell (11c1c37f851c82e70ff6c80c92926a4b)
REM AIRSS Version 0.9.1 bugfix July 2018 build 013d7b7c2542+ Fri, 06 Jul 2018 19:26:36 +0100
REM compiler GCC version 9.3.0
REM options -cpp -mtune=generic -march=x86-64 -g -O0
REM seed 2018799458 -1869311179 -733889439 -397366104 186348651 -72771018 -1569155824 -324285569 -218763418 712583698 -1700313229 2113795070 1219967055 95930060 -1718905177 638924321 363485337 678011967 1261873940 997369211 -1780305736 -115164100 -1109496360 -1920736280 661940673 -83675806 437755521 871287670 -476224445 1630492358 545257873 527092983 1939886752
REM
CELL 1.54180   50.00000   50.00000   50.00000   90.00000   90.00000   90.00000
LATT -1
SFAC C  
C      1  0.5383450000000  0.5242000000000  0.4706000000000 1.0
C      1  0.5622030000000  0.5074420000000  0.4751690000000 1.0
C      1  0.4564300000000  0.4722720000000  0.5172520000000 1.0
C      1  0.4368270000000  0.5342860000000  0.5030830000000 1.0
C      1  0.5737970000000  0.5074750000000  0.5005510000000 1.0
C      1  0.5514860000000  0.4997910000000  0.5113160000000 1.0
C      1  0.5510970000000  0.4576030000000  0.4607270000000 1.0
C      1  0.4238520000000  0.5123550000000  0.5025880000000 1.0
C      1  0.5253570000000  0.4944340000000  0.5056040000000 1.0
C      1  0.4819130000000  0.5524300000000  0.4935910000000 1.0
C      1  0.5338200000000  0.4412030000000  0.4702140000000 1.0
C      1  0.4343910000000  0.4898480000000  0.5137670000000 1.0
C      1  0.5287390000000  0.5483860000000  0.4732160000000 1.0
C      1  0.4840070000000  0.4695430000000  0.5110650000000 1.0
C      1  0.5012470000000  0.4902920000000  0.5202890000000 1.0
C      1  0.4638400000000  0.5078060000000  0.5481420000000 1.0
C      1  0.5045160000000  0.5526760000000  0.4832370000000 1.0
C      1  0.5234790000000  0.4978970000000  0.4746050000000 1.0
C      1  0.5476200000000  0.4834310000000  0.4659990000000 1.0
C      1  0.4473870000000  0.4869200000000  0.5391080000000 1.0
C      1  0.4896350000000  0.5097320000000  0.5367960000000 1.0
C      1  0.4953620000000  0.4497890000000  0.4956720000000 1.0
C      1  0.5113040000000  0.4356720000000  0.4823580000000 1.0
C      1  0.4617230000000  0.5436940000000  0.5105040000000 1.0
C      1  0.4716240000000  0.5308230000000  0.5345490000000 1.0
END
