TITL C-38602-1021-3 -0.00706712747057813 125000 -29.1208935552065 0 0 5 (C2v) n - 1
REM
REM in /rds/project/t2_vol4/rds-t2-cs072/BORA/CARBON/from-Arr/AIRSS/Generating-Clusters/GAP-ML-2020/Only-C1/SD-CG/HFTN-CG
REM
REM
REM
REM
REM
REM ./C.cell (11c1c37f851c82e70ff6c80c92926a4b)
REM AIRSS Version 0.9.1 bugfix July 2018 build 013d7b7c2542+ Fri, 06 Jul 2018 19:26:36 +0100
REM compiler GCC version 9.3.0
REM options -cpp -mtune=generic -march=x86-64 -g -O0
REM seed -637592416 -1339211095 1968691569 128240559 -1399924708 -131539625 326302440 -1863236273 -1491559765 992003357 -1555148007 1326106287 1848117353 -1280859508 1409994287 78576684 1667160483 1289562176 -751576453 192875028 1009181686 -1831960697 357891872 -515366982 -514887593 1845250940 591012697 -462294069 -1187078675 1656826934 128229393 1245509938 -640878930
REM
CELL 1.54180   50.00000   50.00000   50.00000   90.00000   90.00000   90.00000
LATT -1
SFAC C  
C      1  0.4706200000000  0.5078220000000  0.5133800000000 1.0
C      1  0.4957440000000  0.5033190000000  0.5036340000000 1.0
C      1  0.5138960000000  0.4891610000000  0.4881320000000 1.0
C      1  0.5304900000000  0.4762180000000  0.4739600000000 1.0
C      1  0.4892500000000  0.5234790000000  0.5208940000000 1.0
END
