TITL C-38743-3258-9 -0.0502269709443559 125000 -430.518776631723 0 0 62 (C1) n - 1
REM
REM in /rds/project/t2_vol4/rds-t2-cs072/BORA/CARBON/from-Arr/AIRSS/Generating-Clusters/GAP-ML-2020/Only-C1/SD-CG/HFTN-CG
REM
REM
REM
REM
REM
REM ./C.cell (11c1c37f851c82e70ff6c80c92926a4b)
REM AIRSS Version 0.9.1 bugfix July 2018 build 013d7b7c2542+ Fri, 06 Jul 2018 19:26:36 +0100
REM compiler GCC version 9.3.0
REM options -cpp -mtune=generic -march=x86-64 -g -O0
REM seed 210555856 -575157499 1981256477 1396741436 -570980199 1309311006 -355954399 -882439631 958073329 -676891860 -1651142904 2099460305 -825089319 -1329241886 -1022855065 -1832234448 563667955 -1977097333 -937144101 -1734868915 366075375 -588742725 1881368111 -117348209 290539882 -932227460 1762134 -20356347 -1364852846 -2105134501 -990046306 -940038064 1784432678
REM
CELL 1.54180   50.00000   50.00000   50.00000   90.00000   90.00000   90.00000
LATT -1
SFAC C  
C      1  0.4469340000000  0.4730060000000  0.4802400000000 1.0
C      1  0.4593290000000  0.5165090000000  0.5461250000000 1.0
C      1  0.4875790000000  0.4544500000000  0.4647660000000 1.0
C      1  0.4551340000000  0.4876480000000  0.5478130000000 1.0
C      1  0.4858340000000  0.5258860000000  0.4347650000000 1.0
C      1  0.5538500000000  0.4746900000000  0.4828520000000 1.0
C      1  0.5443820000000  0.4938240000000  0.5569350000000 1.0
C      1  0.4648120000000  0.4518300000000  0.4852490000000 1.0
C      1  0.5380750000000  0.5278140000000  0.4988180000000 1.0
C      1  0.5158560000000  0.4456740000000  0.4699130000000 1.0
C      1  0.4828280000000  0.5015760000000  0.4223930000000 1.0
C      1  0.4768090000000  0.5759250000000  0.4858740000000 1.0
C      1  0.4755210000000  0.4764560000000  0.5634460000000 1.0
C      1  0.5279820000000  0.5394790000000  0.5568340000000 1.0
C      1  0.4431770000000  0.5140910000000  0.5015390000000 1.0
C      1  0.5045010000000  0.4817860000000  0.5216550000000 1.0
C      1  0.4574210000000  0.5208320000000  0.4765060000000 1.0
C      1  0.5367290000000  0.5384470000000  0.4519710000000 1.0
C      1  0.4393670000000  0.4863620000000  0.5036920000000 1.0
C      1  0.4778300000000  0.5701840000000  0.5147770000000 1.0
C      1  0.5273410000000  0.4838720000000  0.4400810000000 1.0
C      1  0.5786850000000  0.4848880000000  0.4934080000000 1.0
C      1  0.5212820000000  0.5590640000000  0.4619000000000 1.0
C      1  0.4984960000000  0.5537650000000  0.5246520000000 1.0
C      1  0.5026800000000  0.4797000000000  0.4266320000000 1.0
C      1  0.4728390000000  0.5488800000000  0.4440800000000 1.0
C      1  0.4483850000000  0.4714380000000  0.5254710000000 1.0
C      1  0.5509570000000  0.4542690000000  0.5293280000000 1.0
C      1  0.4842130000000  0.5220890000000  0.5603890000000 1.0
C      1  0.5565170000000  0.5209340000000  0.5211060000000 1.0
C      1  0.4635000000000  0.4847890000000  0.4355440000000 1.0
C      1  0.5278040000000  0.5096820000000  0.4554460000000 1.0
C      1  0.5355840000000  0.4643820000000  0.4593700000000 1.0
C      1  0.4845080000000  0.4387640000000  0.5311900000000 1.0
C      1  0.4641800000000  0.4490520000000  0.5141320000000 1.0
C      1  0.4875490000000  0.4520840000000  0.5566070000000 1.0
C      1  0.4994790000000  0.5147190000000  0.4589410000000 1.0
C      1  0.4513650000000  0.5570810000000  0.5129990000000 1.0
C      1  0.5075870000000  0.4889160000000  0.4950990000000 1.0
C      1  0.5287980000000  0.4424450000000  0.5415830000000 1.0
C      1  0.4500140000000  0.5457000000000  0.4626450000000 1.0
C      1  0.5419630000000  0.5488710000000  0.4772260000000 1.0
C      1  0.5066900000000  0.5325330000000  0.5056250000000 1.0
C      1  0.4504130000000  0.5640580000000  0.4846550000000 1.0
C      1  0.4947770000000  0.4966870000000  0.5698480000000 1.0
C      1  0.5480150000000  0.4517420000000  0.5014080000000 1.0
C      1  0.5110840000000  0.4325860000000  0.5212380000000 1.0
C      1  0.4920270000000  0.5598250000000  0.4661140000000 1.0
C      1  0.5153070000000  0.4559280000000  0.5618530000000 1.0
C      1  0.5454410000000  0.5213400000000  0.5481500000000 1.0
C      1  0.4476480000000  0.5307350000000  0.5237610000000 1.0
C      1  0.5339040000000  0.5010650000000  0.4834600000000 1.0
C      1  0.5018730000000  0.5438290000000  0.5515100000000 1.0
C      1  0.4906030000000  0.5325030000000  0.4801430000000 1.0
C      1  0.4885980000000  0.4881680000000  0.4707340000000 1.0
C      1  0.4585030000000  0.4932610000000  0.4632870000000 1.0
C      1  0.5716020000000  0.4959910000000  0.5179040000000 1.0
C      1  0.5244550000000  0.4368820000000  0.4955860000000 1.0
C      1  0.5205090000000  0.4832500000000  0.5683930000000 1.0
C      1  0.4821090000000  0.4619190000000  0.4374170000000 1.0
C      1  0.5604290000000  0.4789810000000  0.5387040000000 1.0
C      1  0.4983350000000  0.5068640000000  0.5162190000000 1.0
END
