TITL C-38741-3193-3 0.0634946496658965 125000 -659.636640374108 0 0 96 (C1) n - 1
REM
REM in /rds/project/t2_vol4/rds-t2-cs072/BORA/CARBON/from-Arr/AIRSS/Generating-Clusters/GAP-ML-2020/Only-C1/SD-CG/HFTN-CG
REM
REM
REM
REM
REM
REM ./C.cell (11c1c37f851c82e70ff6c80c92926a4b)
REM AIRSS Version 0.9.1 bugfix July 2018 build 013d7b7c2542+ Fri, 06 Jul 2018 19:26:36 +0100
REM compiler GCC version 9.3.0
REM options -cpp -mtune=generic -march=x86-64 -g -O0
REM seed -1823990740 210454888 -1018311585 -771231452 649657763 350576161 -1672833806 -1055302250 -127175080 -1998267362 -1349001218 -1802353485 330896944 -1261948986 551023904 -298756989 1312547160 -511908342 -644921228 1085735747 -1278180013 1685514479 -1726529410 1220881460 -2125662497 -1651471639 -1193994441 -1383265604 645944681 75663668 730554213 1838078683 -2075686857
REM
CELL 1.54180   50.00000   50.00000   50.00000   90.00000   90.00000   90.00000
LATT -1
SFAC C  
C      1  0.4642820000000  0.5053840000000  0.4815070000000 1.0
C      1  0.4923900000000  0.5842980000000  0.4666670000000 1.0
C      1  0.5006940000000  0.4298400000000  0.5526720000000 1.0
C      1  0.5103500000000  0.4582960000000  0.4257470000000 1.0
C      1  0.4581540000000  0.5659990000000  0.5285260000000 1.0
C      1  0.5500910000000  0.5346100000000  0.5272630000000 1.0
C      1  0.4069370000000  0.5357490000000  0.4811210000000 1.0
C      1  0.5174010000000  0.5686020000000  0.5048780000000 1.0
C      1  0.4821850000000  0.5573610000000  0.5850050000000 1.0
C      1  0.5213920000000  0.5306240000000  0.5675580000000 1.0
C      1  0.5468950000000  0.5297800000000  0.5544720000000 1.0
C      1  0.4823430000000  0.4646680000000  0.4236500000000 1.0
C      1  0.4866440000000  0.4284120000000  0.5093520000000 1.0
C      1  0.5175050000000  0.4366700000000  0.4453040000000 1.0
C      1  0.4219620000000  0.4611320000000  0.5050490000000 1.0
C      1  0.5428100000000  0.4886200000000  0.5701910000000 1.0
C      1  0.4390900000000  0.5353620000000  0.4529150000000 1.0
C      1  0.5424910000000  0.5737660000000  0.4741060000000 1.0
C      1  0.5246620000000  0.4828440000000  0.4183890000000 1.0
C      1  0.5680060000000  0.4854620000000  0.4744600000000 1.0
C      1  0.4995260000000  0.4744070000000  0.5389880000000 1.0
C      1  0.4195330000000  0.4847770000000  0.4899300000000 1.0
C      1  0.4614090000000  0.5865270000000  0.5103230000000 1.0
C      1  0.5186830000000  0.4694650000000  0.4951650000000 1.0
C      1  0.5528380000000  0.5075930000000  0.5134100000000 1.0
C      1  0.5704650000000  0.4879820000000  0.4462000000000 1.0
C      1  0.4936160000000  0.4250700000000  0.4565800000000 1.0
C      1  0.5349640000000  0.4080550000000  0.5238190000000 1.0
C      1  0.5534700000000  0.5095550000000  0.4843590000000 1.0
C      1  0.4741680000000  0.5042600000000  0.5078490000000 1.0
C      1  0.4930840000000  0.4927250000000  0.5858380000000 1.0
C      1  0.5464790000000  0.5655310000000  0.5023270000000 1.0
C      1  0.4683390000000  0.4370070000000  0.4592500000000 1.0
C      1  0.5652210000000  0.5135590000000  0.4359130000000 1.0
C      1  0.4530800000000  0.5333190000000  0.4790880000000 1.0
C      1  0.5951640000000  0.5149600000000  0.5166760000000 1.0
C      1  0.5051660000000  0.5281480000000  0.4271320000000 1.0
C      1  0.4416840000000  0.4829270000000  0.4429510000000 1.0
C      1  0.4154040000000  0.5206870000000  0.4595400000000 1.0
C      1  0.4913050000000  0.4651610000000  0.5819250000000 1.0
C      1  0.5766290000000  0.4975070000000  0.5287650000000 1.0
C      1  0.5671060000000  0.5375310000000  0.4507090000000 1.0
C      1  0.4217130000000  0.4922880000000  0.4616650000000 1.0
C      1  0.4921620000000  0.5547360000000  0.4583080000000 1.0
C      1  0.4698740000000  0.5346190000000  0.5879380000000 1.0
C      1  0.5096180000000  0.4181590000000  0.5276750000000 1.0
C      1  0.4626220000000  0.4301850000000  0.5265660000000 1.0
C      1  0.4821800000000  0.5481670000000  0.5358200000000 1.0
C      1  0.4726550000000  0.4333770000000  0.5524610000000 1.0
C      1  0.5043740000000  0.5032350000000  0.4139420000000 1.0
C      1  0.4285380000000  0.5329510000000  0.5003400000000 1.0
C      1  0.5882600000000  0.5368030000000  0.5003360000000 1.0
C      1  0.5754940000000  0.5287340000000  0.4761420000000 1.0
C      1  0.4763200000000  0.5513460000000  0.4849900000000 1.0
C      1  0.5435760000000  0.4463260000000  0.4888140000000 1.0
C      1  0.4967920000000  0.5468140000000  0.5090300000000 1.0
C      1  0.5184030000000  0.5371760000000  0.4541380000000 1.0
C      1  0.5678420000000  0.4636690000000  0.4923480000000 1.0
C      1  0.5437320000000  0.5536480000000  0.4538790000000 1.0
C      1  0.5215870000000  0.5137530000000  0.4779170000000 1.0
C      1  0.4549440000000  0.5017050000000  0.4246140000000 1.0
C      1  0.4709880000000  0.5811060000000  0.4863650000000 1.0
C      1  0.4478060000000  0.4531970000000  0.5160660000000 1.0
C      1  0.4554940000000  0.5029160000000  0.5527410000000 1.0
C      1  0.4261000000000  0.4667280000000  0.5323350000000 1.0
C      1  0.4674360000000  0.4569560000000  0.5670150000000 1.0
C      1  0.4630350000000  0.5233860000000  0.5322870000000 1.0
C      1  0.4705460000000  0.4779870000000  0.5469050000000 1.0
C      1  0.4648300000000  0.4639390000000  0.4480500000000 1.0
C      1  0.4229420000000  0.5051470000000  0.5113060000000 1.0
C      1  0.4810890000000  0.4890510000000  0.4654540000000 1.0
C      1  0.4793360000000  0.4230930000000  0.4809880000000 1.0
C      1  0.4699690000000  0.4748990000000  0.5154020000000 1.0
C      1  0.5159660000000  0.5837670000000  0.4803850000000 1.0
C      1  0.5517240000000  0.4911660000000  0.4247290000000 1.0
C      1  0.4417910000000  0.5431060000000  0.5239430000000 1.0
C      1  0.4952240000000  0.4595610000000  0.5118180000000 1.0
C      1  0.5087590000000  0.4878750000000  0.4736900000000 1.0
C      1  0.4555010000000  0.5291180000000  0.4314260000000 1.0
C      1  0.5122400000000  0.4986160000000  0.5287440000000 1.0
C      1  0.4788010000000  0.4910050000000  0.4139960000000 1.0
C      1  0.5340650000000  0.4846480000000  0.5172390000000 1.0
C      1  0.4812320000000  0.5407570000000  0.4339960000000 1.0
C      1  0.4292490000000  0.4944020000000  0.5374480000000 1.0
C      1  0.5397670000000  0.4621010000000  0.5613450000000 1.0
C      1  0.5121510000000  0.4539680000000  0.5639580000000 1.0
C      1  0.5184660000000  0.5041800000000  0.5783430000000 1.0
C      1  0.5489380000000  0.4584690000000  0.5332400000000 1.0
C      1  0.5425090000000  0.4339800000000  0.5171230000000 1.0
C      1  0.5727600000000  0.4685190000000  0.5200120000000 1.0
C      1  0.5605700000000  0.5047990000000  0.5566140000000 1.0
C      1  0.4684260000000  0.5083560000000  0.5798080000000 1.0
C      1  0.4988870000000  0.5483940000000  0.5614570000000 1.0
C      1  0.5672760000000  0.5522370000000  0.5143130000000 1.0
C      1  0.5037460000000  0.5167220000000  0.5059140000000 1.0
C      1  0.5380770000000  0.4339230000000  0.4630520000000 1.0
END
