TITL C-38743-3258-7 0.0222664394720567 125000 -198.028924937454 0 0 30 (C1) n - 1
REM
REM in /rds/project/t2_vol4/rds-t2-cs072/BORA/CARBON/from-Arr/AIRSS/Generating-Clusters/GAP-ML-2020/Only-C1/SD-CG/HFTN-CG
REM
REM
REM
REM
REM
REM ./C.cell (11c1c37f851c82e70ff6c80c92926a4b)
REM AIRSS Version 0.9.1 bugfix July 2018 build 013d7b7c2542+ Fri, 06 Jul 2018 19:26:36 +0100
REM compiler GCC version 9.3.0
REM options -cpp -mtune=generic -march=x86-64 -g -O0
REM seed 994519365 1453919259 -1007048242 931525153 -1017997926 -1617817593 656806356 999455853 1464863825 142141812 1274162475 -1455671097 712832611 -160244429 -432293093 829719942 1609785644 -1661328728 62083626 -662062490 1286618022 708704713 445739476 -858976842 -1481958076 1136759969 1325668602 472098330 -393349632 1006075540 328168161 819609910 1193989644
REM
CELL 1.54180   50.00000   50.00000   50.00000   90.00000   90.00000   90.00000
LATT -1
SFAC C  
C      1  0.4993020000000  0.4538430000000  0.5006860000000 1.0
C      1  0.4380750000000  0.4920890000000  0.5337580000000 1.0
C      1  0.4539660000000  0.4877240000000  0.5530780000000 1.0
C      1  0.4989570000000  0.5256370000000  0.4497060000000 1.0
C      1  0.4697060000000  0.5439890000000  0.4888380000000 1.0
C      1  0.5187770000000  0.4746000000000  0.5099660000000 1.0
C      1  0.4528710000000  0.4769540000000  0.4950270000000 1.0
C      1  0.5311740000000  0.4413640000000  0.4437390000000 1.0
C      1  0.4965670000000  0.5436790000000  0.5368720000000 1.0
C      1  0.5376970000000  0.5133220000000  0.5337220000000 1.0
C      1  0.5219680000000  0.4868630000000  0.5360240000000 1.0
C      1  0.5234220000000  0.4890060000000  0.4225620000000 1.0
C      1  0.4588530000000  0.5262600000000  0.5097740000000 1.0
C      1  0.5316310000000  0.4683240000000  0.4423230000000 1.0
C      1  0.4444430000000  0.5002710000000  0.5083330000000 1.0
C      1  0.5188040000000  0.5078520000000  0.4434230000000 1.0
C      1  0.4806800000000  0.5670350000000  0.5014560000000 1.0
C      1  0.5327150000000  0.4890970000000  0.4625360000000 1.0
C      1  0.4988480000000  0.5654480000000  0.5193790000000 1.0
C      1  0.5436660000000  0.5134900000000  0.5024690000000 1.0
C      1  0.5161050000000  0.5264260000000  0.5480230000000 1.0
C      1  0.5029530000000  0.5006160000000  0.5534310000000 1.0
C      1  0.4833410000000  0.5363340000000  0.4660460000000 1.0
C      1  0.4753300000000  0.5052050000000  0.5512460000000 1.0
C      1  0.4727260000000  0.5282770000000  0.5340570000000 1.0
C      1  0.5091770000000  0.4352090000000  0.4835830000000 1.0
C      1  0.5609580000000  0.5232660000000  0.5205750000000 1.0
C      1  0.4725280000000  0.4614810000000  0.4956390000000 1.0
C      1  0.5329560000000  0.4900660000000  0.4902840000000 1.0
C      1  0.5218010000000  0.4262730000000  0.4634440000000 1.0
END
