TITL C-38726-3204-10 51.6812201926351 125000 -530.58838731317 0 0 75 (C1) n - 1
REM
REM in /rds/project/t2_vol4/rds-t2-cs072/BORA/CARBON/from-Arr/AIRSS/Generating-Clusters/GAP-ML-2020/Only-C1/SD-CG/HFTN-CG
REM
REM
REM
REM
REM
REM ./C.cell (11c1c37f851c82e70ff6c80c92926a4b)
REM AIRSS Version 0.9.1 bugfix July 2018 build 013d7b7c2542+ Fri, 06 Jul 2018 19:26:36 +0100
REM compiler GCC version 9.3.0
REM options -cpp -mtune=generic -march=x86-64 -g -O0
REM seed 1514905498 1750494621 -1561111590 47200751 1852625002 -521704215 1644366568 -2124825113 387039055 -1695992087 -1974384181 -702829702 -1873188406 -2053102935 370688310 -12720012 2018142786 1127623405 2012490694 -989288422 -1140743026 1532832430 -2032463838 1065535429 -1986313229 -583254642 1446715384 327458429 1494850183 1640193951 -142827643 1916109589 -724126239
REM
CELL 1.54180   50.00000   50.00000   50.00000   90.00000   90.00000   90.00000
LATT -1
SFAC C  
C      1  0.4821590000000  0.5568920000000  0.4631530000000 1.0
C      1  0.4980820000000  0.4791660000000  0.5802330000000 1.0
C      1  0.4566470000000  0.5183800000000  0.4454470000000 1.0
C      1  0.4494610000000  0.4801750000000  0.5069550000000 1.0
C      1  0.5351850000000  0.5724550000000  0.5404780000000 1.0
C      1  0.4894400000000  0.4279620000000  0.4764900000000 1.0
C      1  0.5444910000000  0.4403590000000  0.4703010000000 1.0
C      1  0.4406970000000  0.4363360000000  0.4670860000000 1.0
C      1  0.5583080000000  0.5099870000000  0.4687230000000 1.0
C      1  0.4855290000000  0.5889650000000  0.5099580000000 1.0
C      1  0.5618570000000  0.5081860000000  0.4972690000000 1.0
C      1  0.4664120000000  0.5691610000000  0.5092020000000 1.0
C      1  0.5063190000000  0.4361370000000  0.5006900000000 1.0
C      1  0.5000890000000  0.5234910000000  0.4268950000000 1.0
C      1  0.4713770000000  0.5312960000000  0.5747530000000 1.0
C      1  0.4782700000000  0.5447370000000  0.5507160000000 1.0
C      1  0.4984120000000  0.4342940000000  0.4500190000000 1.0
C      1  0.4627680000000  0.4357560000000  0.4827690000000 1.0
C      1  0.5042690000000  0.4778470000000  0.5243900000000 1.0
C      1  0.4984530000000  0.4767570000000  0.4743140000000 1.0
C      1  0.5086340000000  0.5814350000000  0.4979570000000 1.0
C      1  0.5575040000000  0.4597370000000  0.4516610000000 1.0
C      1  0.5286110000000  0.5215710000000  0.4325290000000 1.0
C      1  0.5329480000000  0.5743490000000  0.5134340000000 1.0
C      1  0.5400270000000  0.5490350000000  0.5535530000000 1.0
C      1  0.4997650000000  0.4365470000000  0.5300960000000 1.0
C      1  0.4556300000000  0.5083670000000  0.5673730000000 1.0
C      1  0.5213730000000  0.4697860000000  0.5648560000000 1.0
C      1  0.4432380000000  0.4635690000000  0.4606340000000 1.0
C      1  0.5560010000000  0.4870500000000  0.5175610000000 1.0
C      1  0.5592960000000  0.5333580000000  0.5102340000000 1.0
C      1  0.4626220000000  0.4956490000000  0.4293550000000 1.0
C      1  0.4577460000000  0.4632660000000  0.5502070000000 1.0
C      1  0.5341170000000  0.5531150000000  0.4722290000000 1.0
C      1  0.5059350000000  0.5022700000000  0.5950380000000 1.0
C      1  0.4883360000000  0.4990000000000  0.4172220000000 1.0
C      1  0.5083470000000  0.5666690000000  0.4731880000000 1.0
C      1  0.4602030000000  0.4687970000000  0.4381470000000 1.0
C      1  0.4484970000000  0.5262420000000  0.5200970000000 1.0
C      1  0.4848740000000  0.4543270000000  0.4328130000000 1.0
C      1  0.4394210000000  0.5074140000000  0.5438320000000 1.0
C      1  0.4401290000000  0.4859670000000  0.4794210000000 1.0
C      1  0.5265440000000  0.4325230000000  0.4473670000000 1.0
C      1  0.5413210000000  0.4901950000000  0.5654990000000 1.0
C      1  0.5411110000000  0.4964410000000  0.4273060000000 1.0
C      1  0.4950520000000  0.5156560000000  0.4994490000000 1.0
C      1  0.4445960000000  0.5331740000000  0.4900320000000 1.0
C      1  0.4793040000000  0.5370810000000  0.4429800000000 1.0
C      1  0.5286810000000  0.4724340000000  0.4174160000000 1.0
C      1  0.4652910000000  0.4546480000000  0.5059640000000 1.0
C      1  0.5421870000000  0.5316430000000  0.4562550000000 1.0
C      1  0.5206840000000  0.5331590000000  0.5695530000000 1.0
C      1  0.5407540000000  0.4500800000000  0.4296860000000 1.0
C      1  0.5194600000000  0.4569240000000  0.5388360000000 1.0
C      1  0.5584900000000  0.4887010000000  0.4491350000000 1.0
C      1  0.4602330000000  0.5510060000000  0.5303230000000 1.0
C      1  0.4608460000000  0.5560790000000  0.4839780000000 1.0
C      1  0.4702090000000  0.5039210000000  0.5153300000000 1.0
C      1  0.5321270000000  0.5100700000000  0.5833620000000 1.0
C      1  0.4734200000000  0.4835070000000  0.5643830000000 1.0
C      1  0.5100650000000  0.5301680000000  0.5163460000000 1.0
C      1  0.5005960000000  0.4731680000000  0.4171350000000 1.0
C      1  0.5352890000000  0.4425130000000  0.4967090000000 1.0
C      1  0.4939160000000  0.4642580000000  0.5000460000000 1.0
C      1  0.5416040000000  0.4613230000000  0.5174590000000 1.0
C      1  0.5024420000000  0.5015950000000  0.4780440000000 1.0
C      1  0.4390690000000  0.4801500000000  0.5350120000000 1.0
C      1  0.5012330000000  0.5243580000000  0.5433370000000 1.0
C      1  0.5540520000000  0.5010120000000  0.5423370000000 1.0
C      1  0.4960530000000  0.5280290000000  0.5879850000000 1.0
C      1  0.4873210000000  0.4969900000000  0.5385040000000 1.0
C      1  0.4716750000000  0.4451450000000  0.5331730000000 1.0
C      1  0.5471370000000  0.5557250000000  0.4974290000000 1.0
C      1  0.4426700000000  0.5130970000000  0.4704310000000 1.0
C      1  0.5550900000000  0.5293680000000  0.5379180000000 1.0
END
