TITL C-38583-3996-1 0.33157006220994 125000 -1216.46815048893 0 0 173 (C1) n - 1
REM
REM in /rds/project/t2_vol4/rds-t2-cs072/BORA/CARBON/from-Arr/AIRSS/Generating-Clusters/GAP-ML-2020/Only-C1/SD-CG/HFTN-CG/C160-200
REM
REM
REM
REM
REM
REM ./C.cell (f2ad243b7eb7c0cd63fb1bbaf7e03044)
REM AIRSS Version 0.9.1 bugfix July 2018 build 013d7b7c2542+ Fri, 06 Jul 2018 19:26:36 +0100
REM compiler GCC version 9.3.0
REM options -cpp -mtune=generic -march=x86-64 -g -O0
REM seed -815503705 -891271857 816828497 -245673899 -471544452 -1913636603 -374103830 172285675 -1154586759 225933326 -1259760645 -1907544279 -1220581345 976621699 2069506767 -1144530187 -1157430646 1653301365 1283970030 1678437668 541936941 -1902789307 589913063 1157760522 -780420074 2020359917 1502851563 -1250814488 -1601094446 -1443390280 -379633620 299809068 -689775112
REM
CELL 1.54180   50.00000   50.00000   50.00000   90.00000   90.00000   90.00000
LATT -1
SFAC C  
C      1  0.3971230000000  0.5360020000000  0.5118170000000 1.0
C      1  0.4467070000000  0.5834140000000  0.4895630000000 1.0
C      1  0.4772100000000  0.5035700000000  0.5693000000000 1.0
C      1  0.4498520000000  0.4495530000000  0.5697170000000 1.0
C      1  0.4392390000000  0.5024150000000  0.5335780000000 1.0
C      1  0.5723870000000  0.5386510000000  0.4271750000000 1.0
C      1  0.4957230000000  0.4395600000000  0.5128510000000 1.0
C      1  0.3899670000000  0.5103340000000  0.4994170000000 1.0
C      1  0.4425330000000  0.5025620000000  0.5053580000000 1.0
C      1  0.5381370000000  0.4863700000000  0.4980950000000 1.0
C      1  0.5073320000000  0.5373440000000  0.5949590000000 1.0
C      1  0.5680920000000  0.4391090000000  0.5523810000000 1.0
C      1  0.4298440000000  0.5575690000000  0.5429510000000 1.0
C      1  0.5551570000000  0.5321000000000  0.4751820000000 1.0
C      1  0.4115220000000  0.5192390000000  0.5834290000000 1.0
C      1  0.5415220000000  0.4460650000000  0.4319300000000 1.0
C      1  0.4066220000000  0.4626940000000  0.5463650000000 1.0
C      1  0.5762540000000  0.5164730000000  0.4949720000000 1.0
C      1  0.5438350000000  0.4543520000000  0.5353210000000 1.0
C      1  0.5130800000000  0.4924620000000  0.5412590000000 1.0
C      1  0.4744470000000  0.4862840000000  0.4627270000000 1.0
C      1  0.5978780000000  0.5204870000000  0.4751050000000 1.0
C      1  0.4623350000000  0.4397740000000  0.4627810000000 1.0
C      1  0.5618480000000  0.5773270000000  0.5005720000000 1.0
C      1  0.4849640000000  0.6001660000000  0.5165990000000 1.0
C      1  0.4747830000000  0.5899210000000  0.4383860000000 1.0
C      1  0.5546010000000  0.5793320000000  0.4548280000000 1.0
C      1  0.5864430000000  0.4802440000000  0.5445570000000 1.0
C      1  0.5006060000000  0.4218520000000  0.4453300000000 1.0
C      1  0.5808710000000  0.4260570000000  0.4551300000000 1.0
C      1  0.5854290000000  0.4364180000000  0.5279750000000 1.0
C      1  0.5741930000000  0.4645570000000  0.5670500000000 1.0
C      1  0.5254760000000  0.5294800000000  0.4818670000000 1.0
C      1  0.4065070000000  0.5286500000000  0.4556180000000 1.0
C      1  0.5570260000000  0.5211790000000  0.4469230000000 1.0
C      1  0.5158510000000  0.4637710000000  0.5457660000000 1.0
C      1  0.5137090000000  0.6023510000000  0.4530890000000 1.0
C      1  0.5387910000000  0.4103290000000  0.4687510000000 1.0
C      1  0.5682810000000  0.5613460000000  0.4753710000000 1.0
C      1  0.4419310000000  0.5532120000000  0.5687100000000 1.0
C      1  0.5190090000000  0.5005540000000  0.4811080000000 1.0
C      1  0.5054350000000  0.5357450000000  0.3928320000000 1.0
C      1  0.5539860000000  0.4737800000000  0.5852690000000 1.0
C      1  0.5344740000000  0.4531630000000  0.5922320000000 1.0
C      1  0.4018790000000  0.4772720000000  0.4650010000000 1.0
C      1  0.5875190000000  0.4513030000000  0.4466240000000 1.0
C      1  0.5863580000000  0.4642900000000  0.4943710000000 1.0
C      1  0.4550730000000  0.5249270000000  0.4945170000000 1.0
C      1  0.5180350000000  0.5085310000000  0.5965110000000 1.0
C      1  0.5423020000000  0.5420280000000  0.5567830000000 1.0
C      1  0.4820910000000  0.5499920000000  0.4655570000000 1.0
C      1  0.4276390000000  0.4739230000000  0.4507510000000 1.0
C      1  0.4963250000000  0.4724000000000  0.4470890000000 1.0
C      1  0.4418010000000  0.4787890000000  0.4128600000000 1.0
C      1  0.5663890000000  0.4178960000000  0.4765020000000 1.0
C      1  0.4291100000000  0.4201940000000  0.5392080000000 1.0
C      1  0.4132620000000  0.5543190000000  0.4684510000000 1.0
C      1  0.5443210000000  0.5281910000000  0.5282380000000 1.0
C      1  0.5343810000000  0.4252610000000  0.5800170000000 1.0
C      1  0.5342200000000  0.5323050000000  0.3973550000000 1.0
C      1  0.4919280000000  0.4057750000000  0.4688050000000 1.0
C      1  0.4368290000000  0.5289390000000  0.5834910000000 1.0
C      1  0.5059680000000  0.5085990000000  0.5656120000000 1.0
C      1  0.5104380000000  0.4127320000000  0.5686200000000 1.0
C      1  0.5874960000000  0.5537870000000  0.5345190000000 1.0
C      1  0.5299860000000  0.4212940000000  0.4436890000000 1.0
C      1  0.3922030000000  0.4894630000000  0.5178980000000 1.0
C      1  0.4824950000000  0.4342050000000  0.4230250000000 1.0
C      1  0.5141610000000  0.5684480000000  0.5025350000000 1.0
C      1  0.4739800000000  0.4886540000000  0.5957100000000 1.0
C      1  0.4361900000000  0.4984830000000  0.4336900000000 1.0
C      1  0.4376630000000  0.5706150000000  0.4660010000000 1.0
C      1  0.4639280000000  0.4617740000000  0.5929930000000 1.0
C      1  0.4866650000000  0.4451400000000  0.5986680000000 1.0
C      1  0.4677460000000  0.5893220000000  0.5357850000000 1.0
C      1  0.4868380000000  0.4212350000000  0.5828550000000 1.0
C      1  0.4798630000000  0.5206400000000  0.4254190000000 1.0
C      1  0.5319710000000  0.5086770000000  0.4354980000000 1.0
C      1  0.4074860000000  0.5399540000000  0.5381270000000 1.0
C      1  0.4492780000000  0.5693040000000  0.5228010000000 1.0
C      1  0.5010930000000  0.4577580000000  0.4905880000000 1.0
C      1  0.4035110000000  0.5177290000000  0.5572820000000 1.0
C      1  0.5192020000000  0.5893270000000  0.4275920000000 1.0
C      1  0.5087530000000  0.5406100000000  0.4602870000000 1.0
C      1  0.5128460000000  0.5925810000000  0.5207790000000 1.0
C      1  0.4569950000000  0.4374820000000  0.4335770000000 1.0
C      1  0.4975770000000  0.4844920000000  0.3964070000000 1.0
C      1  0.4747170000000  0.5937670000000  0.4884600000000 1.0
C      1  0.5098230000000  0.4607920000000  0.6039840000000 1.0
C      1  0.5947820000000  0.5471000000000  0.4653300000000 1.0
C      1  0.5171900000000  0.4168710000000  0.5135470000000 1.0
C      1  0.4632330000000  0.5082440000000  0.4469440000000 1.0
C      1  0.5258920000000  0.4799350000000  0.3955500000000 1.0
C      1  0.4919730000000  0.4522140000000  0.5372970000000 1.0
C      1  0.4891080000000  0.5006860000000  0.5225240000000 1.0
C      1  0.5594160000000  0.4799920000000  0.5304410000000 1.0
C      1  0.5945710000000  0.5516130000000  0.4385750000000 1.0
C      1  0.4638420000000  0.3936150000000  0.5133680000000 1.0
C      1  0.4871940000000  0.5578050000000  0.4030490000000 1.0
C      1  0.5385730000000  0.4633920000000  0.4609400000000 1.0
C      1  0.5374320000000  0.4995010000000  0.5276360000000 1.0
C      1  0.4634330000000  0.5193560000000  0.5902180000000 1.0
C      1  0.4637100000000  0.5469280000000  0.4190510000000 1.0
C      1  0.5306820000000  0.4585570000000  0.4896590000000 1.0
C      1  0.3962050000000  0.5060920000000  0.4714780000000 1.0
C      1  0.5963290000000  0.4703400000000  0.4666970000000 1.0
C      1  0.5424750000000  0.5010990000000  0.4070380000000 1.0
C      1  0.5245700000000  0.5885950000000  0.5470490000000 1.0
C      1  0.4610380000000  0.5658920000000  0.4457440000000 1.0
C      1  0.5510240000000  0.5509770000000  0.4123380000000 1.0
C      1  0.4691450000000  0.5468190000000  0.5097270000000 1.0
C      1  0.4368130000000  0.4558470000000  0.4266300000000 1.0
C      1  0.4797240000000  0.5431480000000  0.5942240000000 1.0
C      1  0.5901400000000  0.5089370000000  0.5444470000000 1.0
C      1  0.5684810000000  0.4593750000000  0.4262720000000 1.0
C      1  0.4665050000000  0.5633060000000  0.5782190000000 1.0
C      1  0.4459070000000  0.4059730000000  0.4971540000000 1.0
C      1  0.5209500000000  0.5399640000000  0.5093300000000 1.0
C      1  0.5680270000000  0.5732950000000  0.5277530000000 1.0
C      1  0.4023620000000  0.4389090000000  0.5014710000000 1.0
C      1  0.5058540000000  0.4038600000000  0.5408050000000 1.0
C      1  0.5971610000000  0.5503800000000  0.5593600000000 1.0
C      1  0.4777600000000  0.3968340000000  0.5359730000000 1.0
C      1  0.4937330000000  0.5818570000000  0.4171730000000 1.0
C      1  0.5225980000000  0.4868120000000  0.4541230000000 1.0
C      1  0.4940800000000  0.5440690000000  0.5472860000000 1.0
C      1  0.5794120000000  0.5040970000000  0.4363350000000 1.0
C      1  0.4928050000000  0.4881580000000  0.4911390000000 1.0
C      1  0.4895830000000  0.5111780000000  0.3992730000000 1.0
C      1  0.5052810000000  0.5871200000000  0.5659190000000 1.0
C      1  0.5593750000000  0.5244560000000  0.5756420000000 1.0
C      1  0.5011720000000  0.4873860000000  0.6062630000000 1.0
C      1  0.4467740000000  0.4752250000000  0.4982200000000 1.0
C      1  0.4228870000000  0.4194550000000  0.5110270000000 1.0
C      1  0.5872360000000  0.5254500000000  0.5677890000000 1.0
C      1  0.4861940000000  0.6027160000000  0.4613530000000 1.0
C      1  0.4231240000000  0.4433470000000  0.5571420000000 1.0
C      1  0.4044400000000  0.5545810000000  0.4938440000000 1.0
C      1  0.5467980000000  0.5024230000000  0.5890880000000 1.0
C      1  0.5242290000000  0.4555480000000  0.4106060000000 1.0
C      1  0.5142490000000  0.5381230000000  0.5658310000000 1.0
C      1  0.5082900000000  0.5261000000000  0.4370980000000 1.0
C      1  0.5472610000000  0.5712890000000  0.5478880000000 1.0
C      1  0.3944320000000  0.4605340000000  0.5196340000000 1.0
C      1  0.5365190000000  0.5964440000000  0.4685930000000 1.0
C      1  0.4614190000000  0.4217380000000  0.5710110000000 1.0
C      1  0.5979560000000  0.4607510000000  0.5236350000000 1.0
C      1  0.4954950000000  0.4611640000000  0.4173620000000 1.0
C      1  0.4638450000000  0.5268370000000  0.4686220000000 1.0
C      1  0.3972170000000  0.4549850000000  0.4802840000000 1.0
C      1  0.5442520000000  0.5746380000000  0.4279880000000 1.0
C      1  0.4651350000000  0.4633720000000  0.5421390000000 1.0
C      1  0.4929980000000  0.4477470000000  0.4631680000000 1.0
C      1  0.5413790000000  0.4382590000000  0.5106410000000 1.0
C      1  0.4930240000000  0.5317700000000  0.5225200000000 1.0
C      1  0.5581370000000  0.4189110000000  0.5685540000000 1.0
C      1  0.4207010000000  0.5235650000000  0.4305270000000 1.0
C      1  0.4496040000000  0.4572560000000  0.5183260000000 1.0
C      1  0.5355930000000  0.5881580000000  0.4956790000000 1.0
C      1  0.4859060000000  0.5655830000000  0.4903410000000 1.0
C      1  0.5772730000000  0.5271890000000  0.5233280000000 1.0
C      1  0.5702640000000  0.4341860000000  0.5016380000000 1.0
C      1  0.5969320000000  0.4976560000000  0.4578560000000 1.0
C      1  0.5682220000000  0.4861910000000  0.4172780000000 1.0
C      1  0.4102010000000  0.4927510000000  0.5425830000000 1.0
C      1  0.5162480000000  0.4044580000000  0.4856900000000 1.0
C      1  0.4533080000000  0.4071010000000  0.5488480000000 1.0
C      1  0.4654750000000  0.4939520000000  0.5430100000000 1.0
C      1  0.4644670000000  0.4128470000000  0.4759610000000 1.0
C      1  0.4783840000000  0.5843540000000  0.5626530000000 1.0
C      1  0.4509070000000  0.4677740000000  0.4700060000000 1.0
C      1  0.4366320000000  0.5385100000000  0.4146030000000 1.0
C      1  0.5677140000000  0.4874560000000  0.4999180000000 1.0
END
