TITL C-38729-3367-2 0.0194485949459259 125000 -152.466534660516 0 0 24 (C1) n - 1
REM
REM in /rds/project/t2_vol4/rds-t2-cs072/BORA/CARBON/from-Arr/AIRSS/Generating-Clusters/GAP-ML-2020/Only-C1/SD-CG/HFTN-CG
REM
REM
REM
REM
REM
REM ./C.cell (11c1c37f851c82e70ff6c80c92926a4b)
REM AIRSS Version 0.9.1 bugfix July 2018 build 013d7b7c2542+ Fri, 06 Jul 2018 19:26:36 +0100
REM compiler GCC version 9.3.0
REM options -cpp -mtune=generic -march=x86-64 -g -O0
REM seed -1800450439 82312109 1795505484 1489389490 -1236556302 779245213 -685023359 -1360534163 284485293 -888997701 1674364448 -555675664 -1285647177 -1918796130 -1642620296 -922686804 -1505630635 -1741375179 -530961062 -191158625 -1442642592 -1636792551 1718573533 -1162304500 1381891468 75881215 157711099 -1001144853 1801353803 888937277 -1388236202 338868735 208210782
REM
CELL 1.54180   50.00000   50.00000   50.00000   90.00000   90.00000   90.00000
LATT -1
SFAC C  
C      1  0.5136330000000  0.5399540000000  0.4833460000000 1.0
C      1  0.4816890000000  0.4993810000000  0.5308780000000 1.0
C      1  0.5008530000000  0.5095090000000  0.4884510000000 1.0
C      1  0.4949200000000  0.5498200000000  0.5604550000000 1.0
C      1  0.5448850000000  0.5056310000000  0.4896490000000 1.0
C      1  0.4701320000000  0.5206220000000  0.5168230000000 1.0
C      1  0.5150810000000  0.5439390000000  0.5462440000000 1.0
C      1  0.4799270000000  0.4642910000000  0.4731410000000 1.0
C      1  0.4606530000000  0.4821850000000  0.4646500000000 1.0
C      1  0.4823370000000  0.4589200000000  0.5221980000000 1.0
C      1  0.5079660000000  0.4680110000000  0.4689440000000 1.0
C      1  0.5036540000000  0.4466550000000  0.5095000000000 1.0
C      1  0.4886700000000  0.5456970000000  0.4781870000000 1.0
C      1  0.5364080000000  0.5336920000000  0.4991820000000 1.0
C      1  0.4735900000000  0.4752450000000  0.5419320000000 1.0
C      1  0.4770590000000  0.4473460000000  0.4962910000000 1.0
C      1  0.5417410000000  0.5011780000000  0.4633940000000 1.0
C      1  0.5195310000000  0.4640400000000  0.4947510000000 1.0
C      1  0.4721690000000  0.5226820000000  0.4880130000000 1.0
C      1  0.4552740000000  0.5061780000000  0.4704740000000 1.0
C      1  0.5142350000000  0.4956490000000  0.4635140000000 1.0
C      1  0.5230540000000  0.5289150000000  0.5250130000000 1.0
C      1  0.5104150000000  0.5041020000000  0.5176560000000 1.0
C      1  0.5321250000000  0.4863580000000  0.5073130000000 1.0
END
