TITL C-38728-3315-2 -0.112230801443782 125000 -801.800522339523 0 0 114 (C1) n - 1
REM
REM in /rds/project/t2_vol4/rds-t2-cs072/BORA/CARBON/from-Arr/AIRSS/Generating-Clusters/GAP-ML-2020/Only-C1/SD-CG/HFTN-CG
REM
REM
REM
REM
REM
REM ./C.cell (11c1c37f851c82e70ff6c80c92926a4b)
REM AIRSS Version 0.9.1 bugfix July 2018 build 013d7b7c2542+ Fri, 06 Jul 2018 19:26:36 +0100
REM compiler GCC version 9.3.0
REM options -cpp -mtune=generic -march=x86-64 -g -O0
REM seed -169632181 -227096435 1840217807 592997813 1348346845 -1762676047 -817609950 -222357669 -1889859083 -726430556 -559639454 1788410596 65928691 -177187300 34674105 855971840 -1342324275 -1233770158 -554073010 -2103124518 -1809135633 591470872 298695631 -129823007 1032261529 390186504 1107742648 -740299184 -2069541374 2073756451 561462285 560245010 -1449767253
REM
CELL 1.54180   50.00000   50.00000   50.00000   90.00000   90.00000   90.00000
LATT -1
SFAC C  
C      1  0.5496110000000  0.5507220000000  0.4409350000000 1.0
C      1  0.4106510000000  0.5098180000000  0.4902050000000 1.0
C      1  0.5060720000000  0.4673490000000  0.5832580000000 1.0
C      1  0.4756250000000  0.5849400000000  0.4715880000000 1.0
C      1  0.5063920000000  0.4260770000000  0.4995200000000 1.0
C      1  0.4424690000000  0.4564200000000  0.5537160000000 1.0
C      1  0.4615160000000  0.5349560000000  0.4251480000000 1.0
C      1  0.4915170000000  0.5565190000000  0.5190350000000 1.0
C      1  0.4803180000000  0.5135900000000  0.4207610000000 1.0
C      1  0.5374310000000  0.5869340000000  0.5043010000000 1.0
C      1  0.4874040000000  0.4463610000000  0.4407990000000 1.0
C      1  0.5217970000000  0.5151120000000  0.5287870000000 1.0
C      1  0.4511520000000  0.4315620000000  0.5397440000000 1.0
C      1  0.4598420000000  0.4198730000000  0.4679210000000 1.0
C      1  0.5016740000000  0.4688130000000  0.5213320000000 1.0
C      1  0.5307220000000  0.5115150000000  0.5757710000000 1.0
C      1  0.4089150000000  0.4847720000000  0.5695460000000 1.0
C      1  0.5275290000000  0.4840220000000  0.5215940000000 1.0
C      1  0.5891410000000  0.5411950000000  0.4842750000000 1.0
C      1  0.4934430000000  0.5466920000000  0.5562890000000 1.0
C      1  0.4505320000000  0.4762740000000  0.5306320000000 1.0
C      1  0.5002810000000  0.4213700000000  0.5549580000000 1.0
C      1  0.5816610000000  0.4494180000000  0.4734540000000 1.0
C      1  0.5535750000000  0.4280420000000  0.5033590000000 1.0
C      1  0.4798650000000  0.4850280000000  0.5294210000000 1.0
C      1  0.4801700000000  0.4787980000000  0.5798660000000 1.0
C      1  0.5514970000000  0.5700220000000  0.4620940000000 1.0
C      1  0.4825930000000  0.4153800000000  0.5105780000000 1.0
C      1  0.5520190000000  0.5282400000000  0.5723080000000 1.0
C      1  0.5755100000000  0.5226560000000  0.5289340000000 1.0
C      1  0.4130770000000  0.5192080000000  0.5354320000000 1.0
C      1  0.4821860000000  0.5000130000000  0.5591180000000 1.0
C      1  0.4655020000000  0.5704310000000  0.5166920000000 1.0
C      1  0.4405670000000  0.5051000000000  0.5340770000000 1.0
C      1  0.5206230000000  0.4738420000000  0.4243560000000 1.0
C      1  0.4418700000000  0.4343030000000  0.5129070000000 1.0
C      1  0.5249050000000  0.5489790000000  0.4278390000000 1.0
C      1  0.4692050000000  0.4262080000000  0.4447890000000 1.0
C      1  0.5431980000000  0.4564130000000  0.4340190000000 1.0
C      1  0.5879230000000  0.5212040000000  0.4640620000000 1.0
C      1  0.5458220000000  0.5311880000000  0.5203750000000 1.0
C      1  0.5590380000000  0.5013570000000  0.4269330000000 1.0
C      1  0.5036860000000  0.5831390000000  0.4619370000000 1.0
C      1  0.5415210000000  0.4364310000000  0.4529250000000 1.0
C      1  0.4768510000000  0.4183150000000  0.5386600000000 1.0
C      1  0.4432440000000  0.5435810000000  0.4671600000000 1.0
C      1  0.4323420000000  0.4616170000000  0.5075510000000 1.0
C      1  0.5297940000000  0.4197830000000  0.5147010000000 1.0
C      1  0.4586580000000  0.4193950000000  0.4950660000000 1.0
C      1  0.5321910000000  0.4900280000000  0.4719180000000 1.0
C      1  0.5486400000000  0.4649310000000  0.5623950000000 1.0
C      1  0.5534860000000  0.5596640000000  0.5327530000000 1.0
C      1  0.5304350000000  0.4822250000000  0.5781250000000 1.0
C      1  0.4191470000000  0.4923020000000  0.4692900000000 1.0
C      1  0.4289220000000  0.5329890000000  0.4940320000000 1.0
C      1  0.4928160000000  0.4652820000000  0.4194160000000 1.0
C      1  0.4794660000000  0.5068890000000  0.5101070000000 1.0
C      1  0.4623930000000  0.4772360000000  0.4687470000000 1.0
C      1  0.4726910000000  0.4860230000000  0.4198230000000 1.0
C      1  0.4673700000000  0.5036060000000  0.4845710000000 1.0
C      1  0.4081400000000  0.4723090000000  0.5223110000000 1.0
C      1  0.5925910000000  0.4946880000000  0.4731780000000 1.0
C      1  0.4379690000000  0.5289870000000  0.4413170000000 1.0
C      1  0.5337630000000  0.4995060000000  0.4148620000000 1.0
C      1  0.4529370000000  0.4685350000000  0.5792620000000 1.0
C      1  0.5845120000000  0.4723960000000  0.4568490000000 1.0
C      1  0.4138560000000  0.4659130000000  0.5497690000000 1.0
C      1  0.4347450000000  0.5129810000000  0.5792170000000 1.0
C      1  0.4496260000000  0.5141460000000  0.5074860000000 1.0
C      1  0.5867250000000  0.4577520000000  0.4999440000000 1.0
C      1  0.5011690000000  0.5607880000000  0.4424340000000 1.0
C      1  0.4642730000000  0.5880830000000  0.4961250000000 1.0
C      1  0.5374720000000  0.4387600000000  0.5625950000000 1.0
C      1  0.4903060000000  0.4643210000000  0.4657740000000 1.0
C      1  0.5095160000000  0.4863580000000  0.4531160000000 1.0
C      1  0.5667220000000  0.5593330000000  0.4843560000000 1.0
C      1  0.5636650000000  0.5239440000000  0.4461130000000 1.0
C      1  0.5667640000000  0.5407070000000  0.5533840000000 1.0
C      1  0.4563570000000  0.5167880000000  0.5586150000000 1.0
C      1  0.5067900000000  0.5189030000000  0.5578200000000 1.0
C      1  0.5109010000000  0.4403160000000  0.5745900000000 1.0
C      1  0.5421010000000  0.5345220000000  0.4911820000000 1.0
C      1  0.5467230000000  0.5137790000000  0.4730340000000 1.0
C      1  0.4354480000000  0.4707460000000  0.4802850000000 1.0
C      1  0.5779420000000  0.4938510000000  0.5254340000000 1.0
C      1  0.4309300000000  0.5015100000000  0.4452330000000 1.0
C      1  0.5915220000000  0.4855630000000  0.5015020000000 1.0
C      1  0.4969720000000  0.5346110000000  0.4619060000000 1.0
C      1  0.5294800000000  0.5852390000000  0.4751400000000 1.0
C      1  0.5060050000000  0.5671960000000  0.5407830000000 1.0
C      1  0.4576950000000  0.5689580000000  0.4564660000000 1.0
C      1  0.5136810000000  0.5334550000000  0.4857760000000 1.0
C      1  0.4530570000000  0.4840830000000  0.4403630000000 1.0
C      1  0.5305070000000  0.4734010000000  0.4931760000000 1.0
C      1  0.5661630000000  0.4753180000000  0.4353950000000 1.0
C      1  0.4700770000000  0.5283130000000  0.4707150000000 1.0
C      1  0.4725730000000  0.5596310000000  0.4339950000000 1.0
C      1  0.4243480000000  0.5434890000000  0.5221130000000 1.0
C      1  0.4030550000000  0.4997240000000  0.5153690000000 1.0
C      1  0.5176960000000  0.5222120000000  0.4199070000000 1.0
C      1  0.5625350000000  0.5737140000000  0.5083960000000 1.0
C      1  0.4325480000000  0.4859000000000  0.5874860000000 1.0
C      1  0.5572790000000  0.4730140000000  0.5346840000000 1.0
C      1  0.5679390000000  0.4482600000000  0.5180690000000 1.0
C      1  0.5007150000000  0.5271440000000  0.5106430000000 1.0
C      1  0.5268890000000  0.4195200000000  0.5426870000000 1.0
C      1  0.4644510000000  0.5441100000000  0.5539720000000 1.0
C      1  0.4475370000000  0.5567450000000  0.5338480000000 1.0
C      1  0.5007030000000  0.5133230000000  0.4420040000000 1.0
C      1  0.5049860000000  0.4552120000000  0.4914600000000 1.0
C      1  0.4091830000000  0.5126520000000  0.5636280000000 1.0
C      1  0.5298270000000  0.5783000000000  0.5318490000000 1.0
C      1  0.5585620000000  0.4323300000000  0.4743150000000 1.0
C      1  0.5935790000000  0.5345120000000  0.5101630000000 1.0
END
