TITL C-38730-3264-8 -0.144836541039287 125000 -783.065489813252 0 0 113 (C1) n - 1
REM
REM in /rds/project/t2_vol4/rds-t2-cs072/BORA/CARBON/from-Arr/AIRSS/Generating-Clusters/GAP-ML-2020/Only-C1/SD-CG/HFTN-CG
REM
REM
REM
REM
REM
REM ./C.cell (11c1c37f851c82e70ff6c80c92926a4b)
REM AIRSS Version 0.9.1 bugfix July 2018 build 013d7b7c2542+ Fri, 06 Jul 2018 19:26:36 +0100
REM compiler GCC version 9.3.0
REM options -cpp -mtune=generic -march=x86-64 -g -O0
REM seed -577654819 -632461397 1526605020 -1925490850 -882815786 1151897947 1081621599 -2101291082 1500873767 1129042130 -662169472 -964074212 -305423707 -382219406 1575509721 1272100419 -1032319934 -1134820396 -1579681901 940856016 -318618919 893023604 -1601916962 1152674524 1425342281 -553784573 -927304303 1074440595 -328992778 -1032818879 -1025252045 -865873820 121881471
REM
CELL 1.54180   50.00000   50.00000   50.00000   90.00000   90.00000   90.00000
LATT -1
SFAC C  
C      1  0.4256430000000  0.5436920000000  0.4816840000000 1.0
C      1  0.5706010000000  0.4788750000000  0.5438770000000 1.0
C      1  0.4309120000000  0.5179530000000  0.4439130000000 1.0
C      1  0.4646820000000  0.5460800000000  0.5908080000000 1.0
C      1  0.4358120000000  0.5450290000000  0.4382200000000 1.0
C      1  0.4918140000000  0.4318860000000  0.4806410000000 1.0
C      1  0.4507010000000  0.4626810000000  0.5479880000000 1.0
C      1  0.4756710000000  0.5408190000000  0.5414960000000 1.0
C      1  0.5271490000000  0.4824870000000  0.5145390000000 1.0
C      1  0.4533950000000  0.4292370000000  0.5108860000000 1.0
C      1  0.5282620000000  0.5638220000000  0.5424280000000 1.0
C      1  0.4596420000000  0.4956270000000  0.5807850000000 1.0
C      1  0.5113100000000  0.4771450000000  0.5364940000000 1.0
C      1  0.4875130000000  0.5628240000000  0.5834060000000 1.0
C      1  0.5154640000000  0.5815430000000  0.5072870000000 1.0
C      1  0.4980070000000  0.4526320000000  0.5287380000000 1.0
C      1  0.5526420000000  0.4959880000000  0.4800150000000 1.0
C      1  0.4915660000000  0.5205030000000  0.5246370000000 1.0
C      1  0.5389240000000  0.4333900000000  0.5450350000000 1.0
C      1  0.5144220000000  0.4505790000000  0.4364930000000 1.0
C      1  0.5894170000000  0.4664150000000  0.5013610000000 1.0
C      1  0.4583830000000  0.4572320000000  0.4225870000000 1.0
C      1  0.4758210000000  0.5053370000000  0.5028320000000 1.0
C      1  0.4704180000000  0.4519870000000  0.5674330000000 1.0
C      1  0.4457050000000  0.4596360000000  0.5189200000000 1.0
C      1  0.5342930000000  0.5621000000000  0.4525900000000 1.0
C      1  0.5046770000000  0.4737870000000  0.5927500000000 1.0
C      1  0.4643180000000  0.4753650000000  0.4996340000000 1.0
C      1  0.4857140000000  0.5617300000000  0.4518490000000 1.0
C      1  0.5073780000000  0.4738580000000  0.4194110000000 1.0
C      1  0.4912170000000  0.4563370000000  0.5005790000000 1.0
C      1  0.5064460000000  0.5807660000000  0.5340390000000 1.0
C      1  0.5217810000000  0.5470690000000  0.4288760000000 1.0
C      1  0.4427260000000  0.4883710000000  0.5564660000000 1.0
C      1  0.4288160000000  0.4700020000000  0.4619920000000 1.0
C      1  0.5103560000000  0.4267970000000  0.5415210000000 1.0
C      1  0.4729590000000  0.5191230000000  0.5919210000000 1.0
C      1  0.4999210000000  0.4952710000000  0.4392790000000 1.0
C      1  0.5153120000000  0.4509500000000  0.5804140000000 1.0
C      1  0.5803210000000  0.4567910000000  0.4756120000000 1.0
C      1  0.4371090000000  0.4977060000000  0.4231730000000 1.0
C      1  0.4988310000000  0.5000040000000  0.5409610000000 1.0
C      1  0.5208030000000  0.5277470000000  0.5059790000000 1.0
C      1  0.5748500000000  0.4583250000000  0.5242610000000 1.0
C      1  0.5009990000000  0.4098580000000  0.5197550000000 1.0
C      1  0.5102500000000  0.5758530000000  0.4613680000000 1.0
C      1  0.4572440000000  0.4822470000000  0.4696240000000 1.0
C      1  0.4708130000000  0.5831940000000  0.4882370000000 1.0
C      1  0.5326050000000  0.5477210000000  0.5649470000000 1.0
C      1  0.4674640000000  0.4380800000000  0.4407200000000 1.0
C      1  0.5711450000000  0.5296850000000  0.5405330000000 1.0
C      1  0.4879490000000  0.5410320000000  0.4754800000000 1.0
C      1  0.4269720000000  0.4830340000000  0.5112900000000 1.0
C      1  0.4776440000000  0.5717150000000  0.5363970000000 1.0
C      1  0.4999540000000  0.5876100000000  0.4854720000000 1.0
C      1  0.5328740000000  0.5571890000000  0.5124040000000 1.0
C      1  0.5423190000000  0.5082300000000  0.4020370000000 1.0
C      1  0.5974000000000  0.4931080000000  0.4904170000000 1.0
C      1  0.4928390000000  0.5436270000000  0.4308070000000 1.0
C      1  0.5517000000000  0.5260950000000  0.5623790000000 1.0
C      1  0.4611630000000  0.5740020000000  0.4633420000000 1.0
C      1  0.4457210000000  0.5408920000000  0.5507900000000 1.0
C      1  0.4366940000000  0.5600820000000  0.4605090000000 1.0
C      1  0.5648200000000  0.5045180000000  0.5315760000000 1.0
C      1  0.5725120000000  0.5042150000000  0.4585110000000 1.0
C      1  0.5539560000000  0.4672320000000  0.4257960000000 1.0
C      1  0.5020860000000  0.5206200000000  0.5928480000000 1.0
C      1  0.5902460000000  0.4828670000000  0.4644940000000 1.0
C      1  0.5423150000000  0.4298250000000  0.4954340000000 1.0
C      1  0.4475300000000  0.5588010000000  0.5721330000000 1.0
C      1  0.5226360000000  0.5052120000000  0.4561620000000 1.0
C      1  0.4495260000000  0.4280870000000  0.4606040000000 1.0
C      1  0.4731090000000  0.4148830000000  0.5219510000000 1.0
C      1  0.4758580000000  0.4727720000000  0.5860830000000 1.0
C      1  0.5431340000000  0.5050690000000  0.5082500000000 1.0
C      1  0.4962420000000  0.4964480000000  0.4833550000000 1.0
C      1  0.4846650000000  0.4784160000000  0.4600710000000 1.0
C      1  0.5341530000000  0.5312500000000  0.4092930000000 1.0
C      1  0.4707200000000  0.5767900000000  0.5649850000000 1.0
C      1  0.4317580000000  0.5308060000000  0.5293010000000 1.0
C      1  0.5788890000000  0.5311210000000  0.4667180000000 1.0
C      1  0.5102310000000  0.5220650000000  0.4774900000000 1.0
C      1  0.4637670000000  0.4227690000000  0.4843890000000 1.0
C      1  0.5555370000000  0.4756890000000  0.5671800000000 1.0
C      1  0.4955170000000  0.4368930000000  0.5655230000000 1.0
C      1  0.5407890000000  0.4560900000000  0.4490980000000 1.0
C      1  0.4188740000000  0.5166100000000  0.4712830000000 1.0
C      1  0.5446510000000  0.5007460000000  0.5771100000000 1.0
C      1  0.5105840000000  0.5462460000000  0.5833310000000 1.0
C      1  0.4637160000000  0.5002030000000  0.4130240000000 1.0
C      1  0.4264510000000  0.4422800000000  0.4639100000000 1.0
C      1  0.4643490000000  0.5270410000000  0.4850770000000 1.0
C      1  0.5196100000000  0.4984870000000  0.5920980000000 1.0
C      1  0.4770210000000  0.4749200000000  0.4102210000000 1.0
C      1  0.5560470000000  0.4420090000000  0.4720520000000 1.0
C      1  0.4594670000000  0.5713040000000  0.5118690000000 1.0
C      1  0.5786380000000  0.5395140000000  0.5130300000000 1.0
C      1  0.4189410000000  0.4906180000000  0.4833910000000 1.0
C      1  0.4296500000000  0.5017970000000  0.5333040000000 1.0
C      1  0.4794190000000  0.5163490000000  0.4331710000000 1.0
C      1  0.5131390000000  0.4746860000000  0.4911500000000 1.0
C      1  0.5592000000000  0.5560020000000  0.4984490000000 1.0
C      1  0.5363330000000  0.4823090000000  0.4108360000000 1.0
C      1  0.5589540000000  0.5532580000000  0.4690840000000 1.0
C      1  0.5545230000000  0.4372130000000  0.5216780000000 1.0
C      1  0.4575080000000  0.5117210000000  0.4595310000000 1.0
C      1  0.4919800000000  0.4454750000000  0.4536030000000 1.0
C      1  0.4420820000000  0.5459810000000  0.5054000000000 1.0
C      1  0.5406790000000  0.4509660000000  0.5677490000000 1.0
C      1  0.4339190000000  0.4717140000000  0.4320790000000 1.0
C      1  0.5907200000000  0.5229460000000  0.4925170000000 1.0
C      1  0.5149370000000  0.4184320000000  0.4954650000000 1.0
C      1  0.5331560000000  0.4799840000000  0.4680270000000 1.0
END
