TITL C-38718-3187-4 0.161474559938623 125000 -466.023055776727 0 0 68 (C1) n - 1
REM
REM in /rds/project/t2_vol4/rds-t2-cs072/BORA/CARBON/from-Arr/AIRSS/Generating-Clusters/GAP-ML-2020/Only-C1/SD-CG/HFTN-CG
REM
REM
REM
REM
REM
REM ./C.cell (11c1c37f851c82e70ff6c80c92926a4b)
REM AIRSS Version 0.9.1 bugfix July 2018 build 013d7b7c2542+ Fri, 06 Jul 2018 19:26:36 +0100
REM compiler GCC version 9.3.0
REM options -cpp -mtune=generic -march=x86-64 -g -O0
REM seed -1313467815 630078482 -1281595000 1130579293 1415026267 1935951088 -1984164312 -307193264 -1556273675 1079765345 -233548671 358497161 -89940415 -492565941 -1378332878 -2041561034 -1104561423 292081889 377246093 1891974696 1059000435 310073540 -420957719 1995525595 -1641855974 1766095237 678447130 1648501417 -812544853 1994689214 -347342741 -1048472711 120954719
REM
CELL 1.54180   50.00000   50.00000   50.00000   90.00000   90.00000   90.00000
LATT -1
SFAC C  
C      1  0.5117020000000  0.4621700000000  0.5498330000000 1.0
C      1  0.4551270000000  0.5529150000000  0.5114980000000 1.0
C      1  0.4960770000000  0.5328880000000  0.5464770000000 1.0
C      1  0.5013330000000  0.5323050000000  0.5158710000000 1.0
C      1  0.4845750000000  0.5069060000000  0.5598870000000 1.0
C      1  0.5719700000000  0.5247550000000  0.5077150000000 1.0
C      1  0.4723010000000  0.4363080000000  0.4642990000000 1.0
C      1  0.5369690000000  0.4586310000000  0.5370760000000 1.0
C      1  0.5586790000000  0.4779680000000  0.5367840000000 1.0
C      1  0.5177690000000  0.5642110000000  0.4812540000000 1.0
C      1  0.5130180000000  0.4438630000000  0.4989120000000 1.0
C      1  0.4420720000000  0.5043590000000  0.5340230000000 1.0
C      1  0.4295960000000  0.5223320000000  0.4923100000000 1.0
C      1  0.4152510000000  0.4983710000000  0.4975820000000 1.0
C      1  0.4945770000000  0.5053370000000  0.5887370000000 1.0
C      1  0.5091880000000  0.4994170000000  0.4237050000000 1.0
C      1  0.5325740000000  0.5661210000000  0.5206960000000 1.0
C      1  0.4431620000000  0.4947480000000  0.4610170000000 1.0
C      1  0.5642390000000  0.5281960000000  0.5351360000000 1.0
C      1  0.4402120000000  0.5233510000000  0.4660230000000 1.0
C      1  0.4891190000000  0.4582330000000  0.5092100000000 1.0
C      1  0.4525140000000  0.5227900000000  0.5126440000000 1.0
C      1  0.4256790000000  0.4807170000000  0.4789070000000 1.0
C      1  0.4897570000000  0.5067730000000  0.4724020000000 1.0
C      1  0.5330520000000  0.5346370000000  0.4452610000000 1.0
C      1  0.5497820000000  0.5348630000000  0.4911220000000 1.0
C      1  0.4931850000000  0.5225690000000  0.4258950000000 1.0
C      1  0.4705570000000  0.4836780000000  0.4643580000000 1.0
C      1  0.4870610000000  0.4530300000000  0.5387740000000 1.0
C      1  0.5543370000000  0.4695370000000  0.4690710000000 1.0
C      1  0.5651880000000  0.4960290000000  0.4703870000000 1.0
C      1  0.4652960000000  0.4479930000000  0.4401300000000 1.0
C      1  0.5190330000000  0.4969930000000  0.4731370000000 1.0
C      1  0.5149980000000  0.4425750000000  0.4710330000000 1.0
C      1  0.4811910000000  0.4702360000000  0.4400160000000 1.0
C      1  0.4606940000000  0.5426590000000  0.4626760000000 1.0
C      1  0.5047610000000  0.5613550000000  0.5088700000000 1.0
C      1  0.4606380000000  0.4927400000000  0.5518490000000 1.0
C      1  0.4827370000000  0.5126150000000  0.5028690000000 1.0
C      1  0.5373960000000  0.4469650000000  0.5111890000000 1.0
C      1  0.5074950000000  0.4908750000000  0.5472270000000 1.0
C      1  0.4396210000000  0.4495220000000  0.5426870000000 1.0
C      1  0.4282250000000  0.4606520000000  0.5212620000000 1.0
C      1  0.4983970000000  0.4885060000000  0.5149460000000 1.0
C      1  0.5565950000000  0.5036340000000  0.5485590000000 1.0
C      1  0.5257600000000  0.4683410000000  0.4588770000000 1.0
C      1  0.4627720000000  0.4628730000000  0.5498790000000 1.0
C      1  0.5431160000000  0.5627120000000  0.4942040000000 1.0
C      1  0.5217240000000  0.5236990000000  0.4213050000000 1.0
C      1  0.5090570000000  0.4743970000000  0.4347920000000 1.0
C      1  0.4384080000000  0.4595430000000  0.4933330000000 1.0
C      1  0.4769320000000  0.5697580000000  0.5082630000000 1.0
C      1  0.4669410000000  0.4587630000000  0.4860940000000 1.0
C      1  0.5721260000000  0.4765300000000  0.5117630000000 1.0
C      1  0.5118760000000  0.5498690000000  0.4585220000000 1.0
C      1  0.5229070000000  0.5355200000000  0.5551020000000 1.0
C      1  0.4203080000000  0.4887040000000  0.5239650000000 1.0
C      1  0.5584000000000  0.4579810000000  0.4947800000000 1.0
C      1  0.5424180000000  0.5481700000000  0.5394640000000 1.0
C      1  0.5309110000000  0.5076660000000  0.5609050000000 1.0
C      1  0.4961810000000  0.4239510000000  0.4640720000000 1.0
C      1  0.5242940000000  0.4937800000000  0.5018340000000 1.0
C      1  0.4620870000000  0.5604120000000  0.4851770000000 1.0
C      1  0.4869710000000  0.5324560000000  0.4536170000000 1.0
C      1  0.5772030000000  0.4996090000000  0.4963770000000 1.0
C      1  0.5196930000000  0.5017420000000  0.5893730000000 1.0
C      1  0.5275540000000  0.5205970000000  0.5090430000000 1.0
C      1  0.5446590000000  0.5175990000000  0.4659400000000 1.0
END
