TITL C-38735-3357-3 -0.117284307412505 125000 -732.515305235527 0 0 104 (C1) n - 1
REM
REM in /rds/project/t2_vol4/rds-t2-cs072/BORA/CARBON/from-Arr/AIRSS/Generating-Clusters/GAP-ML-2020/Only-C1/SD-CG/HFTN-CG
REM
REM
REM
REM
REM
REM ./C.cell (11c1c37f851c82e70ff6c80c92926a4b)
REM AIRSS Version 0.9.1 bugfix July 2018 build 013d7b7c2542+ Fri, 06 Jul 2018 19:26:36 +0100
REM compiler GCC version 9.3.0
REM options -cpp -mtune=generic -march=x86-64 -g -O0
REM seed -58397746 1543795057 -1923949201 722182072 -672008271 697592621 -1111631274 -1763299317 -205300163 -855696756 663383315 -58133651 1575058097 1773758551 2144562202 1189414014 1671973379 -1745578163 -1986682323 -469047080 -413107858 -476733935 -938609057 -1443162983 1575295000 -77836571 -793122761 830905548 -1183620880 1293142469 999123351 -1962598923 -244030815
REM
CELL 1.54180   50.00000   50.00000   50.00000   90.00000   90.00000   90.00000
LATT -1
SFAC C  
C      1  0.5512240000000  0.5691370000000  0.5605410000000 1.0
C      1  0.5587780000000  0.5510240000000  0.5410380000000 1.0
C      1  0.4766160000000  0.4200370000000  0.4770260000000 1.0
C      1  0.5471980000000  0.4344260000000  0.4526450000000 1.0
C      1  0.4656150000000  0.4554490000000  0.4385520000000 1.0
C      1  0.5344060000000  0.4587200000000  0.5679550000000 1.0
C      1  0.4275390000000  0.5539330000000  0.4952050000000 1.0
C      1  0.5176590000000  0.5529330000000  0.4880030000000 1.0
C      1  0.4653270000000  0.5736150000000  0.4691130000000 1.0
C      1  0.5522720000000  0.5172530000000  0.5096800000000 1.0
C      1  0.5516360000000  0.5873470000000  0.5046910000000 1.0
C      1  0.4277020000000  0.4541000000000  0.5177950000000 1.0
C      1  0.5339480000000  0.4963600000000  0.4995220000000 1.0
C      1  0.5242240000000  0.5229790000000  0.4039560000000 1.0
C      1  0.4789530000000  0.5208100000000  0.4208880000000 1.0
C      1  0.5216180000000  0.5007360000000  0.4752870000000 1.0
C      1  0.5152930000000  0.4373810000000  0.5608730000000 1.0
C      1  0.5481110000000  0.5420100000000  0.4935840000000 1.0
C      1  0.5047840000000  0.5176070000000  0.5320850000000 1.0
C      1  0.4914430000000  0.4425410000000  0.4355050000000 1.0
C      1  0.5678730000000  0.4920640000000  0.5459750000000 1.0
C      1  0.5798050000000  0.4627640000000  0.5103600000000 1.0
C      1  0.5054300000000  0.5456690000000  0.4615280000000 1.0
C      1  0.5523600000000  0.5196990000000  0.5413580000000 1.0
C      1  0.4273260000000  0.4819340000000  0.5077570000000 1.0
C      1  0.5219770000000  0.4208910000000  0.5387690000000 1.0
C      1  0.5628510000000  0.5667230000000  0.4590750000000 1.0
C      1  0.4984460000000  0.5275410000000  0.4016820000000 1.0
C      1  0.4419820000000  0.5348390000000  0.4546430000000 1.0
C      1  0.4991910000000  0.4299030000000  0.4610110000000 1.0
C      1  0.4776990000000  0.4798140000000  0.5107370000000 1.0
C      1  0.5029220000000  0.5622340000000  0.5726030000000 1.0
C      1  0.5240970000000  0.5753220000000  0.5591380000000 1.0
C      1  0.5183000000000  0.4519740000000  0.4994980000000 1.0
C      1  0.4567100000000  0.4642560000000  0.4672480000000 1.0
C      1  0.4176150000000  0.5264130000000  0.4943210000000 1.0
C      1  0.4576300000000  0.5481970000000  0.5599330000000 1.0
C      1  0.4736220000000  0.4855220000000  0.5872550000000 1.0
C      1  0.4257390000000  0.5201950000000  0.5396280000000 1.0
C      1  0.5804990000000  0.5081440000000  0.5040340000000 1.0
C      1  0.4553020000000  0.4218980000000  0.5178730000000 1.0
C      1  0.5345030000000  0.5032210000000  0.4209940000000 1.0
C      1  0.5573470000000  0.4653760000000  0.5520090000000 1.0
C      1  0.5586180000000  0.5611210000000  0.5141600000000 1.0
C      1  0.5401690000000  0.4491040000000  0.4287510000000 1.0
C      1  0.4634170000000  0.5221060000000  0.5673720000000 1.0
C      1  0.4938370000000  0.4662260000000  0.5889130000000 1.0
C      1  0.4834750000000  0.5230550000000  0.4909870000000 1.0
C      1  0.5597540000000  0.4973500000000  0.4338040000000 1.0
C      1  0.5109900000000  0.5894010000000  0.5364930000000 1.0
C      1  0.4310940000000  0.4823470000000  0.4747280000000 1.0
C      1  0.4786300000000  0.5839240000000  0.4918840000000 1.0
C      1  0.5128040000000  0.4850760000000  0.4313880000000 1.0
C      1  0.4371650000000  0.5469760000000  0.5404650000000 1.0
C      1  0.4882950000000  0.4454640000000  0.5708090000000 1.0
C      1  0.5075150000000  0.5813970000000  0.4917240000000 1.0
C      1  0.5611600000000  0.4692100000000  0.4352680000000 1.0
C      1  0.4142920000000  0.5092210000000  0.5161110000000 1.0
C      1  0.4601630000000  0.4509180000000  0.5603520000000 1.0
C      1  0.4849130000000  0.5108850000000  0.5825530000000 1.0
C      1  0.4090480000000  0.4724600000000  0.4565180000000 1.0
C      1  0.5288690000000  0.4235470000000  0.4976790000000 1.0
C      1  0.5209070000000  0.4777340000000  0.4605550000000 1.0
C      1  0.5136740000000  0.4563050000000  0.4231550000000 1.0
C      1  0.5842490000000  0.4877210000000  0.5232240000000 1.0
C      1  0.4535700000000  0.4780770000000  0.5682170000000 1.0
C      1  0.5246190000000  0.5180990000000  0.5535570000000 1.0
C      1  0.4793420000000  0.4708960000000  0.4843720000000 1.0
C      1  0.4405600000000  0.5590220000000  0.4708320000000 1.0
C      1  0.4797800000000  0.4132340000000  0.5046760000000 1.0
C      1  0.4783720000000  0.5676720000000  0.5612370000000 1.0
C      1  0.4827500000000  0.5843810000000  0.5384920000000 1.0
C      1  0.4426270000000  0.4560390000000  0.4232150000000 1.0
C      1  0.5640820000000  0.4471020000000  0.5292300000000 1.0
C      1  0.5459700000000  0.4259480000000  0.5234320000000 1.0
C      1  0.4540530000000  0.4939300000000  0.5180800000000 1.0
C      1  0.5627620000000  0.5395490000000  0.4661020000000 1.0
C      1  0.5554810000000  0.5836250000000  0.4769140000000 1.0
C      1  0.4815800000000  0.5585050000000  0.4510000000000 1.0
C      1  0.4582140000000  0.5147710000000  0.4975940000000 1.0
C      1  0.5796760000000  0.4683430000000  0.4808990000000 1.0
C      1  0.5239380000000  0.5928370000000  0.5117190000000 1.0
C      1  0.4999970000000  0.4883570000000  0.5260500000000 1.0
C      1  0.4479280000000  0.5021380000000  0.5504880000000 1.0
C      1  0.5004230000000  0.5348880000000  0.5097290000000 1.0
C      1  0.5039830000000  0.4590990000000  0.4755910000000 1.0
C      1  0.5141070000000  0.5062250000000  0.5778130000000 1.0
C      1  0.4642750000000  0.5389060000000  0.4377810000000 1.0
C      1  0.5192900000000  0.4780570000000  0.5833220000000 1.0
C      1  0.4646080000000  0.5814110000000  0.5166810000000 1.0
C      1  0.4908130000000  0.5033120000000  0.4397300000000 1.0
C      1  0.4997750000000  0.5166150000000  0.4654120000000 1.0
C      1  0.5710740000000  0.5129180000000  0.4562890000000 1.0
C      1  0.4367710000000  0.4338220000000  0.4988460000000 1.0
C      1  0.4460740000000  0.4406940000000  0.5380920000000 1.0
C      1  0.5282020000000  0.4206610000000  0.4677540000000 1.0
C      1  0.5226500000000  0.4757530000000  0.5149830000000 1.0
C      1  0.5065170000000  0.4135490000000  0.5144500000000 1.0
C      1  0.5690730000000  0.4541030000000  0.4584650000000 1.0
C      1  0.4517570000000  0.4354030000000  0.4747580000000 1.0
C      1  0.4204680000000  0.4627870000000  0.4353050000000 1.0
C      1  0.5818810000000  0.4972380000000  0.4775360000000 1.0
C      1  0.4360100000000  0.5127240000000  0.4746710000000 1.0
C      1  0.4403440000000  0.5647710000000  0.5184230000000 1.0
END
