TITL C-38615-931-9 -365.090535830937 125000 -934.575512593208 0 0 135 (C1) n - 1
REM
REM in /rds/project/t2_vol4/rds-t2-cs072/BORA/CARBON/from-Arr/AIRSS/Generating-Clusters/GAP-ML-2020/Only-C1/SD-CG/HFTN-CG
REM
REM
REM
REM
REM
REM ./C.cell (11c1c37f851c82e70ff6c80c92926a4b)
REM AIRSS Version 0.9.1 bugfix July 2018 build 013d7b7c2542+ Fri, 06 Jul 2018 19:26:36 +0100
REM compiler GCC version 9.3.0
REM options -cpp -mtune=generic -march=x86-64 -g -O0
REM seed -882125189 202017314 -2043794020 -782658897 231797430 957002616 1980348640 1112309485 571002576 1835943275 -1694184216 -630145731 1792412229 -2129467699 -1275610574 -98471797 1146391640 -1747389924 1490858548 -324423814 -1131370498 -38635048 -1549072259 868228504 385909976 -1447920679 -965662037 444601150 -1590779275 -684164161 -1988514482 1251073100 -125014943
REM
CELL 1.54180   50.00000   50.00000   50.00000   90.00000   90.00000   90.00000
LATT -1
SFAC C  
C      1  0.4941990000000  0.5550610000000  0.4062700000000 1.0
C      1  0.5638450000000  0.4856760000000  0.4043550000000 1.0
C      1  0.4786690000000  0.4927570000000  0.5610170000000 1.0
C      1  0.5645570000000  0.4629780000000  0.4460760000000 1.0
C      1  0.4855630000000  0.4630710000000  0.5221260000000 1.0
C      1  0.5574950000000  0.5522410000000  0.5447390000000 1.0
C      1  0.4916040000000  0.5426360000000  0.5052460000000 1.0
C      1  0.5147010000000  0.4032210000000  0.5009560000000 1.0
C      1  0.5228760000000  0.4123090000000  0.4559950000000 1.0
C      1  0.5683660000000  0.5183520000000  0.5806970000000 1.0
C      1  0.4005300000000  0.5241420000000  0.4738240000000 1.0
C      1  0.4290360000000  0.4509170000000  0.5192100000000 1.0
C      1  0.4761210000000  0.4243210000000  0.5631410000000 1.0
C      1  0.5243450000000  0.5798100000000  0.5541100000000 1.0
C      1  0.5306290000000  0.4717360000000  0.4833550000000 1.0
C      1  0.5175850000000  0.4718540000000  0.5876550000000 1.0
C      1  0.4693780000000  0.5916320000000  0.4790570000000 1.0
C      1  0.5624030000000  0.5460410000000  0.5729750000000 1.0
C      1  0.4481610000000  0.5032420000000  0.4709120000000 1.0
C      1  0.5626210000000  0.4418570000000  0.5462360000000 1.0
C      1  0.5053980000000  0.4448430000000  0.4188710000000 1.0
C      1  0.4750840000000  0.5262970000000  0.5238570000000 1.0
C      1  0.4494170000000  0.4291360000000  0.5164770000000 1.0
C      1  0.5051150000000  0.4226810000000  0.4342810000000 1.0
C      1  0.5883410000000  0.4832640000000  0.4932470000000 1.0
C      1  0.5018120000000  0.5456770000000  0.4524080000000 1.0
C      1  0.4638190000000  0.5436520000000  0.5845730000000 1.0
C      1  0.5231820000000  0.4979160000000  0.6019050000000 1.0
C      1  0.5652130000000  0.5234610000000  0.4870840000000 1.0
C      1  0.5648770000000  0.5678140000000  0.4988620000000 1.0
C      1  0.5741180000000  0.4994710000000  0.4720610000000 1.0
C      1  0.4038370000000  0.5056500000000  0.5160530000000 1.0
C      1  0.5272500000000  0.5630650000000  0.4491780000000 1.0
C      1  0.4805100000000  0.5725620000000  0.5176720000000 1.0
C      1  0.5043260000000  0.4567920000000  0.5428340000000 1.0
C      1  0.5050540000000  0.4561820000000  0.4777340000000 1.0
C      1  0.5482570000000  0.4835650000000  0.4598220000000 1.0
C      1  0.4228580000000  0.4941680000000  0.4317080000000 1.0
C      1  0.5009560000000  0.5929580000000  0.5124320000000 1.0
C      1  0.4909650000000  0.4695040000000  0.4263010000000 1.0
C      1  0.4327660000000  0.5226760000000  0.5497170000000 1.0
C      1  0.3953760000000  0.4961060000000  0.4714780000000 1.0
C      1  0.5179490000000  0.4968590000000  0.4911090000000 1.0
C      1  0.5193540000000  0.5619550000000  0.4178460000000 1.0
C      1  0.5599930000000  0.5253320000000  0.4385600000000 1.0
C      1  0.4470920000000  0.4472600000000  0.4667970000000 1.0
C      1  0.4622460000000  0.4609410000000  0.4225860000000 1.0
C      1  0.4655860000000  0.5058880000000  0.4168620000000 1.0
C      1  0.4203030000000  0.4995720000000  0.5379620000000 1.0
C      1  0.5741400000000  0.5523690000000  0.5212810000000 1.0
C      1  0.4804040000000  0.5232640000000  0.5981830000000 1.0
C      1  0.4618760000000  0.4756680000000  0.4709360000000 1.0
C      1  0.5190780000000  0.4312970000000  0.5368790000000 1.0
C      1  0.4297840000000  0.5495170000000  0.5034530000000 1.0
C      1  0.5934540000000  0.4982770000000  0.5178180000000 1.0
C      1  0.4574390000000  0.4389480000000  0.4401010000000 1.0
C      1  0.4620530000000  0.4297180000000  0.4881980000000 1.0
C      1  0.5406180000000  0.4990450000000  0.4096070000000 1.0
C      1  0.4447440000000  0.5237030000000  0.5748870000000 1.0
C      1  0.4586270000000  0.5658900000000  0.5407330000000 1.0
C      1  0.5413330000000  0.5843700000000  0.4990010000000 1.0
C      1  0.4164910000000  0.5376770000000  0.4557860000000 1.0
C      1  0.5234140000000  0.5841990000000  0.4733290000000 1.0
C      1  0.5485660000000  0.5692990000000  0.5667590000000 1.0
C      1  0.4979520000000  0.4189260000000  0.5192410000000 1.0
C      1  0.5262160000000  0.5902950000000  0.5242090000000 1.0
C      1  0.5769250000000  0.5230660000000  0.5148580000000 1.0
C      1  0.5493040000000  0.4618030000000  0.5062970000000 1.0
C      1  0.5001210000000  0.5041070000000  0.4685780000000 1.0
C      1  0.5464960000000  0.4819960000000  0.5300750000000 1.0
C      1  0.5477460000000  0.4223680000000  0.4710720000000 1.0
C      1  0.5905620000000  0.4890040000000  0.5461170000000 1.0
C      1  0.5545000000000  0.5507230000000  0.4512200000000 1.0
C      1  0.4567330000000  0.5737050000000  0.4617510000000 1.0
C      1  0.4390520000000  0.5506210000000  0.4719370000000 1.0
C      1  0.5330200000000  0.5346180000000  0.5373480000000 1.0
C      1  0.5029810000000  0.5631650000000  0.5630840000000 1.0
C      1  0.4090750000000  0.4793570000000  0.4531160000000 1.0
C      1  0.5657290000000  0.4712450000000  0.5505400000000 1.0
C      1  0.3975200000000  0.4844830000000  0.4980240000000 1.0
C      1  0.5501300000000  0.4379320000000  0.5711490000000 1.0
C      1  0.5896730000000  0.5071890000000  0.5661380000000 1.0
C      1  0.5006990000000  0.4891760000000  0.5144820000000 1.0
C      1  0.4987160000000  0.5940570000000  0.4836140000000 1.0
C      1  0.4724850000000  0.5643080000000  0.5666430000000 1.0
C      1  0.4696010000000  0.5534570000000  0.4197570000000 1.0
C      1  0.5183680000000  0.4836170000000  0.5373980000000 1.0
C      1  0.5377000000000  0.5053870000000  0.4395240000000 1.0
C      1  0.4708900000000  0.4195450000000  0.5349740000000 1.0
C      1  0.5112610000000  0.5361070000000  0.5569190000000 1.0
C      1  0.5156900000000  0.5391840000000  0.4007040000000 1.0
C      1  0.5748990000000  0.4579730000000  0.4916570000000 1.0
C      1  0.5505450000000  0.4976870000000  0.5921410000000 1.0
C      1  0.4765380000000  0.5666310000000  0.4431240000000 1.0
C      1  0.5361410000000  0.5183260000000  0.4987100000000 1.0
C      1  0.4639380000000  0.4801150000000  0.5378260000000 1.0
C      1  0.5449560000000  0.4348540000000  0.5212830000000 1.0
C      1  0.5207710000000  0.5402340000000  0.5101660000000 1.0
C      1  0.4892430000000  0.4754350000000  0.4616040000000 1.0
C      1  0.5773090000000  0.4812830000000  0.4280720000000 1.0
C      1  0.4769750000000  0.4097670000000  0.4705180000000 1.0
C      1  0.4379490000000  0.5743680000000  0.5184500000000 1.0
C      1  0.4942400000000  0.4995900000000  0.4180500000000 1.0
C      1  0.5502750000000  0.4694770000000  0.5793310000000 1.0
C      1  0.4184110000000  0.4559030000000  0.4691270000000 1.0
C      1  0.4772780000000  0.4193600000000  0.4435830000000 1.0
C      1  0.4879980000000  0.5208400000000  0.5504610000000 1.0
C      1  0.5023980000000  0.4234750000000  0.5791250000000 1.0
C      1  0.5093370000000  0.5146770000000  0.4422020000000 1.0
C      1  0.4724710000000  0.4992240000000  0.5149050000000 1.0
C      1  0.5162170000000  0.5103570000000  0.3993290000000 1.0
C      1  0.5493960000000  0.5112100000000  0.5262350000000 1.0
C      1  0.4345220000000  0.4742240000000  0.5357610000000 1.0
C      1  0.5411650000000  0.4156050000000  0.4986450000000 1.0
C      1  0.5039170000000  0.4779380000000  0.5629540000000 1.0
C      1  0.4986380000000  0.4477760000000  0.5937080000000 1.0
C      1  0.4595140000000  0.5283980000000  0.4644270000000 1.0
C      1  0.4586420000000  0.5873050000000  0.5043770000000 1.0
C      1  0.4111150000000  0.4592280000000  0.4971350000000 1.0
C      1  0.4549720000000  0.4919420000000  0.4938650000000 1.0
C      1  0.5260840000000  0.4239560000000  0.5648430000000 1.0
C      1  0.5039530000000  0.5168990000000  0.6088350000000 1.0
C      1  0.4477680000000  0.5393810000000  0.5299340000000 1.0
C      1  0.4070520000000  0.5305200000000  0.5011140000000 1.0
C      1  0.4550180000000  0.5295630000000  0.4290810000000 1.0
C      1  0.4732320000000  0.4465350000000  0.5805950000000 1.0
C      1  0.5817180000000  0.5062640000000  0.4441980000000 1.0
C      1  0.4470370000000  0.4843410000000  0.4194100000000 1.0
C      1  0.4257960000000  0.5228810000000  0.4335260000000 1.0
C      1  0.5678780000000  0.4430260000000  0.4664270000000 1.0
C      1  0.4883850000000  0.4433700000000  0.4999930000000 1.0
C      1  0.5667170000000  0.5507320000000  0.4761450000000 1.0
C      1  0.4871260000000  0.5323570000000  0.4759310000000 1.0
C      1  0.4633320000000  0.5035860000000  0.5842310000000 1.0
C      1  0.5042280000000  0.4015990000000  0.4750160000000 1.0
END
