TITL C-38623-975-3 0.116823669653569 125000 -800.488716239314 0 0 115 (C1) n - 1
REM
REM in /rds/project/t2_vol4/rds-t2-cs072/BORA/CARBON/from-Arr/AIRSS/Generating-Clusters/GAP-ML-2020/Only-C1/SD-CG/HFTN-CG
REM
REM
REM
REM
REM
REM ./C.cell (11c1c37f851c82e70ff6c80c92926a4b)
REM AIRSS Version 0.9.1 bugfix July 2018 build 013d7b7c2542+ Fri, 06 Jul 2018 19:26:36 +0100
REM compiler GCC version 9.3.0
REM options -cpp -mtune=generic -march=x86-64 -g -O0
REM seed -1783144110 537915959 1191477370 1286954184 1446504339 -423686335 -905650909 -1880026752 -403995288 -1311582000 -737747425 561005196 1744000001 2012317010 1205723075 -491162871 -1430328360 1477111359 1377544293 394163911 -2077353133 -43779523 -715805424 1405900096 -443898895 -562148307 -2011323673 -859491954 -2042724705 1275704932 -2142871466 -123521600 1525857188
REM
CELL 1.54180   50.00000   50.00000   50.00000   90.00000   90.00000   90.00000
LATT -1
SFAC C  
C      1  0.5527880000000  0.4826950000000  0.5560800000000 1.0
C      1  0.4978020000000  0.4595530000000  0.5019170000000 1.0
C      1  0.5396530000000  0.5094070000000  0.4912030000000 1.0
C      1  0.5870300000000  0.5318030000000  0.4657820000000 1.0
C      1  0.5581330000000  0.4725290000000  0.4559390000000 1.0
C      1  0.5240850000000  0.5448070000000  0.5786550000000 1.0
C      1  0.4758690000000  0.4741340000000  0.5185290000000 1.0
C      1  0.5324660000000  0.5114270000000  0.4187550000000 1.0
C      1  0.5427540000000  0.4518530000000  0.4419880000000 1.0
C      1  0.4668950000000  0.4815220000000  0.4079700000000 1.0
C      1  0.5136210000000  0.4682810000000  0.5970320000000 1.0
C      1  0.5853310000000  0.5072490000000  0.5249700000000 1.0
C      1  0.4728530000000  0.5379380000000  0.5775690000000 1.0
C      1  0.4722100000000  0.4561930000000  0.4195740000000 1.0
C      1  0.5263390000000  0.5692250000000  0.5621560000000 1.0
C      1  0.5225070000000  0.4618460000000  0.4232980000000 1.0
C      1  0.4941550000000  0.5150740000000  0.4654150000000 1.0
C      1  0.4751890000000  0.4190490000000  0.5272500000000 1.0
C      1  0.5424960000000  0.4973430000000  0.4637790000000 1.0
C      1  0.5779490000000  0.4597810000000  0.5177590000000 1.0
C      1  0.4890120000000  0.5547480000000  0.4917410000000 1.0
C      1  0.4262440000000  0.4905410000000  0.5289610000000 1.0
C      1  0.5977350000000  0.4993990000000  0.5007630000000 1.0
C      1  0.5415770000000  0.4554630000000  0.5591020000000 1.0
C      1  0.5313020000000  0.4271130000000  0.4511560000000 1.0
C      1  0.4996780000000  0.5311700000000  0.5850280000000 1.0
C      1  0.4762930000000  0.5123840000000  0.4900470000000 1.0
C      1  0.5284460000000  0.5517450000000  0.4700650000000 1.0
C      1  0.5295170000000  0.4964010000000  0.5397590000000 1.0
C      1  0.4891780000000  0.5596460000000  0.5372790000000 1.0
C      1  0.5055180000000  0.4953580000000  0.5532340000000 1.0
C      1  0.5032720000000  0.5021680000000  0.5821150000000 1.0
C      1  0.5735830000000  0.5526360000000  0.4801850000000 1.0
C      1  0.5202500000000  0.5859900000000  0.5162380000000 1.0
C      1  0.4944880000000  0.4266880000000  0.5056200000000 1.0
C      1  0.5590410000000  0.4384310000000  0.5161830000000 1.0
C      1  0.5606380000000  0.5508140000000  0.5067060000000 1.0
C      1  0.5078900000000  0.5794050000000  0.5428100000000 1.0
C      1  0.4834180000000  0.4981120000000  0.5355210000000 1.0
C      1  0.5039280000000  0.4243380000000  0.4389420000000 1.0
C      1  0.5751990000000  0.4823320000000  0.5367870000000 1.0
C      1  0.5294630000000  0.4157630000000  0.4775110000000 1.0
C      1  0.4575560000000  0.4299930000000  0.4591820000000 1.0
C      1  0.5250510000000  0.4959580000000  0.5113920000000 1.0
C      1  0.4409720000000  0.5470030000000  0.5408460000000 1.0
C      1  0.5481350000000  0.5291840000000  0.5740900000000 1.0
C      1  0.5226250000000  0.4675580000000  0.5128930000000 1.0
C      1  0.4164810000000  0.5193310000000  0.4579140000000 1.0
C      1  0.4536490000000  0.5481960000000  0.4601320000000 1.0
C      1  0.5835270000000  0.4776510000000  0.4677110000000 1.0
C      1  0.4348080000000  0.5345980000000  0.5028950000000 1.0
C      1  0.4561970000000  0.4902010000000  0.5934560000000 1.0
C      1  0.4819950000000  0.5928750000000  0.4756240000000 1.0
C      1  0.4555070000000  0.5158830000000  0.5775760000000 1.0
C      1  0.4974820000000  0.4175820000000  0.5453470000000 1.0
C      1  0.4514270000000  0.4344860000000  0.5296380000000 1.0
C      1  0.5142720000000  0.4890450000000  0.4278660000000 1.0
C      1  0.4352050000000  0.4786940000000  0.5801720000000 1.0
C      1  0.5177220000000  0.5277650000000  0.4019200000000 1.0
C      1  0.4397900000000  0.4785930000000  0.5518050000000 1.0
C      1  0.5004150000000  0.4121490000000  0.4809610000000 1.0
C      1  0.4985890000000  0.4455700000000  0.4212640000000 1.0
C      1  0.4462860000000  0.5246330000000  0.4212460000000 1.0
C      1  0.4783200000000  0.4557540000000  0.5678350000000 1.0
C      1  0.5335980000000  0.5385610000000  0.4959280000000 1.0
C      1  0.5279710000000  0.4922150000000  0.5953120000000 1.0
C      1  0.4743580000000  0.5020490000000  0.4486050000000 1.0
C      1  0.5003970000000  0.5450220000000  0.4643010000000 1.0
C      1  0.5214930000000  0.4495200000000  0.5776090000000 1.0
C      1  0.4973960000000  0.4700060000000  0.4733510000000 1.0
C      1  0.5633710000000  0.5430920000000  0.5534510000000 1.0
C      1  0.4165130000000  0.4906820000000  0.4554470000000 1.0
C      1  0.4363460000000  0.5188350000000  0.5299790000000 1.0
C      1  0.4834010000000  0.4775770000000  0.5882730000000 1.0
C      1  0.5352760000000  0.4467720000000  0.5317150000000 1.0
C      1  0.4554410000000  0.4561050000000  0.4437980000000 1.0
C      1  0.4305180000000  0.4759250000000  0.5040300000000 1.0
C      1  0.4873280000000  0.4975140000000  0.4186430000000 1.0
C      1  0.4330430000000  0.5610640000000  0.5170390000000 1.0
C      1  0.4598740000000  0.4579290000000  0.5442700000000 1.0
C      1  0.4707900000000  0.5401480000000  0.4184040000000 1.0
C      1  0.4669180000000  0.5520480000000  0.5534910000000 1.0
C      1  0.4909370000000  0.5243030000000  0.4067870000000 1.0
C      1  0.5941590000000  0.5061120000000  0.4726800000000 1.0
C      1  0.4379430000000  0.4440670000000  0.5054380000000 1.0
C      1  0.4838010000000  0.5840840000000  0.4493770000000 1.0
C      1  0.4139030000000  0.4901590000000  0.4850330000000 1.0
C      1  0.4774320000000  0.5565370000000  0.4442800000000 1.0
C      1  0.5498960000000  0.5009410000000  0.5801580000000 1.0
C      1  0.5043650000000  0.5409120000000  0.5134940000000 1.0
C      1  0.4565540000000  0.5055830000000  0.5487000000000 1.0
C      1  0.5541220000000  0.5563240000000  0.4581560000000 1.0
C      1  0.4840930000000  0.4168580000000  0.4577010000000 1.0
C      1  0.4619970000000  0.4857320000000  0.4922580000000 1.0
C      1  0.4415690000000  0.5841550000000  0.5044490000000 1.0
C      1  0.5904080000000  0.4714810000000  0.4952540000000 1.0
C      1  0.4463660000000  0.4306390000000  0.4838600000000 1.0
C      1  0.5507120000000  0.5683770000000  0.5481260000000 1.0
C      1  0.5421540000000  0.4188900000000  0.5034290000000 1.0
C      1  0.5745070000000  0.5335040000000  0.5293300000000 1.0
C      1  0.4433130000000  0.4952420000000  0.4167040000000 1.0
C      1  0.4340270000000  0.5355120000000  0.4442910000000 1.0
C      1  0.4704670000000  0.4762910000000  0.4641460000000 1.0
C      1  0.4564100000000  0.5979730000000  0.4890500000000 1.0
C      1  0.5136410000000  0.4924110000000  0.4601140000000 1.0
C      1  0.4151950000000  0.5190620000000  0.4864900000000 1.0
C      1  0.5682850000000  0.5358950000000  0.4430560000000 1.0
C      1  0.5526190000000  0.5135240000000  0.4380690000000 1.0
C      1  0.4983580000000  0.4363940000000  0.5665460000000 1.0
C      1  0.5476930000000  0.5752680000000  0.5202620000000 1.0
C      1  0.4956360000000  0.5130660000000  0.5131740000000 1.0
C      1  0.4610680000000  0.5389310000000  0.4870330000000 1.0
C      1  0.5187650000000  0.4216830000000  0.5245560000000 1.0
C      1  0.4328540000000  0.4775600000000  0.4364880000000 1.0
C      1  0.5009080000000  0.5824080000000  0.4947320000000 1.0
END
