TITL C-38741-3193-1 -1.41325493598494 125000 -70.0068908972696 0 0 11 (C2v) n - 1
REM
REM in /rds/project/t2_vol4/rds-t2-cs072/BORA/CARBON/from-Arr/AIRSS/Generating-Clusters/GAP-ML-2020/Only-C1/SD-CG/HFTN-CG
REM
REM
REM
REM
REM
REM ./C.cell (11c1c37f851c82e70ff6c80c92926a4b)
REM AIRSS Version 0.9.1 bugfix July 2018 build 013d7b7c2542+ Fri, 06 Jul 2018 19:26:36 +0100
REM compiler GCC version 9.3.0
REM options -cpp -mtune=generic -march=x86-64 -g -O0
REM seed 1098488307 -1412040250 261144990 356248323 2039987773 226208005 -878891139 -270022934 1846028679 66291068 1103281087 -622808756 -405095150 -1634631730 -1822688061 -282304558 50812717 -531429473 1929791847 285710352 -567235803 -2030184601 1953377250 933409632 -129002093 -599277176 -332000535 -2066595393 -1729342550 -1355182704 -721185588 -34663362 1832783512
REM
CELL 1.54180   50.00000   50.00000   50.00000   90.00000   90.00000   90.00000
LATT -1
SFAC C  
C      1  0.4607880000000  0.5185540000000  0.4983730000000 1.0
C      1  0.4971620000000  0.4449170000000  0.4907120000000 1.0
C      1  0.4766950000000  0.5369970000000  0.5032540000000 1.0
C      1  0.5435190000000  0.5221660000000  0.5087540000000 1.0
C      1  0.4997770000000  0.5489780000000  0.5079330000000 1.0
C      1  0.5343530000000  0.4734610000000  0.4997540000000 1.0
C      1  0.5434380000000  0.4960850000000  0.5045060000000 1.0
C      1  0.4460840000000  0.4971310000000  0.4931510000000 1.0
C      1  0.5220760000000  0.4505500000000  0.4945770000000 1.0
C      1  0.4524670000000  0.4723140000000  0.4898730000000 1.0
C      1  0.5236410000000  0.5388460000000  0.5091120000000 1.0
END
