TITL C-38720-3215-7 55.6559511405994 125000 -782.359864968777 0 0 109 (C1) n - 1
REM
REM in /rds/project/t2_vol4/rds-t2-cs072/BORA/CARBON/from-Arr/AIRSS/Generating-Clusters/GAP-ML-2020/Only-C1/SD-CG/HFTN-CG
REM
REM
REM
REM
REM
REM ./C.cell (11c1c37f851c82e70ff6c80c92926a4b)
REM AIRSS Version 0.9.1 bugfix July 2018 build 013d7b7c2542+ Fri, 06 Jul 2018 19:26:36 +0100
REM compiler GCC version 9.3.0
REM options -cpp -mtune=generic -march=x86-64 -g -O0
REM seed 1241982477 1335067658 -103635813 1945613545 1619970911 -988350074 -598252289 -8539954 1276856375 -1337032973 1498751549 -715195754 -693493581 -400042177 -714257379 849295973 -472051501 -848387688 -2096174055 -1925518796 1951337131 -1588074051 -2135906804 1411882176 -1361351125 224243219 146917682 913702028 -1617508384 -207875578 1353649302 -30837938 922256926
REM
CELL 1.54180   50.00000   50.00000   50.00000   90.00000   90.00000   90.00000
LATT -1
SFAC C  
C      1  0.5889460000000  0.5011910000000  0.4773210000000 1.0
C      1  0.4678180000000  0.4580030000000  0.4218820000000 1.0
C      1  0.5863340000000  0.4907870000000  0.5213440000000 1.0
C      1  0.5381840000000  0.5560970000000  0.5658580000000 1.0
C      1  0.4108520000000  0.4835690000000  0.5163160000000 1.0
C      1  0.4530440000000  0.4329650000000  0.5536670000000 1.0
C      1  0.5507620000000  0.5652380000000  0.4723730000000 1.0
C      1  0.4708360000000  0.4467290000000  0.5725450000000 1.0
C      1  0.4533950000000  0.4219820000000  0.5274400000000 1.0
C      1  0.5130660000000  0.4932790000000  0.5764360000000 1.0
C      1  0.4786820000000  0.4209960000000  0.4658970000000 1.0
C      1  0.5738460000000  0.4742240000000  0.5403110000000 1.0
C      1  0.4169400000000  0.5268680000000  0.4941870000000 1.0
C      1  0.4573520000000  0.5187250000000  0.4517840000000 1.0
C      1  0.4774490000000  0.5687980000000  0.4593640000000 1.0
C      1  0.5413110000000  0.5305090000000  0.5776740000000 1.0
C      1  0.5648040000000  0.4530200000000  0.4630550000000 1.0
C      1  0.5566730000000  0.4870460000000  0.5595690000000 1.0
C      1  0.5168510000000  0.4664180000000  0.5843240000000 1.0
C      1  0.4864210000000  0.5079940000000  0.5332500000000 1.0
C      1  0.4798340000000  0.5353340000000  0.4972180000000 1.0
C      1  0.4698050000000  0.4668700000000  0.5155890000000 1.0
C      1  0.5843730000000  0.5262610000000  0.4904150000000 1.0
C      1  0.4948230000000  0.4501750000000  0.4257960000000 1.0
C      1  0.4649510000000  0.5328010000000  0.4265770000000 1.0
C      1  0.4791040000000  0.4129950000000  0.5186760000000 1.0
C      1  0.5196510000000  0.4412720000000  0.4602280000000 1.0
C      1  0.4290540000000  0.5290430000000  0.5403260000000 1.0
C      1  0.5706350000000  0.5329530000000  0.5415970000000 1.0
C      1  0.4521770000000  0.4321900000000  0.4627850000000 1.0
C      1  0.4146970000000  0.5128500000000  0.5205130000000 1.0
C      1  0.5177270000000  0.4162100000000  0.5043610000000 1.0
C      1  0.4480660000000  0.4512520000000  0.4409980000000 1.0
C      1  0.5652710000000  0.4378050000000  0.5084210000000 1.0
C      1  0.4676830000000  0.4854590000000  0.4958730000000 1.0
C      1  0.5055300000000  0.4163930000000  0.5311820000000 1.0
C      1  0.5255570000000  0.5193730000000  0.5057000000000 1.0
C      1  0.5131320000000  0.5880730000000  0.4882010000000 1.0
C      1  0.4472290000000  0.5202730000000  0.5616610000000 1.0
C      1  0.5064860000000  0.5297260000000  0.4875740000000 1.0
C      1  0.4683570000000  0.4840500000000  0.4133360000000 1.0
C      1  0.5263750000000  0.4925410000000  0.5471440000000 1.0
C      1  0.4315300000000  0.4379430000000  0.4830540000000 1.0
C      1  0.5548540000000  0.5580370000000  0.5429320000000 1.0
C      1  0.5836560000000  0.5201080000000  0.5193650000000 1.0
C      1  0.5609010000000  0.4755910000000  0.4450940000000 1.0
C      1  0.5234950000000  0.4742550000000  0.5008110000000 1.0
C      1  0.5439910000000  0.4234930000000  0.4949310000000 1.0
C      1  0.5395790000000  0.4807900000000  0.4248910000000 1.0
C      1  0.4471720000000  0.4967920000000  0.5760690000000 1.0
C      1  0.5016310000000  0.5832700000000  0.5465980000000 1.0
C      1  0.4210720000000  0.4578890000000  0.5281190000000 1.0
C      1  0.4303680000000  0.4718610000000  0.4499890000000 1.0
C      1  0.5153320000000  0.5155010000000  0.5317650000000 1.0
C      1  0.5397810000000  0.5064780000000  0.4153790000000 1.0
C      1  0.4146930000000  0.5064970000000  0.4748060000000 1.0
C      1  0.4598460000000  0.5417340000000  0.4737580000000 1.0
C      1  0.5902460000000  0.4796150000000  0.4954410000000 1.0
C      1  0.4487300000000  0.5784000000000  0.5244230000000 1.0
C      1  0.5101430000000  0.5629970000000  0.5652700000000 1.0
C      1  0.4495390000000  0.4697890000000  0.5733780000000 1.0
C      1  0.5156020000000  0.5201030000000  0.5837940000000 1.0
C      1  0.5654080000000  0.5259350000000  0.4478800000000 1.0
C      1  0.5066580000000  0.5784530000000  0.4626470000000 1.0
C      1  0.5466870000000  0.5298400000000  0.4270910000000 1.0
C      1  0.4876920000000  0.4772820000000  0.5327030000000 1.0
C      1  0.5449780000000  0.4327390000000  0.4676780000000 1.0
C      1  0.4332120000000  0.4540370000000  0.5542180000000 1.0
C      1  0.5277870000000  0.5512730000000  0.4289590000000 1.0
C      1  0.5150450000000  0.4720580000000  0.5282550000000 1.0
C      1  0.5745750000000  0.4993990000000  0.4530510000000 1.0
C      1  0.4077700000000  0.4818270000000  0.4883790000000 1.0
C      1  0.5398180000000  0.5791470000000  0.4954670000000 1.0
C      1  0.5614740000000  0.5161390000000  0.5639150000000 1.0
C      1  0.5694690000000  0.5430610000000  0.4708080000000 1.0
C      1  0.4778660000000  0.5579050000000  0.4325040000000 1.0
C      1  0.5083970000000  0.4627160000000  0.4797500000000 1.0
C      1  0.4324700000000  0.4361960000000  0.5116350000000 1.0
C      1  0.5303460000000  0.5674920000000  0.4516620000000 1.0
C      1  0.4421410000000  0.5499490000000  0.5250940000000 1.0
C      1  0.4995760000000  0.4450440000000  0.5743370000000 1.0
C      1  0.4882120000000  0.5228510000000  0.4113110000000 1.0
C      1  0.5076050000000  0.5168080000000  0.4632320000000 1.0
C      1  0.5017330000000  0.5478840000000  0.4186510000000 1.0
C      1  0.5367600000000  0.4966700000000  0.4948930000000 1.0
C      1  0.4861070000000  0.5008910000000  0.4576560000000 1.0
C      1  0.4321220000000  0.5009090000000  0.4530700000000 1.0
C      1  0.4909230000000  0.4136790000000  0.4917350000000 1.0
C      1  0.4794370000000  0.5802890000000  0.5273750000000 1.0
C      1  0.4662930000000  0.5859680000000  0.4814590000000 1.0
C      1  0.5437540000000  0.4411290000000  0.5556050000000 1.0
C      1  0.4726980000000  0.5487810000000  0.5262900000000 1.0
C      1  0.5781930000000  0.4551370000000  0.4883640000000 1.0
C      1  0.4748790000000  0.5304760000000  0.5523460000000 1.0
C      1  0.5437470000000  0.4624640000000  0.5740740000000 1.0
C      1  0.4429630000000  0.5783540000000  0.4957430000000 1.0
C      1  0.4175460000000  0.4606440000000  0.4730110000000 1.0
C      1  0.5122050000000  0.4729860000000  0.4183260000000 1.0
C      1  0.4853020000000  0.4790370000000  0.4746380000000 1.0
C      1  0.5246760000000  0.5942520000000  0.5359350000000 1.0
C      1  0.4877780000000  0.5912130000000  0.5008950000000 1.0
C      1  0.5445740000000  0.5779190000000  0.5238910000000 1.0
C      1  0.5638410000000  0.4477170000000  0.5351930000000 1.0
C      1  0.4719350000000  0.5108040000000  0.5082030000000 1.0
C      1  0.5158100000000  0.4294980000000  0.5547150000000 1.0
C      1  0.4932510000000  0.4949790000000  0.4086870000000 1.0
C      1  0.4354170000000  0.5491880000000  0.4918340000000 1.0
C      1  0.4981150000000  0.4304650000000  0.4462320000000 1.0
C      1  0.4965150000000  0.5390310000000  0.5719640000000 1.0
END
