TITL C-38720-3215-1 14.1769439227971 125000 -105.362894652622 0 0 17 (C1) n - 1
REM
REM in /rds/project/t2_vol4/rds-t2-cs072/BORA/CARBON/from-Arr/AIRSS/Generating-Clusters/GAP-ML-2020/Only-C1/SD-CG/HFTN-CG
REM
REM
REM
REM
REM
REM ./C.cell (11c1c37f851c82e70ff6c80c92926a4b)
REM AIRSS Version 0.9.1 bugfix July 2018 build 013d7b7c2542+ Fri, 06 Jul 2018 19:26:36 +0100
REM compiler GCC version 9.3.0
REM options -cpp -mtune=generic -march=x86-64 -g -O0
REM seed -1460860209 -1922629153 -949620719 1588168740 829814611 1264604115 323777109 -318555287 1200592160 1395799190 656561914 2093498061 -1025048772 -568065058 639470638 -2089598292 1188311556 127787530 -139260896 1413481375 47760764 -1494496150 -1783972190 1694899689 927843963 308142239 -1444821266 524954907 -16958806 1331801921 954970219 1500428065 -1814306927
REM
CELL 1.54180   50.00000   50.00000   50.00000   90.00000   90.00000   90.00000
LATT -1
SFAC C  
C      1  0.4885730000000  0.5206250000000  0.5328990000000 1.0
C      1  0.4723930000000  0.5078660000000  0.4503240000000 1.0
C      1  0.5717440000000  0.4850560000000  0.5211150000000 1.0
C      1  0.4639020000000  0.5176620000000  0.5214430000000 1.0
C      1  0.5604950000000  0.5250500000000  0.4906260000000 1.0
C      1  0.4915920000000  0.4967890000000  0.4674350000000 1.0
C      1  0.5347190000000  0.4740130000000  0.4788720000000 1.0
C      1  0.4241040000000  0.5137380000000  0.5098860000000 1.0
C      1  0.5663670000000  0.5065590000000  0.5073530000000 1.0
C      1  0.4640150000000  0.4985540000000  0.4754060000000 1.0
C      1  0.4516920000000  0.5009780000000  0.5000340000000 1.0
C      1  0.4243600000000  0.4899820000000  0.5000780000000 1.0
C      1  0.4388980000000  0.5298620000000  0.5263950000000 1.0
C      1  0.5682760000000  0.4628480000000  0.5077490000000 1.0
C      1  0.5543380000000  0.4588020000000  0.4860890000000 1.0
C      1  0.5079130000000  0.5204420000000  0.5487110000000 1.0
C      1  0.5166200000000  0.4911720000000  0.4755840000000 1.0
END
