TITL C-38733-3186-4 -0.0392946536535058 125000 -355.162266099941 0 0 53 (C1) n - 1
REM
REM in /rds/project/t2_vol4/rds-t2-cs072/BORA/CARBON/from-Arr/AIRSS/Generating-Clusters/GAP-ML-2020/Only-C1/SD-CG/HFTN-CG
REM
REM
REM
REM
REM
REM ./C.cell (11c1c37f851c82e70ff6c80c92926a4b)
REM AIRSS Version 0.9.1 bugfix July 2018 build 013d7b7c2542+ Fri, 06 Jul 2018 19:26:36 +0100
REM compiler GCC version 9.3.0
REM options -cpp -mtune=generic -march=x86-64 -g -O0
REM seed -662397027 -500942733 1854582935 -1985544558 1740165061 1271804538 1886726447 -287815260 435047508 218826354 562341185 1778649875 -103847352 1841952464 -1498904426 -1076403836 104430750 -1320068162 331362064 -1884611685 -1066216490 1884512227 -1829074253 -355463334 887681585 1238976619 -2068674877 1075398208 -975175289 1889306281 -1018312840 1450753198 1765731484
REM
CELL 1.54180   50.00000   50.00000   50.00000   90.00000   90.00000   90.00000
LATT -1
SFAC C  
C      1  0.4780910000000  0.5510560000000  0.5500550000000 1.0
C      1  0.4767860000000  0.4806730000000  0.4588690000000 1.0
C      1  0.5500730000000  0.4965820000000  0.4635630000000 1.0
C      1  0.4412320000000  0.4829010000000  0.4902510000000 1.0
C      1  0.5055310000000  0.5597250000000  0.5510000000000 1.0
C      1  0.5247290000000  0.4290740000000  0.5257060000000 1.0
C      1  0.5450970000000  0.4460410000000  0.5182970000000 1.0
C      1  0.5051790000000  0.4564930000000  0.4981860000000 1.0
C      1  0.5213700000000  0.4379930000000  0.4813110000000 1.0
C      1  0.5217410000000  0.4783550000000  0.5440470000000 1.0
C      1  0.4618300000000  0.5024600000000  0.4479080000000 1.0
C      1  0.5526420000000  0.5171010000000  0.5283900000000 1.0
C      1  0.5449040000000  0.4518780000000  0.4902720000000 1.0
C      1  0.5350250000000  0.5210740000000  0.4597510000000 1.0
C      1  0.5237110000000  0.4671110000000  0.4408460000000 1.0
C      1  0.4603870000000  0.4980000000000  0.5378320000000 1.0
C      1  0.5290200000000  0.5465390000000  0.4715790000000 1.0
C      1  0.5127690000000  0.4842630000000  0.4939850000000 1.0
C      1  0.4985020000000  0.4606990000000  0.4488820000000 1.0
C      1  0.4778340000000  0.5155820000000  0.4956960000000 1.0
C      1  0.4662870000000  0.5285440000000  0.4512530000000 1.0
C      1  0.4632780000000  0.5401680000000  0.4795380000000 1.0
C      1  0.4918690000000  0.5046500000000  0.5641860000000 1.0
C      1  0.4976820000000  0.4381370000000  0.4658140000000 1.0
C      1  0.5555840000000  0.4916210000000  0.5160600000000 1.0
C      1  0.4731800000000  0.4413340000000  0.4845420000000 1.0
C      1  0.4975680000000  0.4416990000000  0.5237830000000 1.0
C      1  0.4342480000000  0.5425160000000  0.4833380000000 1.0
C      1  0.4193040000000  0.5218110000000  0.4811760000000 1.0
C      1  0.5446150000000  0.4821020000000  0.4887250000000 1.0
C      1  0.4855210000000  0.5610250000000  0.4806600000000 1.0
C      1  0.4778140000000  0.4811930000000  0.5534930000000 1.0
C      1  0.5282660000000  0.5553410000000  0.4992390000000 1.0
C      1  0.5035650000000  0.5556140000000  0.4596180000000 1.0
C      1  0.4170720000000  0.4952620000000  0.4828850000000 1.0
C      1  0.4972300000000  0.4623280000000  0.5453150000000 1.0
C      1  0.4920300000000  0.5355530000000  0.4438790000000 1.0
C      1  0.4943280000000  0.4992470000000  0.4762720000000 1.0
C      1  0.5474100000000  0.4701170000000  0.5329590000000 1.0
C      1  0.5009110000000  0.5658830000000  0.5040030000000 1.0
C      1  0.4944690000000  0.5201190000000  0.5199180000000 1.0
C      1  0.5194870000000  0.5009290000000  0.5615110000000 1.0
C      1  0.4753410000000  0.4289520000000  0.5092370000000 1.0
C      1  0.4775630000000  0.5226590000000  0.5462850000000 1.0
C      1  0.4901560000000  0.5678870000000  0.5295660000000 1.0
C      1  0.5371920000000  0.5206020000000  0.5535870000000 1.0
C      1  0.5092490000000  0.4960690000000  0.5193890000000 1.0
C      1  0.5077710000000  0.5145550000000  0.4531870000000 1.0
C      1  0.4572320000000  0.4976490000000  0.5095480000000 1.0
C      1  0.5288190000000  0.5464980000000  0.5462590000000 1.0
C      1  0.5428580000000  0.5440800000000  0.5207700000000 1.0
C      1  0.4585170000000  0.4644760000000  0.4756560000000 1.0
C      1  0.5471310000000  0.4777800000000  0.4419230000000 1.0
END
