TITL C-38726-3204-9 0.00450853542614348 125000 -262.935097838667 0 0 40 (C1) n - 1
REM
REM in /rds/project/t2_vol4/rds-t2-cs072/BORA/CARBON/from-Arr/AIRSS/Generating-Clusters/GAP-ML-2020/Only-C1/SD-CG/HFTN-CG
REM
REM
REM
REM
REM
REM ./C.cell (11c1c37f851c82e70ff6c80c92926a4b)
REM AIRSS Version 0.9.1 bugfix July 2018 build 013d7b7c2542+ Fri, 06 Jul 2018 19:26:36 +0100
REM compiler GCC version 9.3.0
REM options -cpp -mtune=generic -march=x86-64 -g -O0
REM seed 740092600 -590389045 1360995886 -1659377060 8144577 -1619697242 1323901057 -987734577 -1660596544 2107915244 -104661313 -934574364 -2119324656 1482478989 -1263929488 2054058529 1197818051 2020530452 21018134 150544426 1253493884 -1474025309 1531036476 1607220305 44358606 -1235092343 1759278655 -1293460330 -811600336 420972443 1990931551 -1870369500 -2106530451
REM
CELL 1.54180   50.00000   50.00000   50.00000   90.00000   90.00000   90.00000
LATT -1
SFAC C  
C      1  0.5053700000000  0.4847030000000  0.5570940000000 1.0
C      1  0.4748650000000  0.4525320000000  0.4733040000000 1.0
C      1  0.5353710000000  0.4776850000000  0.4902720000000 1.0
C      1  0.5216670000000  0.5445290000000  0.4751980000000 1.0
C      1  0.4879920000000  0.4935950000000  0.5009100000000 1.0
C      1  0.4516960000000  0.5332090000000  0.4801610000000 1.0
C      1  0.4959040000000  0.5054060000000  0.4738270000000 1.0
C      1  0.4442320000000  0.5088520000000  0.4922310000000 1.0
C      1  0.5526820000000  0.5259060000000  0.5030610000000 1.0
C      1  0.5084380000000  0.5084700000000  0.5158500000000 1.0
C      1  0.4789870000000  0.4769160000000  0.5479990000000 1.0
C      1  0.5261300000000  0.4975170000000  0.4694760000000 1.0
C      1  0.4584650000000  0.4382110000000  0.4917240000000 1.0
C      1  0.4939980000000  0.4428890000000  0.4533410000000 1.0
C      1  0.4824590000000  0.5236610000000  0.5515130000000 1.0
C      1  0.4914980000000  0.5550370000000  0.5091260000000 1.0
C      1  0.5670750000000  0.5062310000000  0.5147270000000 1.0
C      1  0.5024270000000  0.4650120000000  0.4370190000000 1.0
C      1  0.5241650000000  0.5434180000000  0.5417840000000 1.0
C      1  0.5143100000000  0.4350790000000  0.4720140000000 1.0
C      1  0.5268170000000  0.4950030000000  0.5380400000000 1.0
C      1  0.4905680000000  0.4648220000000  0.4962580000000 1.0
C      1  0.4516140000000  0.5101440000000  0.4641690000000 1.0
C      1  0.4760780000000  0.5465420000000  0.4855270000000 1.0
C      1  0.4943460000000  0.5460490000000  0.5369010000000 1.0
C      1  0.4958370000000  0.5344710000000  0.4688590000000 1.0
C      1  0.5190660000000  0.5574890000000  0.4997960000000 1.0
C      1  0.5288360000000  0.5197250000000  0.5557550000000 1.0
C      1  0.5179580000000  0.4554080000000  0.4894650000000 1.0
C      1  0.4703710000000  0.4472820000000  0.5148890000000 1.0
C      1  0.5033800000000  0.5118680000000  0.5674610000000 1.0
C      1  0.4620640000000  0.5008930000000  0.5120490000000 1.0
C      1  0.4663600000000  0.5025440000000  0.5401310000000 1.0
C      1  0.5381490000000  0.5467140000000  0.5176520000000 1.0
C      1  0.4760470000000  0.5019940000000  0.4531700000000 1.0
C      1  0.5404020000000  0.5234620000000  0.4763910000000 1.0
C      1  0.4685650000000  0.4522470000000  0.5413440000000 1.0
C      1  0.5459780000000  0.4882430000000  0.5156450000000 1.0
C      1  0.4903680000000  0.4893340000000  0.4330600000000 1.0
C      1  0.5194650000000  0.4869080000000  0.4428080000000 1.0
END
