TITL C-38731-3233-1 -46.4182993896553 125000 -733.202314421585 0 0 103 (C1) n - 1
REM
REM in /rds/project/t2_vol4/rds-t2-cs072/BORA/CARBON/from-Arr/AIRSS/Generating-Clusters/GAP-ML-2020/Only-C1/SD-CG/HFTN-CG
REM
REM
REM
REM
REM
REM ./C.cell (11c1c37f851c82e70ff6c80c92926a4b)
REM AIRSS Version 0.9.1 bugfix July 2018 build 013d7b7c2542+ Fri, 06 Jul 2018 19:26:36 +0100
REM compiler GCC version 9.3.0
REM options -cpp -mtune=generic -march=x86-64 -g -O0
REM seed 513748821 -1501138418 -913402701 1666206747 1414918188 1736756124 1187069785 180342268 -616929115 1040668764 1271407421 1540720839 -183469022 1140076236 -756241381 -875197988 -308066708 21475242 -1641497107 1483513764 -948939996 -2007993108 -1217526265 1674916822 -759845500 1246340115 1850608663 13918617 -98386340 -466537926 29602965 -1475500775 -940507311
REM
CELL 1.54180   50.00000   50.00000   50.00000   90.00000   90.00000   90.00000
LATT -1
SFAC C  
C      1  0.4718930000000  0.4885510000000  0.5245990000000 1.0
C      1  0.4172450000000  0.5084410000000  0.4357450000000 1.0
C      1  0.4417230000000  0.5519020000000  0.4538990000000 1.0
C      1  0.4211310000000  0.4620110000000  0.4630900000000 1.0
C      1  0.4501820000000  0.5211600000000  0.5665680000000 1.0
C      1  0.5889520000000  0.5182810000000  0.5004960000000 1.0
C      1  0.4199990000000  0.5374100000000  0.5215940000000 1.0
C      1  0.5265680000000  0.4935690000000  0.4634780000000 1.0
C      1  0.5754480000000  0.5260740000000  0.4577110000000 1.0
C      1  0.4564140000000  0.5607070000000  0.5039080000000 1.0
C      1  0.4209920000000  0.4929220000000  0.5123750000000 1.0
C      1  0.4395620000000  0.5257000000000  0.4386240000000 1.0
C      1  0.5199620000000  0.5373220000000  0.5775280000000 1.0
C      1  0.5464030000000  0.4271980000000  0.4878930000000 1.0
C      1  0.4677290000000  0.5320560000000  0.4267910000000 1.0
C      1  0.4880130000000  0.5094880000000  0.4280990000000 1.0
C      1  0.4807700000000  0.5548750000000  0.5621450000000 1.0
C      1  0.5227710000000  0.4507500000000  0.4266120000000 1.0
C      1  0.5636590000000  0.5629050000000  0.4912840000000 1.0
C      1  0.5878420000000  0.4921140000000  0.4880830000000 1.0
C      1  0.5639150000000  0.5084580000000  0.5599880000000 1.0
C      1  0.5516350000000  0.5562520000000  0.5423280000000 1.0
C      1  0.4583290000000  0.4664360000000  0.5675750000000 1.0
C      1  0.5821260000000  0.4981630000000  0.4606670000000 1.0
C      1  0.4796280000000  0.4170080000000  0.4784430000000 1.0
C      1  0.4808490000000  0.4636750000000  0.4468560000000 1.0
C      1  0.5645410000000  0.4540630000000  0.4546810000000 1.0
C      1  0.4856750000000  0.4713600000000  0.4744590000000 1.0
C      1  0.5425550000000  0.4396810000000  0.4438080000000 1.0
C      1  0.4548700000000  0.4246430000000  0.4704130000000 1.0
C      1  0.5790410000000  0.5393110000000  0.4830420000000 1.0
C      1  0.5166860000000  0.4825810000000  0.5107980000000 1.0
C      1  0.5329510000000  0.4712270000000  0.5663040000000 1.0
C      1  0.5152960000000  0.5034950000000  0.4154770000000 1.0
C      1  0.5020510000000  0.4226480000000  0.4600740000000 1.0
C      1  0.5011680000000  0.5834140000000  0.5245070000000 1.0
C      1  0.5539280000000  0.5337120000000  0.4397440000000 1.0
C      1  0.5449340000000  0.5719940000000  0.4710960000000 1.0
C      1  0.4207740000000  0.4911610000000  0.4608590000000 1.0
C      1  0.5388520000000  0.5203340000000  0.4989400000000 1.0
C      1  0.4321610000000  0.4772880000000  0.5636170000000 1.0
C      1  0.5270190000000  0.5569920000000  0.5573620000000 1.0
C      1  0.4342520000000  0.4419640000000  0.4783580000000 1.0
C      1  0.4672730000000  0.4435070000000  0.5518780000000 1.0
C      1  0.5334410000000  0.4949270000000  0.4906660000000 1.0
C      1  0.4990690000000  0.4630210000000  0.4984300000000 1.0
C      1  0.5109620000000  0.5413660000000  0.4628860000000 1.0
C      1  0.4413580000000  0.5541810000000  0.5293520000000 1.0
C      1  0.5686020000000  0.5337970000000  0.5466730000000 1.0
C      1  0.4618010000000  0.4366800000000  0.5220180000000 1.0
C      1  0.4916160000000  0.5342150000000  0.5780830000000 1.0
C      1  0.5370480000000  0.5524020000000  0.4522990000000 1.0
C      1  0.4129910000000  0.5069430000000  0.4870730000000 1.0
C      1  0.4617790000000  0.5116150000000  0.4839900000000 1.0
C      1  0.5174620000000  0.5371510000000  0.4958850000000 1.0
C      1  0.5230590000000  0.5855260000000  0.4838360000000 1.0
C      1  0.4804460000000  0.5806950000000  0.5034700000000 1.0
C      1  0.5273080000000  0.5858310000000  0.5118940000000 1.0
C      1  0.4782270000000  0.4613960000000  0.5177340000000 1.0
C      1  0.4963520000000  0.5279240000000  0.5120820000000 1.0
C      1  0.5711470000000  0.4791000000000  0.4428480000000 1.0
C      1  0.5023260000000  0.5696340000000  0.5495690000000 1.0
C      1  0.4159170000000  0.5125530000000  0.5341440000000 1.0
C      1  0.4977410000000  0.4425380000000  0.4389620000000 1.0
C      1  0.5857980000000  0.5192810000000  0.5277820000000 1.0
C      1  0.4684360000000  0.5556960000000  0.4432360000000 1.0
C      1  0.4910200000000  0.5634950000000  0.4575250000000 1.0
C      1  0.5113920000000  0.4251180000000  0.5458160000000 1.0
C      1  0.4182760000000  0.5343400000000  0.4929920000000 1.0
C      1  0.4953040000000  0.5824860000000  0.4783320000000 1.0
C      1  0.4161580000000  0.4604830000000  0.5482830000000 1.0
C      1  0.4981310000000  0.5020380000000  0.5251320000000 1.0
C      1  0.4353310000000  0.5539900000000  0.4810400000000 1.0
C      1  0.4809640000000  0.4162250000000  0.5079450000000 1.0
C      1  0.4193240000000  0.4634810000000  0.5215540000000 1.0
C      1  0.5037750000000  0.5125730000000  0.4569620000000 1.0
C      1  0.5303970000000  0.4234590000000  0.4642450000000 1.0
C      1  0.4943770000000  0.4410540000000  0.5602780000000 1.0
C      1  0.5500350000000  0.4566690000000  0.5466250000000 1.0
C      1  0.5789430000000  0.4940210000000  0.5403710000000 1.0
C      1  0.5424340000000  0.5149430000000  0.4218640000000 1.0
C      1  0.4717540000000  0.5344470000000  0.4988530000000 1.0
C      1  0.4693530000000  0.4871610000000  0.4353120000000 1.0
C      1  0.5433900000000  0.4963320000000  0.5745610000000 1.0
C      1  0.4286650000000  0.5053260000000  0.5587990000000 1.0
C      1  0.4521180000000  0.4992200000000  0.5085840000000 1.0
C      1  0.5539200000000  0.4884540000000  0.4222690000000 1.0
C      1  0.5328360000000  0.5167890000000  0.5890840000000 1.0
C      1  0.4546310000000  0.5467420000000  0.5537520000000 1.0
C      1  0.5344900000000  0.4197620000000  0.5122600000000 1.0
C      1  0.5278850000000  0.4767630000000  0.4162840000000 1.0
C      1  0.5381680000000  0.4326140000000  0.5383260000000 1.0
C      1  0.5668540000000  0.4478030000000  0.4827580000000 1.0
C      1  0.4858880000000  0.4998790000000  0.4761310000000 1.0
C      1  0.5712910000000  0.4696330000000  0.5297320000000 1.0
C      1  0.5061960000000  0.4139390000000  0.5195490000000 1.0
C      1  0.4356550000000  0.4432700000000  0.5083470000000 1.0
C      1  0.4806970000000  0.4820630000000  0.5773070000000 1.0
C      1  0.5514290000000  0.5704370000000  0.5171970000000 1.0
C      1  0.5048680000000  0.4655970000000  0.5716430000000 1.0
C      1  0.4747330000000  0.5108860000000  0.5788190000000 1.0
C      1  0.4503010000000  0.5020970000000  0.4555430000000 1.0
C      1  0.5783640000000  0.4671290000000  0.5012180000000 1.0
END
