TITL C-38727-3278-1 -0.0516194393489118 125000 -209.609661512068 0 0 32 (C1) n - 1
REM
REM in /rds/project/t2_vol4/rds-t2-cs072/BORA/CARBON/from-Arr/AIRSS/Generating-Clusters/GAP-ML-2020/Only-C1/SD-CG/HFTN-CG
REM
REM
REM
REM
REM
REM ./C.cell (11c1c37f851c82e70ff6c80c92926a4b)
REM AIRSS Version 0.9.1 bugfix July 2018 build 013d7b7c2542+ Fri, 06 Jul 2018 19:26:36 +0100
REM compiler GCC version 9.3.0
REM options -cpp -mtune=generic -march=x86-64 -g -O0
REM seed 737538699 -1921324761 -1348193024 -256300680 801987356 1183230896 1987108954 -93234169 -1059464989 -747976992 2143530142 883428014 -1384663616 1686750222 322046362 653054675 1417022755 -109730938 838492722 -634322990 -1501837843 -770187781 2028084720 1148758155 76159550 1584910000 -951093582 -1733308202 -1229621279 1035303940 -1966936883 199222445 -325973954
REM
CELL 1.54180   50.00000   50.00000   50.00000   90.00000   90.00000   90.00000
LATT -1
SFAC C  
C      1  0.4674900000000  0.4754140000000  0.4699580000000 1.0
C      1  0.4744550000000  0.5171890000000  0.5541370000000 1.0
C      1  0.5199620000000  0.5392050000000  0.4737430000000 1.0
C      1  0.4713920000000  0.5261490000000  0.4601290000000 1.0
C      1  0.4709830000000  0.5302510000000  0.5272950000000 1.0
C      1  0.4933200000000  0.5325900000000  0.5667070000000 1.0
C      1  0.5356000000000  0.4684840000000  0.5025750000000 1.0
C      1  0.5046020000000  0.4367850000000  0.5191800000000 1.0
C      1  0.4795160000000  0.5095710000000  0.4380780000000 1.0
C      1  0.5346670000000  0.5310420000000  0.5389790000000 1.0
C      1  0.5198430000000  0.4893210000000  0.5147600000000 1.0
C      1  0.5537230000000  0.4825240000000  0.4852560000000 1.0
C      1  0.4930810000000  0.5480050000000  0.5229640000000 1.0
C      1  0.4816880000000  0.4515830000000  0.5190720000000 1.0
C      1  0.4682650000000  0.5108830000000  0.5073240000000 1.0
C      1  0.4565540000000  0.5111950000000  0.4810230000000 1.0
C      1  0.4841640000000  0.4668830000000  0.4923890000000 1.0
C      1  0.5077690000000  0.4582080000000  0.4789500000000 1.0
C      1  0.4897230000000  0.4893180000000  0.5135870000000 1.0
C      1  0.5137700000000  0.4761110000000  0.4575350000000 1.0
C      1  0.4778470000000  0.4743270000000  0.5373620000000 1.0
C      1  0.5034850000000  0.5500470000000  0.4953530000000 1.0
C      1  0.5382820000000  0.4911770000000  0.4615890000000 1.0
C      1  0.5404350000000  0.5193190000000  0.4716740000000 1.0
C      1  0.5378730000000  0.5116070000000  0.5204580000000 1.0
C      1  0.4435370000000  0.4883200000000  0.4717600000000 1.0
C      1  0.4879460000000  0.4860400000000  0.4498520000000 1.0
C      1  0.5231410000000  0.4442460000000  0.4979830000000 1.0
C      1  0.5548530000000  0.5103230000000  0.4952650000000 1.0
C      1  0.4684950000000  0.4893560000000  0.5572710000000 1.0
C      1  0.5109660000000  0.5427700000000  0.5467090000000 1.0
C      1  0.4925740000000  0.5417560000000  0.4710830000000 1.0
END
