TITL C-38746-3401-3 -0.0678167626566643 125000 -199.211945611792 0 0 30 (C1) n - 1
REM
REM in /rds/project/t2_vol4/rds-t2-cs072/BORA/CARBON/from-Arr/AIRSS/Generating-Clusters/GAP-ML-2020/Only-C1/SD-CG/HFTN-CG
REM
REM
REM
REM
REM
REM ./C.cell (11c1c37f851c82e70ff6c80c92926a4b)
REM AIRSS Version 0.9.1 bugfix July 2018 build 013d7b7c2542+ Fri, 06 Jul 2018 19:26:36 +0100
REM compiler GCC version 9.3.0
REM options -cpp -mtune=generic -march=x86-64 -g -O0
REM seed -2100688442 -570272946 361086683 96324267 -1129271619 -552593298 1946564185 2020034039 48560831 179447187 -460224584 -251005506 305770733 1069220412 1684287782 -321430562 -262413912 35373626 -385305155 -1143063592 897508862 1500330000 -2009703842 1471833684 1972467139 -1749599267 -396540881 1006038429 -1918128873 -340246877 598141885 -2133970758 1281320888
REM
CELL 1.54180   50.00000   50.00000   50.00000   90.00000   90.00000   90.00000
LATT -1
SFAC C  
C      1  0.5384570000000  0.5321240000000  0.5180590000000 1.0
C      1  0.5189700000000  0.4609050000000  0.4751090000000 1.0
C      1  0.5598320000000  0.5007430000000  0.4956790000000 1.0
C      1  0.4953000000000  0.4641350000000  0.4907680000000 1.0
C      1  0.4969870000000  0.5010580000000  0.4612950000000 1.0
C      1  0.4988980000000  0.4686970000000  0.5416350000000 1.0
C      1  0.4796630000000  0.4832110000000  0.4775640000000 1.0
C      1  0.5354620000000  0.4809000000000  0.4322920000000 1.0
C      1  0.5455500000000  0.4579470000000  0.4840310000000 1.0
C      1  0.4579380000000  0.5284290000000  0.4626160000000 1.0
C      1  0.4532410000000  0.5070540000000  0.5523970000000 1.0
C      1  0.5187750000000  0.5177600000000  0.4781290000000 1.0
C      1  0.4587940000000  0.4928990000000  0.4934120000000 1.0
C      1  0.4450230000000  0.4844690000000  0.5393450000000 1.0
C      1  0.5459610000000  0.5111880000000  0.4723100000000 1.0
C      1  0.4854910000000  0.4627200000000  0.5183730000000 1.0
C      1  0.4592170000000  0.4778410000000  0.5174670000000 1.0
C      1  0.4526520000000  0.5209880000000  0.4896940000000 1.0
C      1  0.4770720000000  0.5201090000000  0.4481500000000 1.0
C      1  0.4626660000000  0.5363110000000  0.5110760000000 1.0
C      1  0.4977490000000  0.4843460000000  0.5620170000000 1.0
C      1  0.5632240000000  0.4723280000000  0.4956160000000 1.0
C      1  0.4562390000000  0.5324450000000  0.5385690000000 1.0
C      1  0.5148190000000  0.5316370000000  0.5029930000000 1.0
C      1  0.4858550000000  0.5318700000000  0.5456640000000 1.0
C      1  0.5593020000000  0.5175230000000  0.5184360000000 1.0
C      1  0.4915530000000  0.5372090000000  0.5174310000000 1.0
C      1  0.5475080000000  0.4980270000000  0.4475820000000 1.0
C      1  0.5157150000000  0.4782760000000  0.4520670000000 1.0
C      1  0.4820870000000  0.5068490000000  0.5602240000000 1.0
END
