TITL C-38583-3996-31 -51.8243632036121 125000 -1233.20771511105 0 0 174 (C1) n - 1
REM
REM in /rds/project/t2_vol4/rds-t2-cs072/BORA/CARBON/from-Arr/AIRSS/Generating-Clusters/GAP-ML-2020/Only-C1/SD-CG/HFTN-CG/C160-200
REM
REM
REM
REM
REM
REM ./C.cell (f2ad243b7eb7c0cd63fb1bbaf7e03044)
REM AIRSS Version 0.9.1 bugfix July 2018 build 013d7b7c2542+ Fri, 06 Jul 2018 19:26:36 +0100
REM compiler GCC version 9.3.0
REM options -cpp -mtune=generic -march=x86-64 -g -O0
REM seed 2084837937 776286950 -1862881902 -157881494 1204673183 762740288 -315903412 -832165839 1105278079 -359359976 1299721456 1865690724 -1359223583 -1955184487 678111119 1109798036 -857202858 534683665 1583695203 -256914627 1032157755 1543211815 -1216697984 114955544 -1675737362 -1880524701 -1829615927 -1590946543 112428103 973189599 382461559 -1825801891 -115241990
REM
CELL 1.54180   50.00000   50.00000   50.00000   90.00000   90.00000   90.00000
LATT -1
SFAC C  
C      1  0.4418050000000  0.5281280000000  0.5931340000000 1.0
C      1  0.4078370000000  0.5160050000000  0.4354370000000 1.0
C      1  0.5871970000000  0.5223480000000  0.5613850000000 1.0
C      1  0.4356860000000  0.5754250000000  0.5360600000000 1.0
C      1  0.4730610000000  0.4081180000000  0.5459130000000 1.0
C      1  0.5197260000000  0.6020980000000  0.4647050000000 1.0
C      1  0.4669250000000  0.4925680000000  0.6109980000000 1.0
C      1  0.5577550000000  0.5039720000000  0.5222700000000 1.0
C      1  0.4675820000000  0.5368220000000  0.6027040000000 1.0
C      1  0.5665240000000  0.4439350000000  0.5621810000000 1.0
C      1  0.5388710000000  0.5725620000000  0.5564730000000 1.0
C      1  0.4128740000000  0.5285230000000  0.4619810000000 1.0
C      1  0.5107200000000  0.5606210000000  0.4746260000000 1.0
C      1  0.5668110000000  0.5180860000000  0.4431070000000 1.0
C      1  0.5368860000000  0.4338080000000  0.4289120000000 1.0
C      1  0.4062230000000  0.4667690000000  0.5163650000000 1.0
C      1  0.5387450000000  0.4737330000000  0.4059200000000 1.0
C      1  0.5810750000000  0.5436940000000  0.4452500000000 1.0
C      1  0.5712470000000  0.5806260000000  0.5195510000000 1.0
C      1  0.5319780000000  0.4651700000000  0.5903760000000 1.0
C      1  0.5877570000000  0.4728030000000  0.4596600000000 1.0
C      1  0.4973110000000  0.3982900000000  0.5064810000000 1.0
C      1  0.4915900000000  0.5112510000000  0.4674570000000 1.0
C      1  0.4522420000000  0.4777680000000  0.4810710000000 1.0
C      1  0.4722010000000  0.4930880000000  0.4321700000000 1.0
C      1  0.4588690000000  0.4331790000000  0.5849350000000 1.0
C      1  0.5939340000000  0.4591130000000  0.4842720000000 1.0
C      1  0.4520730000000  0.4211190000000  0.5606390000000 1.0
C      1  0.5136650000000  0.5244950000000  0.5523220000000 1.0
C      1  0.6042850000000  0.4776550000000  0.5048520000000 1.0
C      1  0.4387110000000  0.4221040000000  0.4889440000000 1.0
C      1  0.4435460000000  0.5582900000000  0.4373300000000 1.0
C      1  0.5377950000000  0.5671830000000  0.4856330000000 1.0
C      1  0.4473910000000  0.5898580000000  0.4942290000000 1.0
C      1  0.5220620000000  0.4896160000000  0.3894890000000 1.0
C      1  0.4800170000000  0.5598950000000  0.5944650000000 1.0
C      1  0.5977390000000  0.5455190000000  0.4687490000000 1.0
C      1  0.4049840000000  0.5389500000000  0.5265600000000 1.0
C      1  0.4418920000000  0.5656500000000  0.5621490000000 1.0
C      1  0.4582440000000  0.4679560000000  0.5289470000000 1.0
C      1  0.4492650000000  0.5030300000000  0.4167450000000 1.0
C      1  0.5084800000000  0.5136220000000  0.4918870000000 1.0
C      1  0.5610870000000  0.4360550000000  0.4438210000000 1.0
C      1  0.5204620000000  0.4232180000000  0.5659660000000 1.0
C      1  0.4975970000000  0.4756850000000  0.5602770000000 1.0
C      1  0.5712170000000  0.4881810000000  0.5737040000000 1.0
C      1  0.6017270000000  0.5182550000000  0.4782620000000 1.0
C      1  0.4210320000000  0.4388220000000  0.4723820000000 1.0
C      1  0.5536810000000  0.5187860000000  0.3952730000000 1.0
C      1  0.5689100000000  0.5688670000000  0.4468670000000 1.0
C      1  0.5645660000000  0.4777060000000  0.4164840000000 1.0
C      1  0.5364930000000  0.5235340000000  0.4536870000000 1.0
C      1  0.5835260000000  0.5496130000000  0.5563900000000 1.0
C      1  0.4311600000000  0.4288200000000  0.5414600000000 1.0
C      1  0.5081380000000  0.4916520000000  0.5110090000000 1.0
C      1  0.5401530000000  0.4730730000000  0.4795010000000 1.0
C      1  0.5569260000000  0.4123300000000  0.5313900000000 1.0
C      1  0.5069420000000  0.5703330000000  0.3954730000000 1.0
C      1  0.5126340000000  0.5143530000000  0.6054060000000 1.0
C      1  0.4748270000000  0.5338750000000  0.4598090000000 1.0
C      1  0.5253040000000  0.5943860000000  0.4379630000000 1.0
C      1  0.4681440000000  0.5812990000000  0.4771070000000 1.0
C      1  0.4236470000000  0.4935920000000  0.4266970000000 1.0
C      1  0.4785130000000  0.5264620000000  0.3871620000000 1.0
C      1  0.4769130000000  0.4493840000000  0.5122060000000 1.0
C      1  0.4632440000000  0.4291090000000  0.4414600000000 1.0
C      1  0.4885750000000  0.5852290000000  0.5579160000000 1.0
C      1  0.6136140000000  0.5025270000000  0.4967630000000 1.0
C      1  0.4223920000000  0.4845980000000  0.4821200000000 1.0
C      1  0.4610960000000  0.4452140000000  0.4873390000000 1.0
C      1  0.5532890000000  0.5387040000000  0.5912710000000 1.0
C      1  0.4101460000000  0.5285590000000  0.5529270000000 1.0
C      1  0.4587190000000  0.4017440000000  0.4505650000000 1.0
C      1  0.5154260000000  0.5034010000000  0.4484020000000 1.0
C      1  0.5468210000000  0.5879460000000  0.5323310000000 1.0
C      1  0.4621250000000  0.5394200000000  0.5059930000000 1.0
C      1  0.5019490000000  0.5950220000000  0.5085740000000 1.0
C      1  0.5853560000000  0.5723800000000  0.4720940000000 1.0
C      1  0.5279700000000  0.4532010000000  0.4982720000000 1.0
C      1  0.5386130000000  0.5195810000000  0.4827710000000 1.0
C      1  0.4686970000000  0.5112380000000  0.5436480000000 1.0
C      1  0.5598540000000  0.4273550000000  0.4707310000000 1.0
C      1  0.4572030000000  0.5300970000000  0.4073640000000 1.0
C      1  0.5838590000000  0.4481950000000  0.5391620000000 1.0
C      1  0.4731400000000  0.4834350000000  0.5496760000000 1.0
C      1  0.4542230000000  0.3985940000000  0.4768970000000 1.0
C      1  0.4965430000000  0.5880690000000  0.4797720000000 1.0
C      1  0.4845940000000  0.5148820000000  0.6103380000000 1.0
C      1  0.4566780000000  0.5140950000000  0.5175290000000 1.0
C      1  0.5376160000000  0.4587030000000  0.5246100000000 1.0
C      1  0.5478100000000  0.4235390000000  0.5564770000000 1.0
C      1  0.5586610000000  0.4638800000000  0.5804220000000 1.0
C      1  0.4563870000000  0.3953250000000  0.5233490000000 1.0
C      1  0.4350250000000  0.4130800000000  0.5178110000000 1.0
C      1  0.4846050000000  0.4355310000000  0.4196920000000 1.0
C      1  0.5954640000000  0.4730830000000  0.5322650000000 1.0
C      1  0.5785030000000  0.5549810000000  0.5292710000000 1.0
C      1  0.5423320000000  0.5964300000000  0.4857020000000 1.0
C      1  0.5797040000000  0.4350290000000  0.4907060000000 1.0
C      1  0.4548630000000  0.5904350000000  0.5215440000000 1.0
C      1  0.4600270000000  0.5496250000000  0.4780670000000 1.0
C      1  0.5211550000000  0.4751070000000  0.4554550000000 1.0
C      1  0.4812810000000  0.4388090000000  0.4652020000000 1.0
C      1  0.5418150000000  0.5706110000000  0.4391200000000 1.0
C      1  0.5673800000000  0.5060870000000  0.4153570000000 1.0
C      1  0.5287130000000  0.4608150000000  0.4287820000000 1.0
C      1  0.4998700000000  0.5396650000000  0.4254150000000 1.0
C      1  0.4740880000000  0.4872190000000  0.4624000000000 1.0
C      1  0.4859540000000  0.4232640000000  0.5227480000000 1.0
C      1  0.4848900000000  0.4439340000000  0.5953670000000 1.0
C      1  0.4323840000000  0.4654370000000  0.4280340000000 1.0
C      1  0.4244070000000  0.4576020000000  0.5391940000000 1.0
C      1  0.5380680000000  0.3954880000000  0.5196480000000 1.0
C      1  0.4081880000000  0.5360550000000  0.4158660000000 1.0
C      1  0.4833840000000  0.5847920000000  0.5283640000000 1.0
C      1  0.5089110000000  0.5614660000000  0.5930850000000 1.0
C      1  0.5197410000000  0.4962910000000  0.5583390000000 1.0
C      1  0.5243990000000  0.4008140000000  0.4948360000000 1.0
C      1  0.5812880000000  0.4959060000000  0.5458100000000 1.0
C      1  0.5560550000000  0.4968690000000  0.4891190000000 1.0
C      1  0.3987160000000  0.5164470000000  0.5091020000000 1.0
C      1  0.5028070000000  0.4035640000000  0.5538990000000 1.0
C      1  0.5139150000000  0.5784920000000  0.5706780000000 1.0
C      1  0.5712100000000  0.5872970000000  0.4916040000000 1.0
C      1  0.5764200000000  0.4290520000000  0.5188430000000 1.0
C      1  0.4583240000000  0.4728280000000  0.4141280000000 1.0
C      1  0.5237170000000  0.4926440000000  0.5897790000000 1.0
C      1  0.3972130000000  0.4926250000000  0.5244930000000 1.0
C      1  0.5072110000000  0.5423330000000  0.4999350000000 1.0
C      1  0.4323550000000  0.5474490000000  0.4131460000000 1.0
C      1  0.5755870000000  0.4606810000000  0.4372690000000 1.0
C      1  0.5274120000000  0.5185580000000  0.3886950000000 1.0
C      1  0.5098030000000  0.4482760000000  0.5786040000000 1.0
C      1  0.4416260000000  0.5000230000000  0.5994600000000 1.0
C      1  0.5068560000000  0.4232890000000  0.4599870000000 1.0
C      1  0.4885450000000  0.5311700000000  0.5437670000000 1.0
C      1  0.5536960000000  0.5351390000000  0.5249560000000 1.0
C      1  0.5216830000000  0.5487910000000  0.4465460000000 1.0
C      1  0.5295120000000  0.5968220000000  0.5115750000000 1.0
C      1  0.5706840000000  0.5153520000000  0.5840450000000 1.0
C      1  0.5098110000000  0.4258260000000  0.4317830000000 1.0
C      1  0.4283140000000  0.5418000000000  0.5716720000000 1.0
C      1  0.4700440000000  0.4644470000000  0.6096740000000 1.0
C      1  0.5262710000000  0.5394130000000  0.6007930000000 1.0
C      1  0.5388190000000  0.5426600000000  0.5008960000000 1.0
C      1  0.4948050000000  0.4789980000000  0.3853760000000 1.0
C      1  0.4858530000000  0.5497640000000  0.5202340000000 1.0
C      1  0.4085360000000  0.5107980000000  0.4833370000000 1.0
C      1  0.5305160000000  0.4245790000000  0.4797750000000 1.0
C      1  0.4709570000000  0.5443970000000  0.4327870000000 1.0
C      1  0.4939850000000  0.4660020000000  0.4676070000000 1.0
C      1  0.5046790000000  0.5408320000000  0.3950330000000 1.0
C      1  0.4702950000000  0.3890890000000  0.4989130000000 1.0
C      1  0.5354390000000  0.5417610000000  0.5466490000000 1.0
C      1  0.5324690000000  0.4870150000000  0.5309990000000 1.0
C      1  0.4172010000000  0.5631210000000  0.5170440000000 1.0
C      1  0.4672630000000  0.5741440000000  0.5732140000000 1.0
C      1  0.4817330000000  0.5018350000000  0.3764440000000 1.0
C      1  0.4449510000000  0.4550250000000  0.5971410000000 1.0
C      1  0.5610550000000  0.5586980000000  0.5724760000000 1.0
C      1  0.5795410000000  0.5009570000000  0.4661490000000 1.0
C      1  0.4526440000000  0.4885880000000  0.5076320000000 1.0
C      1  0.4047320000000  0.4994520000000  0.5510660000000 1.0
C      1  0.4798830000000  0.4583530000000  0.4018030000000 1.0
C      1  0.4999460000000  0.4652260000000  0.4986480000000 1.0
C      1  0.4251060000000  0.5715190000000  0.4903040000000 1.0
C      1  0.5130060000000  0.5872630000000  0.4135960000000 1.0
C      1  0.4164740000000  0.4760830000000  0.5621600000000 1.0
C      1  0.4293270000000  0.4766290000000  0.5874940000000 1.0
C      1  0.5128830000000  0.3897610000000  0.5314260000000 1.0
C      1  0.4311790000000  0.5530340000000  0.4654600000000 1.0
C      1  0.4092910000000  0.4600460000000  0.4887500000000 1.0
C      1  0.4975070000000  0.5084890000000  0.4268520000000 1.0
C      1  0.4339190000000  0.4433750000000  0.4457040000000 1.0
END
