TITL C-38583-3996-19 759.787446910822 125000 -1342.24876716028 0 0 190 (C1) n - 1
REM
REM in /rds/project/t2_vol4/rds-t2-cs072/BORA/CARBON/from-Arr/AIRSS/Generating-Clusters/GAP-ML-2020/Only-C1/SD-CG/HFTN-CG/C160-200
REM
REM
REM
REM
REM
REM ./C.cell (f2ad243b7eb7c0cd63fb1bbaf7e03044)
REM AIRSS Version 0.9.1 bugfix July 2018 build 013d7b7c2542+ Fri, 06 Jul 2018 19:26:36 +0100
REM compiler GCC version 9.3.0
REM options -cpp -mtune=generic -march=x86-64 -g -O0
REM seed 41749675 1172521590 2117783574 -263686393 -1498628233 1446099260 -330620807 -767328868 -475626704 1059755035 898399638 -1458014613 -860232547 50869783 -109495775 -1686787184 2031618079 -1869274373 -182496370 1216530564 1885950071 2022672608 1605416564 998432893 -2005876849 -1616525930 -1563563983 904328148 -1781310674 -990455165 -618740725 -898770062 -580536413
REM
CELL 1.54180   50.00000   50.00000   50.00000   90.00000   90.00000   90.00000
LATT -1
SFAC C  
C      1  0.5146910000000  0.4379720000000  0.5900370000000 1.0
C      1  0.4500170000000  0.5986950000000  0.5407230000000 1.0
C      1  0.4419690000000  0.5060320000000  0.5775280000000 1.0
C      1  0.5563720000000  0.5169080000000  0.4917330000000 1.0
C      1  0.4789910000000  0.5270980000000  0.3983960000000 1.0
C      1  0.4466520000000  0.4165260000000  0.4330040000000 1.0
C      1  0.5351610000000  0.4614020000000  0.5572480000000 1.0
C      1  0.4236760000000  0.4364480000000  0.5543760000000 1.0
C      1  0.5141450000000  0.4603470000000  0.4831310000000 1.0
C      1  0.5343190000000  0.4762680000000  0.3962030000000 1.0
C      1  0.5789790000000  0.5788300000000  0.5252220000000 1.0
C      1  0.4282370000000  0.5865090000000  0.5271520000000 1.0
C      1  0.5430160000000  0.5958980000000  0.5697730000000 1.0
C      1  0.5349730000000  0.4724910000000  0.5030280000000 1.0
C      1  0.5069920000000  0.4472010000000  0.4145070000000 1.0
C      1  0.5348690000000  0.3892370000000  0.4845080000000 1.0
C      1  0.4965650000000  0.6154390000000  0.4882200000000 1.0
C      1  0.6047930000000  0.4641960000000  0.4480310000000 1.0
C      1  0.4786360000000  0.4895770000000  0.6040430000000 1.0
C      1  0.5795660000000  0.5688240000000  0.5517660000000 1.0
C      1  0.6005830000000  0.4579800000000  0.4733930000000 1.0
C      1  0.5058730000000  0.3852500000000  0.4850210000000 1.0
C      1  0.4086150000000  0.5250170000000  0.5300110000000 1.0
C      1  0.4280160000000  0.5024500000000  0.3967890000000 1.0
C      1  0.4131940000000  0.4262110000000  0.5086890000000 1.0
C      1  0.4895670000000  0.5812810000000  0.4543060000000 1.0
C      1  0.5967960000000  0.5097910000000  0.4417550000000 1.0
C      1  0.4502430000000  0.5975840000000  0.4823020000000 1.0
C      1  0.5287710000000  0.5543610000000  0.4987230000000 1.0
C      1  0.4672120000000  0.4443350000000  0.4857040000000 1.0
C      1  0.4681810000000  0.6142760000000  0.5247080000000 1.0
C      1  0.4848530000000  0.4303900000000  0.5843480000000 1.0
C      1  0.4676630000000  0.5657350000000  0.4168380000000 1.0
C      1  0.5663500000000  0.5462740000000  0.4221080000000 1.0
C      1  0.5831180000000  0.5124560000000  0.5661860000000 1.0
C      1  0.4363870000000  0.5376770000000  0.5719370000000 1.0
C      1  0.5741570000000  0.4302500000000  0.5109860000000 1.0
C      1  0.4325940000000  0.5271900000000  0.4085220000000 1.0
C      1  0.5237760000000  0.5665510000000  0.4240800000000 1.0
C      1  0.4123220000000  0.4365690000000  0.4591390000000 1.0
C      1  0.5304900000000  0.5022990000000  0.5054240000000 1.0
C      1  0.5958130000000  0.5044310000000  0.5192730000000 1.0
C      1  0.3971060000000  0.4493880000000  0.5182350000000 1.0
C      1  0.5664800000000  0.4968660000000  0.5837410000000 1.0
C      1  0.5620700000000  0.4720350000000  0.5702340000000 1.0
C      1  0.4865050000000  0.5219470000000  0.4257320000000 1.0
C      1  0.4707260000000  0.5944460000000  0.5611320000000 1.0
C      1  0.5198550000000  0.5921050000000  0.5841140000000 1.0
C      1  0.4969840000000  0.4244430000000  0.4283990000000 1.0
C      1  0.5198810000000  0.5514040000000  0.5418390000000 1.0
C      1  0.5247850000000  0.4746340000000  0.4599900000000 1.0
C      1  0.4280220000000  0.5103520000000  0.4783720000000 1.0
C      1  0.5610830000000  0.4704050000000  0.4861340000000 1.0
C      1  0.5785900000000  0.4941620000000  0.4964630000000 1.0
C      1  0.4714920000000  0.4818530000000  0.3949710000000 1.0
C      1  0.5115220000000  0.5442850000000  0.5930780000000 1.0
C      1  0.4764880000000  0.5304010000000  0.4530120000000 1.0
C      1  0.5426660000000  0.6067770000000  0.4954170000000 1.0
C      1  0.5014790000000  0.4970650000000  0.4248440000000 1.0
C      1  0.4701920000000  0.4909910000000  0.5288920000000 1.0
C      1  0.5350580000000  0.5975780000000  0.4674920000000 1.0
C      1  0.5258040000000  0.4877740000000  0.6095710000000 1.0
C      1  0.4501850000000  0.3976130000000  0.5295830000000 1.0
C      1  0.4807400000000  0.5577140000000  0.5022370000000 1.0
C      1  0.5159410000000  0.6159540000000  0.5341230000000 1.0
C      1  0.5820720000000  0.4690340000000  0.5502460000000 1.0
C      1  0.4665080000000  0.4992690000000  0.5593630000000 1.0
C      1  0.5116710000000  0.4988530000000  0.4523360000000 1.0
C      1  0.4614390000000  0.4509900000000  0.5115730000000 1.0
C      1  0.5713850000000  0.4507970000000  0.5307650000000 1.0
C      1  0.3905720000000  0.4768920000000  0.5091640000000 1.0
C      1  0.4713550000000  0.4206360000000  0.4703580000000 1.0
C      1  0.3959780000000  0.4602090000000  0.4617100000000 1.0
C      1  0.5404080000000  0.5359090000000  0.5977340000000 1.0
C      1  0.4021030000000  0.5498860000000  0.5144640000000 1.0
C      1  0.5021730000000  0.5730400000000  0.5902450000000 1.0
C      1  0.6119740000000  0.5086110000000  0.4677480000000 1.0
C      1  0.5083380000000  0.4792810000000  0.5582920000000 1.0
C      1  0.5636900000000  0.5767290000000  0.5738460000000 1.0
C      1  0.4097010000000  0.5666170000000  0.5369570000000 1.0
C      1  0.5925180000000  0.5378330000000  0.4318100000000 1.0
C      1  0.4260690000000  0.5277340000000  0.4363810000000 1.0
C      1  0.4678770000000  0.4810030000000  0.4653970000000 1.0
C      1  0.4564140000000  0.5527170000000  0.5896210000000 1.0
C      1  0.4800750000000  0.5172320000000  0.5168830000000 1.0
C      1  0.4399440000000  0.4602120000000  0.4227830000000 1.0
C      1  0.5751380000000  0.4424240000000  0.4824900000000 1.0
C      1  0.4464370000000  0.5417440000000  0.4523270000000 1.0
C      1  0.5398790000000  0.4106580000000  0.5485220000000 1.0
C      1  0.4282760000000  0.4166600000000  0.5325830000000 1.0
C      1  0.5846930000000  0.5565020000000  0.5060970000000 1.0
C      1  0.4384080000000  0.5377940000000  0.4812140000000 1.0
C      1  0.6032630000000  0.5307780000000  0.5120130000000 1.0
C      1  0.5343600000000  0.4537410000000  0.4131090000000 1.0
C      1  0.4567330000000  0.5075610000000  0.6026880000000 1.0
C      1  0.6131980000000  0.5312410000000  0.4852510000000 1.0
C      1  0.4930220000000  0.4730830000000  0.5342490000000 1.0
C      1  0.4782760000000  0.4061140000000  0.5726130000000 1.0
C      1  0.5416210000000  0.5448700000000  0.4096930000000 1.0
C      1  0.4950160000000  0.5295320000000  0.6112630000000 1.0
C      1  0.5154820000000  0.4996230000000  0.3970980000000 1.0
C      1  0.5586880000000  0.4099300000000  0.5246790000000 1.0
C      1  0.4538690000000  0.5405210000000  0.5484590000000 1.0
C      1  0.4126730000000  0.5095700000000  0.4538850000000 1.0
C      1  0.4673800000000  0.4530960000000  0.5797900000000 1.0
C      1  0.4732750000000  0.3935280000000  0.5486860000000 1.0
C      1  0.5139070000000  0.5392730000000  0.4793280000000 1.0
C      1  0.4896200000000  0.5531170000000  0.4714960000000 1.0
C      1  0.5718310000000  0.5391330000000  0.5584590000000 1.0
C      1  0.4712340000000  0.4312260000000  0.4416530000000 1.0
C      1  0.4398860000000  0.4547830000000  0.5716250000000 1.0
C      1  0.4428200000000  0.4797690000000  0.4014300000000 1.0
C      1  0.5579980000000  0.5987860000000  0.5198240000000 1.0
C      1  0.5140910000000  0.4082200000000  0.4479830000000 1.0
C      1  0.5569610000000  0.4537790000000  0.4338840000000 1.0
C      1  0.5392900000000  0.5177470000000  0.3994260000000 1.0
C      1  0.5407510000000  0.5771650000000  0.4469280000000 1.0
C      1  0.5438850000000  0.4597730000000  0.5291410000000 1.0
C      1  0.5933490000000  0.4949760000000  0.5456530000000 1.0
C      1  0.5558260000000  0.5431760000000  0.5069980000000 1.0
C      1  0.4741430000000  0.5748520000000  0.5822480000000 1.0
C      1  0.4992410000000  0.4110860000000  0.4734060000000 1.0
C      1  0.3942690000000  0.4881170000000  0.4556540000000 1.0
C      1  0.5357420000000  0.5103690000000  0.5335710000000 1.0
C      1  0.4053600000000  0.4802010000000  0.5527550000000 1.0
C      1  0.4116840000000  0.5449010000000  0.5554080000000 1.0
C      1  0.4574360000000  0.5439990000000  0.4012580000000 1.0
C      1  0.4854430000000  0.4644280000000  0.4809830000000 1.0
C      1  0.5412330000000  0.6061770000000  0.5427950000000 1.0
C      1  0.3980380000000  0.4967040000000  0.5300370000000 1.0
C      1  0.4958250000000  0.3825900000000  0.5327950000000 1.0
C      1  0.4952240000000  0.5724110000000  0.4258770000000 1.0
C      1  0.3871710000000  0.4776870000000  0.4814510000000 1.0
C      1  0.5752510000000  0.4744600000000  0.4147120000000 1.0
C      1  0.5135340000000  0.4322160000000  0.4915890000000 1.0
C      1  0.5605340000000  0.4294320000000  0.4563460000000 1.0
C      1  0.4654740000000  0.4620200000000  0.4376720000000 1.0
C      1  0.5257480000000  0.5243890000000  0.4582400000000 1.0
C      1  0.5067970000000  0.6016950000000  0.4660330000000 1.0
C      1  0.4872020000000  0.5032770000000  0.3849340000000 1.0
C      1  0.5011420000000  0.5018640000000  0.6150780000000 1.0
C      1  0.5419070000000  0.3896660000000  0.5118660000000 1.0
C      1  0.5539020000000  0.5244960000000  0.4631570000000 1.0
C      1  0.5329440000000  0.4324570000000  0.5670940000000 1.0
C      1  0.5241640000000  0.3885890000000  0.5353310000000 1.0
C      1  0.4818450000000  0.4786030000000  0.5764440000000 1.0
C      1  0.4869490000000  0.4704680000000  0.4178380000000 1.0
C      1  0.4305510000000  0.5836910000000  0.4984370000000 1.0
C      1  0.4601190000000  0.5882910000000  0.4577040000000 1.0
C      1  0.4269450000000  0.4811880000000  0.5715160000000 1.0
C      1  0.5478960000000  0.5370640000000  0.5358880000000 1.0
C      1  0.4215720000000  0.4200190000000  0.4817190000000 1.0
C      1  0.5538760000000  0.4768900000000  0.4566470000000 1.0
C      1  0.5178160000000  0.5063560000000  0.5544220000000 1.0
C      1  0.5226050000000  0.4601690000000  0.6049160000000 1.0
C      1  0.4697220000000  0.6133370000000  0.4968770000000 1.0
C      1  0.4270250000000  0.4365790000000  0.4340960000000 1.0
C      1  0.4401660000000  0.5307310000000  0.5265270000000 1.0
C      1  0.5071460000000  0.5603340000000  0.5175940000000 1.0
C      1  0.4471430000000  0.4022210000000  0.4779000000000 1.0
C      1  0.5462610000000  0.5072610000000  0.6006850000000 1.0
C      1  0.4857990000000  0.4469480000000  0.5274700000000 1.0
C      1  0.6004380000000  0.5564810000000  0.4798280000000 1.0
C      1  0.5908770000000  0.5572420000000  0.4539840000000 1.0
C      1  0.4970450000000  0.3935160000000  0.4289500000000 1.0
C      1  0.4668810000000  0.5332210000000  0.6069570000000 1.0
C      1  0.4868440000000  0.3807320000000  0.5060020000000 1.0
C      1  0.4790920000000  0.5254650000000  0.5489420000000 1.0
C      1  0.5051950000000  0.4306290000000  0.5179470000000 1.0
C      1  0.4895610000000  0.6113040000000  0.5443350000000 1.0
C      1  0.5021030000000  0.5135910000000  0.4952740000000 1.0
C      1  0.5571360000000  0.4927040000000  0.4008950000000 1.0
C      1  0.4861040000000  0.5045720000000  0.4674710000000 1.0
C      1  0.4490060000000  0.3908830000000  0.4478280000000 1.0
C      1  0.5598250000000  0.5501180000000  0.5840120000000 1.0
C      1  0.6035470000000  0.4855640000000  0.4817430000000 1.0
C      1  0.4596620000000  0.5362720000000  0.5051140000000 1.0
C      1  0.5052640000000  0.5327110000000  0.5605540000000 1.0
C      1  0.4182130000000  0.5582120000000  0.4920210000000 1.0
C      1  0.4029250000000  0.4528950000000  0.5453150000000 1.0
C      1  0.5649760000000  0.5033300000000  0.4483340000000 1.0
C      1  0.5989560000000  0.4828210000000  0.4284010000000 1.0
C      1  0.5183000000000  0.6184610000000  0.5059150000000 1.0
C      1  0.4592430000000  0.3903850000000  0.5033650000000 1.0
C      1  0.4739070000000  0.3852600000000  0.4383950000000 1.0
C      1  0.4502180000000  0.4774880000000  0.5115600000000 1.0
C      1  0.4440220000000  0.4868440000000  0.4843860000000 1.0
C      1  0.5416670000000  0.4072740000000  0.4602250000000 1.0
C      1  0.4507500000000  0.5690940000000  0.4399910000000 1.0
C      1  0.5611510000000  0.5568720000000  0.4505990000000 1.0
END
