TITL C-38725-3311-1 26.6170924918182 125000 -426.221200289155 0 0 62 (C1) n - 1
REM
REM in /rds/project/t2_vol4/rds-t2-cs072/BORA/CARBON/from-Arr/AIRSS/Generating-Clusters/GAP-ML-2020/Only-C1/SD-CG/HFTN-CG
REM
REM
REM
REM
REM
REM ./C.cell (11c1c37f851c82e70ff6c80c92926a4b)
REM AIRSS Version 0.9.1 bugfix July 2018 build 013d7b7c2542+ Fri, 06 Jul 2018 19:26:36 +0100
REM compiler GCC version 9.3.0
REM options -cpp -mtune=generic -march=x86-64 -g -O0
REM seed 1684110144 1234641126 1496974983 -1264570057 -2038978870 1316782718 -1113125286 821346694 287908697 1557143231 2098070194 1890069304 -161421532 -709856847 -410081392 -475797953 1347702801 1467377835 -222403877 -401491661 -392644825 1399005951 -1792499187 136323096 -1257249683 -1502896045 -1086195605 -1878902491 1353063716 1440098237 -1224598280 951316276 -2076425884
REM
CELL 1.54180   50.00000   50.00000   50.00000   90.00000   90.00000   90.00000
LATT -1
SFAC C  
C      1  0.4873770000000  0.5303280000000  0.5615420000000 1.0
C      1  0.4475430000000  0.4912170000000  0.4496490000000 1.0
C      1  0.4956220000000  0.5120480000000  0.5133570000000 1.0
C      1  0.4925180000000  0.4948270000000  0.4229850000000 1.0
C      1  0.4801460000000  0.4683650000000  0.5664880000000 1.0
C      1  0.5147540000000  0.4457190000000  0.5463730000000 1.0
C      1  0.5653460000000  0.5004570000000  0.4631230000000 1.0
C      1  0.5426320000000  0.5435500000000  0.4642890000000 1.0
C      1  0.4896830000000  0.4934990000000  0.4706130000000 1.0
C      1  0.5498310000000  0.5187130000000  0.5346910000000 1.0
C      1  0.5176360000000  0.5010230000000  0.4725630000000 1.0
C      1  0.5142400000000  0.5534860000000  0.5309560000000 1.0
C      1  0.4929330000000  0.4436970000000  0.5244690000000 1.0
C      1  0.5311710000000  0.5190780000000  0.4329170000000 1.0
C      1  0.5641460000000  0.4742170000000  0.5013860000000 1.0
C      1  0.4774420000000  0.5085640000000  0.4925930000000 1.0
C      1  0.5204450000000  0.4780370000000  0.5127260000000 1.0
C      1  0.4324320000000  0.5148220000000  0.4951980000000 1.0
C      1  0.4440780000000  0.5429240000000  0.4894840000000 1.0
C      1  0.5463680000000  0.4927110000000  0.5454080000000 1.0
C      1  0.5408870000000  0.5457370000000  0.4916980000000 1.0
C      1  0.5136010000000  0.5199690000000  0.5641200000000 1.0
C      1  0.4778340000000  0.4686740000000  0.5355630000000 1.0
C      1  0.5227000000000  0.5046830000000  0.4996460000000 1.0
C      1  0.5548190000000  0.5218570000000  0.4496630000000 1.0
C      1  0.4650040000000  0.5121800000000  0.5624130000000 1.0
C      1  0.4928780000000  0.5577890000000  0.4862080000000 1.0
C      1  0.5557890000000  0.4744570000000  0.4549770000000 1.0
C      1  0.4672470000000  0.5565560000000  0.4995140000000 1.0
C      1  0.5195890000000  0.4936020000000  0.4258170000000 1.0
C      1  0.5300350000000  0.5351240000000  0.5461050000000 1.0
C      1  0.4519360000000  0.4724780000000  0.5207150000000 1.0
C      1  0.4449930000000  0.5166710000000  0.5411830000000 1.0
C      1  0.5488600000000  0.4701480000000  0.5264480000000 1.0
C      1  0.5193850000000  0.4919310000000  0.5584130000000 1.0
C      1  0.4539350000000  0.4485550000000  0.5031070000000 1.0
C      1  0.4697470000000  0.4292000000000  0.5175400000000 1.0
C      1  0.4653810000000  0.5565870000000  0.5278830000000 1.0
C      1  0.5079600000000  0.4556200000000  0.4986710000000 1.0
C      1  0.5311670000000  0.4705480000000  0.4398190000000 1.0
C      1  0.5150300000000  0.4536980000000  0.4567170000000 1.0
C      1  0.5169600000000  0.5569030000000  0.5026660000000 1.0
C      1  0.5294040000000  0.4461180000000  0.4798420000000 1.0
C      1  0.5397430000000  0.4451150000000  0.5370380000000 1.0
C      1  0.4468590000000  0.4647060000000  0.4552960000000 1.0
C      1  0.4616880000000  0.4536660000000  0.4748080000000 1.0
C      1  0.5510090000000  0.5210740000000  0.5057900000000 1.0
C      1  0.4469910000000  0.5350000000000  0.4620950000000 1.0
C      1  0.5189120000000  0.5421400000000  0.4472290000000 1.0
C      1  0.4883050000000  0.5522540000000  0.5433200000000 1.0
C      1  0.4666480000000  0.4887950000000  0.5775160000000 1.0
C      1  0.4392590000000  0.4983440000000  0.5188690000000 1.0
C      1  0.4713790000000  0.5325310000000  0.4497660000000 1.0
C      1  0.5677460000000  0.5008740000000  0.4919570000000 1.0
C      1  0.4941740000000  0.5469230000000  0.4590180000000 1.0
C      1  0.5541740000000  0.4593030000000  0.4794350000000 1.0
C      1  0.4343000000000  0.5097880000000  0.4664810000000 1.0
C      1  0.5090360000000  0.4650880000000  0.5669600000000 1.0
C      1  0.4747640000000  0.5032150000000  0.4430530000000 1.0
C      1  0.4999220000000  0.4884200000000  0.5314140000000 1.0
C      1  0.4427350000000  0.5434710000000  0.5366760000000 1.0
C      1  0.4908690000000  0.4629280000000  0.4737400000000 1.0
END
