TITL C-38613-971-6 -93.6930137981265 125000 -475.286714675881 0 0 70 (C1) n - 1
REM
REM in /rds/project/t2_vol4/rds-t2-cs072/BORA/CARBON/from-Arr/AIRSS/Generating-Clusters/GAP-ML-2020/Only-C1/SD-CG/HFTN-CG
REM
REM
REM
REM
REM
REM ./C.cell (11c1c37f851c82e70ff6c80c92926a4b)
REM AIRSS Version 0.9.1 bugfix July 2018 build 013d7b7c2542+ Fri, 06 Jul 2018 19:26:36 +0100
REM compiler GCC version 9.3.0
REM options -cpp -mtune=generic -march=x86-64 -g -O0
REM seed 380225105 1735032986 -1049737080 -508272043 663216585 -550211769 605102148 1550406710 246489595 -875605124 -2009331406 327060208 -546857728 -1846263416 -403584973 1181049041 -1557716970 -585003212 926239739 1449279142 -1646112145 -1959076593 -516624711 1462016204 731861505 -1453616203 1017718505 1905504653 -420509598 1743077174 -1035122005 -1768100171 1739386472
REM
CELL 1.54180   50.00000   50.00000   50.00000   90.00000   90.00000   90.00000
LATT -1
SFAC C  
C      1  0.5144170000000  0.5052210000000  0.4706220000000 1.0
C      1  0.4548370000000  0.5554120000000  0.5362870000000 1.0
C      1  0.4688070000000  0.4745160000000  0.5074830000000 1.0
C      1  0.5270790000000  0.4611180000000  0.4527510000000 1.0
C      1  0.4513270000000  0.4293970000000  0.5303720000000 1.0
C      1  0.5324770000000  0.5021540000000  0.4320120000000 1.0
C      1  0.4303440000000  0.5172490000000  0.4813700000000 1.0
C      1  0.5188980000000  0.4890120000000  0.5566160000000 1.0
C      1  0.4980940000000  0.5356520000000  0.5487810000000 1.0
C      1  0.5484440000000  0.4417960000000  0.5401510000000 1.0
C      1  0.4625210000000  0.5086580000000  0.5458730000000 1.0
C      1  0.4803320000000  0.5245330000000  0.5043690000000 1.0
C      1  0.5292410000000  0.5060630000000  0.5139440000000 1.0
C      1  0.4915140000000  0.4289300000000  0.4939810000000 1.0
C      1  0.4394950000000  0.5039080000000  0.5274180000000 1.0
C      1  0.5674100000000  0.5316670000000  0.5286970000000 1.0
C      1  0.5623400000000  0.4913440000000  0.4703510000000 1.0
C      1  0.5630720000000  0.5070260000000  0.5415740000000 1.0
C      1  0.4656630000000  0.4313410000000  0.5081380000000 1.0
C      1  0.5088250000000  0.4924000000000  0.5276250000000 1.0
C      1  0.4556650000000  0.5447520000000  0.5087420000000 1.0
C      1  0.4339800000000  0.4690230000000  0.4885930000000 1.0
C      1  0.4584710000000  0.4526780000000  0.4877930000000 1.0
C      1  0.5137110000000  0.5675270000000  0.4974190000000 1.0
C      1  0.4587590000000  0.5229260000000  0.4446350000000 1.0
C      1  0.5243000000000  0.5534870000000  0.4509540000000 1.0
C      1  0.5519610000000  0.5421860000000  0.4868150000000 1.0
C      1  0.5238780000000  0.4753060000000  0.4288720000000 1.0
C      1  0.4963860000000  0.5553150000000  0.4484410000000 1.0
C      1  0.4487800000000  0.4667940000000  0.5621520000000 1.0
C      1  0.5234260000000  0.4314200000000  0.5325730000000 1.0
C      1  0.4946140000000  0.4805100000000  0.4350970000000 1.0
C      1  0.4882730000000  0.5135870000000  0.5304930000000 1.0
C      1  0.5135960000000  0.4442840000000  0.5069080000000 1.0
C      1  0.4854950000000  0.5309980000000  0.4385940000000 1.0
C      1  0.5471900000000  0.5402320000000  0.4577210000000 1.0
C      1  0.4809760000000  0.4431010000000  0.4709910000000 1.0
C      1  0.5140800000000  0.4624580000000  0.5704120000000 1.0
C      1  0.5264550000000  0.5369590000000  0.5516470000000 1.0
C      1  0.4947500000000  0.4813160000000  0.5717250000000 1.0
C      1  0.4377170000000  0.4764230000000  0.5182360000000 1.0
C      1  0.4510910000000  0.4948870000000  0.4467760000000 1.0
C      1  0.5251560000000  0.5212710000000  0.4909730000000 1.0
C      1  0.4802730000000  0.5699520000000  0.4691880000000 1.0
C      1  0.4676430000000  0.4860720000000  0.5637640000000 1.0
C      1  0.5723340000000  0.5275880000000  0.5008770000000 1.0
C      1  0.4979130000000  0.5852350000000  0.4848420000000 1.0
C      1  0.4452250000000  0.5361410000000  0.4654190000000 1.0
C      1  0.4734150000000  0.4993770000000  0.4898360000000 1.0
C      1  0.5397170000000  0.5617300000000  0.5068130000000 1.0
C      1  0.4342970000000  0.4911620000000  0.4710190000000 1.0
C      1  0.4699720000000  0.5415100000000  0.5532720000000 1.0
C      1  0.5739850000000  0.4993840000000  0.4954570000000 1.0
C      1  0.4348900000000  0.5234680000000  0.5082200000000 1.0
C      1  0.4570390000000  0.5568100000000  0.4799340000000 1.0
C      1  0.5535600000000  0.5110260000000  0.4498140000000 1.0
C      1  0.5695770000000  0.4856120000000  0.5212050000000 1.0
C      1  0.4983540000000  0.4634070000000  0.4604020000000 1.0
C      1  0.5447400000000  0.5497260000000  0.5322920000000 1.0
C      1  0.4979990000000  0.4853210000000  0.4813730000000 1.0
C      1  0.5571370000000  0.4596890000000  0.5197090000000 1.0
C      1  0.4676670000000  0.4773340000000  0.4341020000000 1.0
C      1  0.5413540000000  0.4538160000000  0.4964410000000 1.0
C      1  0.4419590000000  0.4550440000000  0.5388000000000 1.0
C      1  0.5027410000000  0.5381550000000  0.4923900000000 1.0
C      1  0.5389030000000  0.5109120000000  0.5582750000000 1.0
C      1  0.5471840000000  0.4663520000000  0.4716570000000 1.0
C      1  0.5243460000000  0.4395670000000  0.5589330000000 1.0
C      1  0.4992440000000  0.4715800000000  0.5095820000000 1.0
C      1  0.5046850000000  0.5091950000000  0.4414080000000 1.0
END
