TITL C-38617-989-9 -0.10166688783528 125000 -977.668227484754 0 0 139 (C1) n - 1
REM
REM in /rds/project/t2_vol4/rds-t2-cs072/BORA/CARBON/from-Arr/AIRSS/Generating-Clusters/GAP-ML-2020/Only-C1/SD-CG/HFTN-CG
REM
REM
REM
REM
REM
REM ./C.cell (11c1c37f851c82e70ff6c80c92926a4b)
REM AIRSS Version 0.9.1 bugfix July 2018 build 013d7b7c2542+ Fri, 06 Jul 2018 19:26:36 +0100
REM compiler GCC version 9.3.0
REM options -cpp -mtune=generic -march=x86-64 -g -O0
REM seed -2135727469 -1634832593 -714113599 -170642790 -387649920 811088884 306826307 -509015921 -1571724284 -527317172 1538811906 1679913521 -446570239 941709524 -299516988 -480252923 1730308940 -719903029 -204298674 -796714321 1267621820 363590767 147886436 -142164399 -1788251007 34308410 72689919 -1482276836 458180446 -1835442284 -1031027993 -142256148 -852143082
REM
CELL 1.54180   50.00000   50.00000   50.00000   90.00000   90.00000   90.00000
LATT -1
SFAC C  
C      1  0.5995600000000  0.4675890000000  0.4815630000000 1.0
C      1  0.4698330000000  0.4622140000000  0.5865270000000 1.0
C      1  0.4697240000000  0.5014540000000  0.4889500000000 1.0
C      1  0.5365120000000  0.5442570000000  0.4175850000000 1.0
C      1  0.4752720000000  0.5815000000000  0.4458280000000 1.0
C      1  0.4352920000000  0.4913240000000  0.5063620000000 1.0
C      1  0.5444560000000  0.4738820000000  0.4395520000000 1.0
C      1  0.5721840000000  0.5040440000000  0.5334450000000 1.0
C      1  0.5708610000000  0.4528700000000  0.5486940000000 1.0
C      1  0.5186830000000  0.5693000000000  0.5692130000000 1.0
C      1  0.5232420000000  0.4627190000000  0.5254360000000 1.0
C      1  0.4532650000000  0.4762170000000  0.4879800000000 1.0
C      1  0.5895740000000  0.5116840000000  0.5110790000000 1.0
C      1  0.4833040000000  0.4114190000000  0.4737630000000 1.0
C      1  0.4618030000000  0.5384110000000  0.5250320000000 1.0
C      1  0.5178720000000  0.4738410000000  0.4227710000000 1.0
C      1  0.4691070000000  0.5170400000000  0.4652750000000 1.0
C      1  0.4602850000000  0.4034310000000  0.4882850000000 1.0
C      1  0.4705730000000  0.5737930000000  0.5535660000000 1.0
C      1  0.4745720000000  0.4637000000000  0.5299710000000 1.0
C      1  0.4483150000000  0.5637870000000  0.4832010000000 1.0
C      1  0.5037670000000  0.5832140000000  0.4452450000000 1.0
C      1  0.4839810000000  0.4022430000000  0.5272110000000 1.0
C      1  0.5319050000000  0.5182230000000  0.4034930000000 1.0
C      1  0.5907460000000  0.5635320000000  0.5058800000000 1.0
C      1  0.4475350000000  0.4573060000000  0.5703380000000 1.0
C      1  0.5000080000000  0.4528170000000  0.5374290000000 1.0
C      1  0.5866610000000  0.4635320000000  0.4563650000000 1.0
C      1  0.4485880000000  0.4383000000000  0.4588200000000 1.0
C      1  0.5109380000000  0.4062910000000  0.5142540000000 1.0
C      1  0.4854000000000  0.5264840000000  0.4064200000000 1.0
C      1  0.5601970000000  0.4524950000000  0.4561010000000 1.0
C      1  0.5047650000000  0.5976180000000  0.5337120000000 1.0
C      1  0.4222830000000  0.4337770000000  0.5011060000000 1.0
C      1  0.4395900000000  0.4224220000000  0.4809990000000 1.0
C      1  0.4844810000000  0.5999950000000  0.4868490000000 1.0
C      1  0.4941980000000  0.4819260000000  0.4406520000000 1.0
C      1  0.4466450000000  0.4873040000000  0.4356480000000 1.0
C      1  0.4080730000000  0.4939030000000  0.4926240000000 1.0
C      1  0.5596920000000  0.5179300000000  0.5775130000000 1.0
C      1  0.4043360000000  0.5407980000000  0.4726440000000 1.0
C      1  0.5651100000000  0.5367670000000  0.4202060000000 1.0
C      1  0.4968300000000  0.5476340000000  0.4911760000000 1.0
C      1  0.5193650000000  0.5574510000000  0.4382540000000 1.0
C      1  0.5385050000000  0.5401810000000  0.5360960000000 1.0
C      1  0.5755430000000  0.4433800000000  0.5222920000000 1.0
C      1  0.5362040000000  0.5685430000000  0.5465140000000 1.0
C      1  0.4710200000000  0.4902900000000  0.5924230000000 1.0
C      1  0.4013240000000  0.5305810000000  0.5200350000000 1.0
C      1  0.4569080000000  0.5084780000000  0.5169790000000 1.0
C      1  0.5075550000000  0.5307800000000  0.5361060000000 1.0
C      1  0.4714260000000  0.4812230000000  0.4191570000000 1.0
C      1  0.5413250000000  0.4675240000000  0.5821120000000 1.0
C      1  0.4987350000000  0.4964930000000  0.4929860000000 1.0
C      1  0.5757590000000  0.5373510000000  0.4978600000000 1.0
C      1  0.4919460000000  0.5323820000000  0.5622140000000 1.0
C      1  0.5659890000000  0.4868230000000  0.4223370000000 1.0
C      1  0.5892200000000  0.5092090000000  0.4497490000000 1.0
C      1  0.5554880000000  0.4272840000000  0.5098270000000 1.0
C      1  0.5034100000000  0.5251900000000  0.5866900000000 1.0
C      1  0.5482860000000  0.5378370000000  0.5931660000000 1.0
C      1  0.4443810000000  0.5618540000000  0.5146770000000 1.0
C      1  0.4196770000000  0.5508370000000  0.5298160000000 1.0
C      1  0.4266930000000  0.4421880000000  0.5294320000000 1.0
C      1  0.4755160000000  0.4931740000000  0.5336640000000 1.0
C      1  0.4217010000000  0.5345060000000  0.5545420000000 1.0
C      1  0.4320180000000  0.4819270000000  0.5701810000000 1.0
C      1  0.5454900000000  0.5318770000000  0.5075810000000 1.0
C      1  0.4650930000000  0.3890620000000  0.5111770000000 1.0
C      1  0.4657090000000  0.5441030000000  0.5569240000000 1.0
C      1  0.5240020000000  0.5370970000000  0.4843400000000 1.0
C      1  0.5822860000000  0.5364140000000  0.4420520000000 1.0
C      1  0.5478620000000  0.5012770000000  0.5136030000000 1.0
C      1  0.4766670000000  0.4199640000000  0.5484210000000 1.0
C      1  0.6007280000000  0.4872330000000  0.5016030000000 1.0
C      1  0.4633800000000  0.5888860000000  0.4718750000000 1.0
C      1  0.5216610000000  0.4191820000000  0.4427140000000 1.0
C      1  0.5455780000000  0.4831380000000  0.4904090000000 1.0
C      1  0.4695450000000  0.5540980000000  0.4421990000000 1.0
C      1  0.5414000000000  0.4951020000000  0.4644400000000 1.0
C      1  0.5480700000000  0.5904190000000  0.5039220000000 1.0
C      1  0.4274550000000  0.5520130000000  0.4633510000000 1.0
C      1  0.4044820000000  0.4522690000000  0.4894290000000 1.0
C      1  0.5230600000000  0.5466400000000  0.5878790000000 1.0
C      1  0.5381390000000  0.5567000000000  0.4658600000000 1.0
C      1  0.5659230000000  0.5413650000000  0.4675310000000 1.0
C      1  0.5291280000000  0.4173880000000  0.4687040000000 1.0
C      1  0.4123320000000  0.4716570000000  0.4707380000000 1.0
C      1  0.4080380000000  0.4641420000000  0.5332560000000 1.0
C      1  0.5101750000000  0.5948820000000  0.4703960000000 1.0
C      1  0.4609750000000  0.5837010000000  0.5284030000000 1.0
C      1  0.5595100000000  0.5246480000000  0.5502290000000 1.0
C      1  0.5936040000000  0.4600040000000  0.5076050000000 1.0
C      1  0.4735620000000  0.4592630000000  0.5011560000000 1.0
C      1  0.4527440000000  0.4420050000000  0.5454790000000 1.0
C      1  0.5897610000000  0.4843840000000  0.4372440000000 1.0
C      1  0.5141210000000  0.4721400000000  0.5899860000000 1.0
C      1  0.5351020000000  0.5843920000000  0.4788980000000 1.0
C      1  0.5756710000000  0.5841250000000  0.5061990000000 1.0
C      1  0.5274460000000  0.4596800000000  0.4957000000000 1.0
C      1  0.4931290000000  0.5380880000000  0.4316130000000 1.0
C      1  0.4901890000000  0.5442530000000  0.5174710000000 1.0
C      1  0.4992710000000  0.4287510000000  0.4313580000000 1.0
C      1  0.4992990000000  0.4659930000000  0.4875990000000 1.0
C      1  0.5027890000000  0.4489480000000  0.4119610000000 1.0
C      1  0.4782700000000  0.4334470000000  0.4544890000000 1.0
C      1  0.5008120000000  0.4332450000000  0.5599810000000 1.0
C      1  0.4987960000000  0.4975770000000  0.5938860000000 1.0
C      1  0.4965170000000  0.5842110000000  0.5587650000000 1.0
C      1  0.4482370000000  0.5142870000000  0.4437260000000 1.0
C      1  0.3960390000000  0.4713870000000  0.5086720000000 1.0
C      1  0.4438940000000  0.5301630000000  0.5713630000000 1.0
C      1  0.5087460000000  0.4078590000000  0.4858050000000 1.0
C      1  0.4724590000000  0.5456440000000  0.4730940000000 1.0
C      1  0.4420480000000  0.5420700000000  0.4411270000000 1.0
C      1  0.5319870000000  0.5904560000000  0.5285190000000 1.0
C      1  0.4956300000000  0.4514080000000  0.5828230000000 1.0
C      1  0.5459440000000  0.4374270000000  0.4810050000000 1.0
C      1  0.4113830000000  0.4862300000000  0.5514860000000 1.0
C      1  0.5347290000000  0.4156400000000  0.5271790000000 1.0
C      1  0.5023730000000  0.5032360000000  0.5251830000000 1.0
C      1  0.4051640000000  0.5134870000000  0.5441530000000 1.0
C      1  0.5485460000000  0.4446460000000  0.5649540000000 1.0
C      1  0.4819790000000  0.5990390000000  0.5155640000000 1.0
C      1  0.4391360000000  0.4681160000000  0.4579460000000 1.0
C      1  0.4793490000000  0.4590390000000  0.4034830000000 1.0
C      1  0.4950890000000  0.5114370000000  0.4508110000000 1.0
C      1  0.5162290000000  0.5103900000000  0.4714540000000 1.0
C      1  0.5265000000000  0.4898840000000  0.5308440000000 1.0
C      1  0.5139640000000  0.4965540000000  0.4032990000000 1.0
C      1  0.5754530000000  0.4809420000000  0.5534550000000 1.0
C      1  0.4476080000000  0.5033600000000  0.5816550000000 1.0
C      1  0.5597100000000  0.5105920000000  0.4085040000000 1.0
C      1  0.3976880000000  0.5225050000000  0.4920990000000 1.0
C      1  0.4916430000000  0.4605100000000  0.4604920000000 1.0
C      1  0.4855670000000  0.5003590000000  0.4011830000000 1.0
C      1  0.5652400000000  0.5117150000000  0.4665860000000 1.0
C      1  0.5613320000000  0.4882470000000  0.5765110000000 1.0
C      1  0.5305530000000  0.4251350000000  0.5547240000000 1.0
END
