TITL C-38617-989-8 -0.0507022019486866 125000 -876.528030450842 0 0 126 (C1) n - 1
REM
REM in /rds/project/t2_vol4/rds-t2-cs072/BORA/CARBON/from-Arr/AIRSS/Generating-Clusters/GAP-ML-2020/Only-C1/SD-CG/HFTN-CG
REM
REM
REM
REM
REM
REM ./C.cell (11c1c37f851c82e70ff6c80c92926a4b)
REM AIRSS Version 0.9.1 bugfix July 2018 build 013d7b7c2542+ Fri, 06 Jul 2018 19:26:36 +0100
REM compiler GCC version 9.3.0
REM options -cpp -mtune=generic -march=x86-64 -g -O0
REM seed 1991545234 -1318654434 763606487 1197790735 1423740112 -362046056 1914667703 -1070734182 -108784635 230010334 1063650914 -404007345 616429475 -1515462053 659116147 1918852623 -1217796108 -403338420 1393124173 1551610226 1943531011 987956408 -1047301481 1872889646 1663141464 1584027912 1749934524 781069107 -2124331272 -225219261 368399065 -1982668170 758679381
REM
CELL 1.54180   50.00000   50.00000   50.00000   90.00000   90.00000   90.00000
LATT -1
SFAC C  
C      1  0.5532960000000  0.5004020000000  0.5831500000000 1.0
C      1  0.5249890000000  0.5123070000000  0.5493110000000 1.0
C      1  0.4653400000000  0.5824120000000  0.4688090000000 1.0
C      1  0.4193390000000  0.4717380000000  0.5503740000000 1.0
C      1  0.5693290000000  0.4616000000000  0.4490870000000 1.0
C      1  0.5733210000000  0.4472140000000  0.5205540000000 1.0
C      1  0.4788720000000  0.4626960000000  0.4437520000000 1.0
C      1  0.5540460000000  0.5131120000000  0.5392290000000 1.0
C      1  0.5196170000000  0.4492470000000  0.5291520000000 1.0
C      1  0.4876550000000  0.4632720000000  0.4721640000000 1.0
C      1  0.5116470000000  0.5764810000000  0.5450670000000 1.0
C      1  0.5505440000000  0.4868070000000  0.5252980000000 1.0
C      1  0.4264260000000  0.4706910000000  0.4985320000000 1.0
C      1  0.5896670000000  0.4872660000000  0.4992700000000 1.0
C      1  0.4561310000000  0.4768660000000  0.5106780000000 1.0
C      1  0.5294640000000  0.5187340000000  0.4057000000000 1.0
C      1  0.4626010000000  0.5231130000000  0.5038450000000 1.0
C      1  0.5039580000000  0.4438830000000  0.4850830000000 1.0
C      1  0.4580360000000  0.4420630000000  0.5479980000000 1.0
C      1  0.5220840000000  0.5427740000000  0.5740920000000 1.0
C      1  0.4505450000000  0.4653790000000  0.4408370000000 1.0
C      1  0.5582880000000  0.4385020000000  0.5426590000000 1.0
C      1  0.4288700000000  0.4456960000000  0.4827500000000 1.0
C      1  0.5718010000000  0.4715750000000  0.4781370000000 1.0
C      1  0.5280410000000  0.4858550000000  0.5038940000000 1.0
C      1  0.5156200000000  0.4799190000000  0.5537860000000 1.0
C      1  0.5251130000000  0.4794430000000  0.4464600000000 1.0
C      1  0.5240670000000  0.5859830000000  0.4587250000000 1.0
C      1  0.4474640000000  0.5624620000000  0.4778870000000 1.0
C      1  0.4341270000000  0.4340840000000  0.5281540000000 1.0
C      1  0.5824930000000  0.4745960000000  0.5246920000000 1.0
C      1  0.4161220000000  0.5646320000000  0.5468580000000 1.0
C      1  0.5108500000000  0.5976320000000  0.4810530000000 1.0
C      1  0.4137580000000  0.5004100000000  0.5517550000000 1.0
C      1  0.4794270000000  0.4071730000000  0.5067010000000 1.0
C      1  0.4429730000000  0.4428500000000  0.4576920000000 1.0
C      1  0.4492450000000  0.5373830000000  0.5649110000000 1.0
C      1  0.5642580000000  0.5377680000000  0.5263060000000 1.0
C      1  0.4929200000000  0.5202220000000  0.4639040000000 1.0
C      1  0.4182440000000  0.4576250000000  0.5263000000000 1.0
C      1  0.5246120000000  0.6019620000000  0.5055000000000 1.0
C      1  0.4206340000000  0.4955150000000  0.4811860000000 1.0
C      1  0.4495410000000  0.5508010000000  0.5055370000000 1.0
C      1  0.4423740000000  0.5106380000000  0.5534370000000 1.0
C      1  0.3957500000000  0.5195490000000  0.5461180000000 1.0
C      1  0.4336240000000  0.5429800000000  0.4625840000000 1.0
C      1  0.4975600000000  0.4688300000000  0.5321340000000 1.0
C      1  0.5752400000000  0.5402470000000  0.5001270000000 1.0
C      1  0.4361670000000  0.4251640000000  0.5008640000000 1.0
C      1  0.5101830000000  0.4625990000000  0.4259370000000 1.0
C      1  0.4451170000000  0.5397960000000  0.4358740000000 1.0
C      1  0.5088960000000  0.4181930000000  0.4682160000000 1.0
C      1  0.4182520000000  0.5251290000000  0.4827830000000 1.0
C      1  0.5720400000000  0.5057280000000  0.5620460000000 1.0
C      1  0.4986930000000  0.4887710000000  0.5112290000000 1.0
C      1  0.4530240000000  0.5151210000000  0.4212040000000 1.0
C      1  0.5326600000000  0.5449140000000  0.4175980000000 1.0
C      1  0.4431160000000  0.5619400000000  0.5508120000000 1.0
C      1  0.4882560000000  0.4193840000000  0.4482480000000 1.0
C      1  0.5269390000000  0.5141130000000  0.5811960000000 1.0
C      1  0.5647110000000  0.4344840000000  0.4501800000000 1.0
C      1  0.5621320000000  0.4762380000000  0.5687390000000 1.0
C      1  0.5185940000000  0.5330450000000  0.5004680000000 1.0
C      1  0.4779790000000  0.5212530000000  0.4058560000000 1.0
C      1  0.4937960000000  0.5480530000000  0.5722840000000 1.0
C      1  0.5048660000000  0.5796280000000  0.4380020000000 1.0
C      1  0.5057560000000  0.5950750000000  0.5260520000000 1.0
C      1  0.4648300000000  0.5670880000000  0.5287560000000 1.0
C      1  0.4798360000000  0.5900240000000  0.5152670000000 1.0
C      1  0.5670830000000  0.5061920000000  0.4460150000000 1.0
C      1  0.5693820000000  0.5312220000000  0.4383600000000 1.0
C      1  0.4851610000000  0.5114690000000  0.5236820000000 1.0
C      1  0.4638820000000  0.5596850000000  0.4275920000000 1.0
C      1  0.5538590000000  0.5620900000000  0.5351970000000 1.0
C      1  0.4582100000000  0.4114180000000  0.4889390000000 1.0
C      1  0.5541430000000  0.4833550000000  0.4332960000000 1.0
C      1  0.5090160000000  0.5600270000000  0.4177910000000 1.0
C      1  0.5011450000000  0.5408870000000  0.4807770000000 1.0
C      1  0.4685430000000  0.5081460000000  0.4775560000000 1.0
C      1  0.5557240000000  0.4243880000000  0.4738780000000 1.0
C      1  0.4422320000000  0.4918270000000  0.4337170000000 1.0
C      1  0.5485920000000  0.5698090000000  0.4611640000000 1.0
C      1  0.4764580000000  0.5794180000000  0.4432240000000 1.0
C      1  0.4836100000000  0.5486510000000  0.4105920000000 1.0
C      1  0.5551360000000  0.5791000000000  0.5108120000000 1.0
C      1  0.5459130000000  0.3931690000000  0.5273120000000 1.0
C      1  0.5141810000000  0.4801170000000  0.4036790000000 1.0
C      1  0.5065210000000  0.5293670000000  0.5295800000000 1.0
C      1  0.4827000000000  0.4358220000000  0.5043460000000 1.0
C      1  0.5278980000000  0.4555450000000  0.5001270000000 1.0
C      1  0.4549150000000  0.4908470000000  0.5719890000000 1.0
C      1  0.5516070000000  0.6066200000000  0.5096240000000 1.0
C      1  0.5417150000000  0.4665660000000  0.5466530000000 1.0
C      1  0.5324480000000  0.4062110000000  0.4782280000000 1.0
C      1  0.4617500000000  0.4210950000000  0.4615130000000 1.0
C      1  0.5411270000000  0.4919610000000  0.4077880000000 1.0
C      1  0.5110700000000  0.4223630000000  0.5410230000000 1.0
C      1  0.5580680000000  0.4482090000000  0.4937070000000 1.0
C      1  0.5850660000000  0.4820530000000  0.5531370000000 1.0
C      1  0.5621840000000  0.5633970000000  0.4871280000000 1.0
C      1  0.4722360000000  0.5329540000000  0.5807470000000 1.0
C      1  0.5023770000000  0.5070880000000  0.4007600000000 1.0
C      1  0.5056640000000  0.4704850000000  0.5807730000000 1.0
C      1  0.5828780000000  0.5140450000000  0.4919210000000 1.0
C      1  0.4827870000000  0.5938870000000  0.4875310000000 1.0
C      1  0.4197810000000  0.5412420000000  0.5070610000000 1.0
C      1  0.5164660000000  0.5034620000000  0.4598910000000 1.0
C      1  0.4918960000000  0.4412190000000  0.4307400000000 1.0
C      1  0.4846080000000  0.4302290000000  0.5608150000000 1.0
C      1  0.5624970000000  0.5018030000000  0.4745010000000 1.0
C      1  0.4414600000000  0.4955350000000  0.4617990000000 1.0
C      1  0.4722450000000  0.4547010000000  0.5248380000000 1.0
C      1  0.5422210000000  0.4147350000000  0.5436580000000 1.0
C      1  0.5326700000000  0.5066740000000  0.4839900000000 1.0
C      1  0.5339130000000  0.5626510000000  0.5555980000000 1.0
C      1  0.5027080000000  0.4969090000000  0.5897290000000 1.0
C      1  0.4058530000000  0.5426930000000  0.5323900000000 1.0
C      1  0.4912960000000  0.5556980000000  0.5431780000000 1.0
C      1  0.4760900000000  0.5047680000000  0.5859650000000 1.0
C      1  0.4445700000000  0.4654410000000  0.5631910000000 1.0
C      1  0.5521000000000  0.5520740000000  0.4381970000000 1.0
C      1  0.4927910000000  0.4467020000000  0.5805810000000 1.0
C      1  0.4568340000000  0.5037360000000  0.5255580000000 1.0
C      1  0.4780190000000  0.4828260000000  0.4899480000000 1.0
C      1  0.5277130000000  0.3959870000000  0.5059070000000 1.0
C      1  0.5032180000000  0.4032970000000  0.5194660000000 1.0
END
