TITL C-38725-3311-6 0.0441741743563753 125000 -206.393807831703 0 0 32 (C1) n - 1
REM
REM in /rds/project/t2_vol4/rds-t2-cs072/BORA/CARBON/from-Arr/AIRSS/Generating-Clusters/GAP-ML-2020/Only-C1/SD-CG/HFTN-CG
REM
REM
REM
REM
REM
REM ./C.cell (11c1c37f851c82e70ff6c80c92926a4b)
REM AIRSS Version 0.9.1 bugfix July 2018 build 013d7b7c2542+ Fri, 06 Jul 2018 19:26:36 +0100
REM compiler GCC version 9.3.0
REM options -cpp -mtune=generic -march=x86-64 -g -O0
REM seed -176507125 517658750 1696790413 1994678386 -446494232 -722301671 -2042281739 1824385344 1140001264 -1013148791 1118944449 -802623584 1857986748 -452832215 -1397582937 1296483276 2116214259 2105124717 -653450251 241287119 -547331107 -502232760 398338142 -604227336 -1058536323 431661629 1234492520 -1696124087 -1638475420 713924547 1359569812 -1415213863 942205089
REM
CELL 1.54180   50.00000   50.00000   50.00000   90.00000   90.00000   90.00000
LATT -1
SFAC C  
C      1  0.5107140000000  0.5013540000000  0.4814810000000 1.0
C      1  0.4824770000000  0.4997250000000  0.4480160000000 1.0
C      1  0.4592170000000  0.5431730000000  0.5281020000000 1.0
C      1  0.5568090000000  0.5070630000000  0.4927650000000 1.0
C      1  0.5262580000000  0.4907340000000  0.4601120000000 1.0
C      1  0.5026240000000  0.4631450000000  0.5398590000000 1.0
C      1  0.4725390000000  0.4760000000000  0.4620680000000 1.0
C      1  0.5014030000000  0.4362750000000  0.5395230000000 1.0
C      1  0.4677680000000  0.4721900000000  0.4902340000000 1.0
C      1  0.4897100000000  0.5078020000000  0.5513260000000 1.0
C      1  0.5068270000000  0.4845170000000  0.4410140000000 1.0
C      1  0.4572310000000  0.5422900000000  0.5013340000000 1.0
C      1  0.4823570000000  0.5317880000000  0.5369630000000 1.0
C      1  0.4599240000000  0.4281740000000  0.5145320000000 1.0
C      1  0.5490370000000  0.5269700000000  0.5103510000000 1.0
C      1  0.4789800000000  0.4823940000000  0.5395940000000 1.0
C      1  0.5219600000000  0.4837040000000  0.5321030000000 1.0
C      1  0.5052870000000  0.5307310000000  0.5172010000000 1.0
C      1  0.5130560000000  0.5498500000000  0.4956310000000 1.0
C      1  0.5452380000000  0.5100880000000  0.4663330000000 1.0
C      1  0.4798930000000  0.4872250000000  0.5102130000000 1.0
C      1  0.4920730000000  0.4608060000000  0.4483060000000 1.0
C      1  0.5304030000000  0.5261970000000  0.5317540000000 1.0
C      1  0.5205660000000  0.5062200000000  0.5503870000000 1.0
C      1  0.4592350000000  0.4482040000000  0.4992210000000 1.0
C      1  0.4892650000000  0.5197350000000  0.4678540000000 1.0
C      1  0.5089530000000  0.5420580000000  0.4672500000000 1.0
C      1  0.4647430000000  0.5318900000000  0.4795480000000 1.0
C      1  0.5058950000000  0.4984750000000  0.5082130000000 1.0
C      1  0.5379970000000  0.5386060000000  0.4652020000000 1.0
C      1  0.5412580000000  0.5485880000000  0.4922630000000 1.0
C      1  0.4803040000000  0.4240320000000  0.5312500000000 1.0
END
