TITL C-38723-3214-1 -0.127344134140538 125000 -882.425692199523 0 0 125 (C1) n - 1
REM
REM in /rds/project/t2_vol4/rds-t2-cs072/BORA/CARBON/from-Arr/AIRSS/Generating-Clusters/GAP-ML-2020/Only-C1/SD-CG/HFTN-CG
REM
REM
REM
REM
REM
REM ./C.cell (11c1c37f851c82e70ff6c80c92926a4b)
REM AIRSS Version 0.9.1 bugfix July 2018 build 013d7b7c2542+ Fri, 06 Jul 2018 19:26:36 +0100
REM compiler GCC version 9.3.0
REM options -cpp -mtune=generic -march=x86-64 -g -O0
REM seed 1537969045 -1368244307 -1873611228 584351486 -1593754707 -1554184726 1652746996 -1426475605 1977078014 -1330809564 1977600325 144137559 -1757034824 -1445578601 1139153815 1574931768 2108987773 344262863 1243279189 -1834891892 -1171597771 -1913015913 1432011246 -1964610445 -1659286413 -551386450 162988744 1733380314 857770889 381166469 -941491047 -1080310781 -1968097955
REM
CELL 1.54180   50.00000   50.00000   50.00000   90.00000   90.00000   90.00000
LATT -1
SFAC C  
C      1  0.4562860000000  0.5007880000000  0.4755770000000 1.0
C      1  0.5209410000000  0.4994220000000  0.4025570000000 1.0
C      1  0.5480510000000  0.4439300000000  0.5625780000000 1.0
C      1  0.5229070000000  0.5275450000000  0.5834320000000 1.0
C      1  0.4490020000000  0.5046070000000  0.4216660000000 1.0
C      1  0.5566510000000  0.4185050000000  0.4979310000000 1.0
C      1  0.4303550000000  0.5401060000000  0.4464280000000 1.0
C      1  0.4292990000000  0.4767380000000  0.5461630000000 1.0
C      1  0.4746760000000  0.5507180000000  0.4254460000000 1.0
C      1  0.4588320000000  0.5753620000000  0.4689060000000 1.0
C      1  0.5419550000000  0.5045320000000  0.4921920000000 1.0
C      1  0.5419300000000  0.4801490000000  0.5326840000000 1.0
C      1  0.4184750000000  0.4584930000000  0.5246650000000 1.0
C      1  0.5363200000000  0.4530070000000  0.5203850000000 1.0
C      1  0.5249470000000  0.5405610000000  0.4251320000000 1.0
C      1  0.5461120000000  0.5719320000000  0.4585900000000 1.0
C      1  0.5706240000000  0.4601840000000  0.5522040000000 1.0
C      1  0.5187040000000  0.5271030000000  0.5248060000000 1.0
C      1  0.4834110000000  0.4260230000000  0.5262510000000 1.0
C      1  0.4532670000000  0.5323130000000  0.4314200000000 1.0
C      1  0.5663580000000  0.5562620000000  0.4702240000000 1.0
C      1  0.5028420000000  0.5837120000000  0.4970940000000 1.0
C      1  0.5816350000000  0.4832110000000  0.4593340000000 1.0
C      1  0.5380510000000  0.5030530000000  0.4619830000000 1.0
C      1  0.5387840000000  0.4840900000000  0.5892340000000 1.0
C      1  0.5174250000000  0.5420200000000  0.4764740000000 1.0
C      1  0.4984790000000  0.4970030000000  0.4796140000000 1.0
C      1  0.4899280000000  0.4585720000000  0.5164940000000 1.0
C      1  0.5174380000000  0.4975550000000  0.5303730000000 1.0
C      1  0.4332220000000  0.5588810000000  0.4681560000000 1.0
C      1  0.5346100000000  0.5322820000000  0.4999120000000 1.0
C      1  0.4672780000000  0.4237110000000  0.4802470000000 1.0
C      1  0.5601650000000  0.4992490000000  0.5788170000000 1.0
C      1  0.4696450000000  0.5183440000000  0.4569770000000 1.0
C      1  0.5870750000000  0.4822160000000  0.5140530000000 1.0
C      1  0.4042580000000  0.4995230000000  0.5004340000000 1.0
C      1  0.4561490000000  0.4301170000000  0.5376070000000 1.0
C      1  0.4877190000000  0.4146610000000  0.4986740000000 1.0
C      1  0.4922600000000  0.4822080000000  0.5906200000000 1.0
C      1  0.5822700000000  0.5291690000000  0.5370680000000 1.0
C      1  0.5283120000000  0.4725730000000  0.4096120000000 1.0
C      1  0.5291690000000  0.5688240000000  0.4346290000000 1.0
C      1  0.5155670000000  0.5001300000000  0.5921740000000 1.0
C      1  0.5022200000000  0.4248910000000  0.5488120000000 1.0
C      1  0.4721210000000  0.4916800000000  0.4111080000000 1.0
C      1  0.4944010000000  0.5095800000000  0.4057470000000 1.0
C      1  0.5222800000000  0.4390680000000  0.4298270000000 1.0
C      1  0.4287850000000  0.4929330000000  0.4383570000000 1.0
C      1  0.5344980000000  0.4103400000000  0.5169210000000 1.0
C      1  0.4610350000000  0.4429800000000  0.5626100000000 1.0
C      1  0.5158220000000  0.4103400000000  0.4948200000000 1.0
C      1  0.5163900000000  0.5658230000000  0.5513270000000 1.0
C      1  0.5593910000000  0.4922530000000  0.5135530000000 1.0
C      1  0.5321530000000  0.4576190000000  0.5816340000000 1.0
C      1  0.4329000000000  0.4657260000000  0.4490680000000 1.0
C      1  0.5817340000000  0.5317510000000  0.4630700000000 1.0
C      1  0.5387420000000  0.4202450000000  0.4756850000000 1.0
C      1  0.5922650000000  0.5204380000000  0.4869720000000 1.0
C      1  0.5056840000000  0.4545810000000  0.4157870000000 1.0
C      1  0.4501900000000  0.4828940000000  0.5224400000000 1.0
C      1  0.4068960000000  0.5187560000000  0.4785940000000 1.0
C      1  0.4698460000000  0.5029180000000  0.5278450000000 1.0
C      1  0.4564950000000  0.4521790000000  0.4371780000000 1.0
C      1  0.4118930000000  0.4713430000000  0.4990130000000 1.0
C      1  0.4747130000000  0.4784120000000  0.4795750000000 1.0
C      1  0.4869320000000  0.4543380000000  0.4645420000000 1.0
C      1  0.5302600000000  0.4296220000000  0.5413440000000 1.0
C      1  0.4078670000000  0.5150600000000  0.5245460000000 1.0
C      1  0.5446540000000  0.5642020000000  0.5443330000000 1.0
C      1  0.4737800000000  0.5290770000000  0.5414560000000 1.0
C      1  0.4131100000000  0.5432250000000  0.5172290000000 1.0
C      1  0.4753180000000  0.5388580000000  0.5699550000000 1.0
C      1  0.5639370000000  0.4413630000000  0.5116270000000 1.0
C      1  0.4247770000000  0.5597090000000  0.5373560000000 1.0
C      1  0.5781830000000  0.4862100000000  0.5613830000000 1.0
C      1  0.4969190000000  0.5365030000000  0.4149730000000 1.0
C      1  0.4501690000000  0.5761740000000  0.5402260000000 1.0
C      1  0.5051780000000  0.5469480000000  0.5721510000000 1.0
C      1  0.4300820000000  0.5476830000000  0.5625470000000 1.0
C      1  0.5549840000000  0.4754500000000  0.4218640000000 1.0
C      1  0.5924750000000  0.4908570000000  0.4858570000000 1.0
C      1  0.4311130000000  0.5204720000000  0.5677610000000 1.0
C      1  0.5049140000000  0.5776140000000  0.4482320000000 1.0
C      1  0.4923270000000  0.4844410000000  0.5331850000000 1.0
C      1  0.5515960000000  0.5722620000000  0.5191270000000 1.0
C      1  0.5159590000000  0.4572180000000  0.4692940000000 1.0
C      1  0.5034730000000  0.4562840000000  0.5847290000000 1.0
C      1  0.4985990000000  0.5714160000000  0.5256400000000 1.0
C      1  0.5170360000000  0.4908490000000  0.5009210000000 1.0
C      1  0.4460440000000  0.4405200000000  0.4928150000000 1.0
C      1  0.5629700000000  0.5035920000000  0.4212230000000 1.0
C      1  0.5618740000000  0.5420930000000  0.5540330000000 1.0
C      1  0.5872150000000  0.5011420000000  0.5388540000000 1.0
C      1  0.4164280000000  0.5155120000000  0.4521860000000 1.0
C      1  0.5159850000000  0.4857070000000  0.4594710000000 1.0
C      1  0.4556810000000  0.5606700000000  0.5648180000000 1.0
C      1  0.5789590000000  0.5085370000000  0.4447020000000 1.0
C      1  0.5617310000000  0.5530220000000  0.5003110000000 1.0
C      1  0.4349210000000  0.4357480000000  0.5202580000000 1.0
C      1  0.4644330000000  0.4879200000000  0.5835360000000 1.0
C      1  0.4173340000000  0.5034770000000  0.5493070000000 1.0
C      1  0.4768990000000  0.4644570000000  0.4186240000000 1.0
C      1  0.4925420000000  0.5418780000000  0.5229330000000 1.0
C      1  0.5179730000000  0.5729130000000  0.4748010000000 1.0
C      1  0.4701860000000  0.5839810000000  0.5224280000000 1.0
C      1  0.5282580000000  0.5289680000000  0.4535920000000 1.0
C      1  0.4885080000000  0.4372930000000  0.5702360000000 1.0
C      1  0.4773250000000  0.5717270000000  0.4455520000000 1.0
C      1  0.4485580000000  0.4676880000000  0.5685260000000 1.0
C      1  0.5158810000000  0.4608480000000  0.5004190000000 1.0
C      1  0.5824280000000  0.4554930000000  0.5258460000000 1.0
C      1  0.5405980000000  0.5180890000000  0.4108880000000 1.0
C      1  0.4735650000000  0.5860710000000  0.4932540000000 1.0
C      1  0.5632270000000  0.4631820000000  0.4459720000000 1.0
C      1  0.4596070000000  0.5142650000000  0.5019610000000 1.0
C      1  0.4152990000000  0.5451060000000  0.4880300000000 1.0
C      1  0.5383850000000  0.4421230000000  0.4542580000000 1.0
C      1  0.4921900000000  0.5265920000000  0.4752170000000 1.0
C      1  0.4702440000000  0.4340880000000  0.4541210000000 1.0
C      1  0.4642050000000  0.4646800000000  0.5034690000000 1.0
C      1  0.4776230000000  0.5355240000000  0.4980240000000 1.0
C      1  0.4262720000000  0.4577690000000  0.4772000000000 1.0
C      1  0.5840570000000  0.5365220000000  0.5096510000000 1.0
C      1  0.5505790000000  0.5259690000000  0.5745230000000 1.0
C      1  0.4565420000000  0.5148650000000  0.5799220000000 1.0
END
