TITL C-38594-1017-4 83.4198716796957 125000 -210.701768790484 0 0 32 (C1) n - 1
REM
REM in /rds/project/t2_vol4/rds-t2-cs072/BORA/CARBON/from-Arr/AIRSS/Generating-Clusters/GAP-ML-2020/Only-C1/SD-CG/HFTN-CG
REM
REM
REM
REM
REM
REM ./C.cell (11c1c37f851c82e70ff6c80c92926a4b)
REM AIRSS Version 0.9.1 bugfix July 2018 build 013d7b7c2542+ Fri, 06 Jul 2018 19:26:36 +0100
REM compiler GCC version 9.3.0
REM options -cpp -mtune=generic -march=x86-64 -g -O0
REM seed -103353333 1564328240 1177018010 -273327925 -1413196807 -1071505074 -1186775841 -1893115091 1527161241 -210494659 -1450143751 762149451 1684005912 -1577663417 -687072501 -1357665092 -1211468765 1713745533 448975046 -820030925 1605688991 2126713181 -1595495557 -1790621079 -1201689276 1389841273 -737402978 1756472818 474487888 -168311110 -2051207727 -334546396 1116612452
REM
CELL 1.54180   50.00000   50.00000   50.00000   90.00000   90.00000   90.00000
LATT -1
SFAC C  
C      1  0.4752190000000  0.5214450000000  0.4866320000000 1.0
C      1  0.4366140000000  0.5059560000000  0.5419410000000 1.0
C      1  0.4902240000000  0.4840760000000  0.4294280000000 1.0
C      1  0.5030740000000  0.5198090000000  0.5513230000000 1.0
C      1  0.5295590000000  0.5196670000000  0.5440600000000 1.0
C      1  0.5513580000000  0.4534160000000  0.4936920000000 1.0
C      1  0.5400550000000  0.5451580000000  0.5356150000000 1.0
C      1  0.4868850000000  0.4449320000000  0.4934270000000 1.0
C      1  0.4316550000000  0.4816520000000  0.5298260000000 1.0
C      1  0.4827720000000  0.5338150000000  0.5352200000000 1.0
C      1  0.4850340000000  0.4965860000000  0.5479030000000 1.0
C      1  0.4731700000000  0.4961110000000  0.4490330000000 1.0
C      1  0.5206210000000  0.4742750000000  0.5247510000000 1.0
C      1  0.5289510000000  0.4513500000000  0.5105900000000 1.0
C      1  0.5075010000000  0.4341430000000  0.5028560000000 1.0
C      1  0.4838930000000  0.5354020000000  0.4618860000000 1.0
C      1  0.4895290000000  0.5336750000000  0.5076600000000 1.0
C      1  0.5420100000000  0.4986070000000  0.4760030000000 1.0
C      1  0.5263390000000  0.5113680000000  0.4547590000000 1.0
C      1  0.5355830000000  0.4996460000000  0.5249440000000 1.0
C      1  0.5520290000000  0.4728900000000  0.4774340000000 1.0
C      1  0.4746360000000  0.4724530000000  0.5006110000000 1.0
C      1  0.5120790000000  0.4955560000000  0.4376160000000 1.0
C      1  0.5327460000000  0.5545910000000  0.5131020000000 1.0
C      1  0.4925120000000  0.4783330000000  0.5277770000000 1.0
C      1  0.4718030000000  0.4942980000000  0.4786870000000 1.0
C      1  0.5121650000000  0.5337450000000  0.4662360000000 1.0
C      1  0.5379170000000  0.5121590000000  0.5000490000000 1.0
C      1  0.4617890000000  0.5141950000000  0.5430580000000 1.0
C      1  0.4478260000000  0.4707920000000  0.5138010000000 1.0
C      1  0.4674280000000  0.5237770000000  0.4440850000000 1.0
C      1  0.5170250000000  0.5361210000000  0.4959960000000 1.0
END
