TITL C-38596-965-6 8.79168226520527 125000 -733.606511502021 0 0 106 (C1) n - 1
REM
REM in /rds/project/t2_vol4/rds-t2-cs072/BORA/CARBON/from-Arr/AIRSS/Generating-Clusters/GAP-ML-2020/Only-C1/SD-CG/HFTN-CG
REM
REM
REM
REM
REM
REM ./C.cell (11c1c37f851c82e70ff6c80c92926a4b)
REM AIRSS Version 0.9.1 bugfix July 2018 build 013d7b7c2542+ Fri, 06 Jul 2018 19:26:36 +0100
REM compiler GCC version 9.3.0
REM options -cpp -mtune=generic -march=x86-64 -g -O0
REM seed -771976552 1558783880 1748105054 664699477 -124869821 -1599351733 -204151371 135288065 1312083967 1109745329 -202704002 -1507443934 -1441876145 -1873621740 -1599314204 -1615914461 -1810259356 -3963438 48766705 -586623058 -34849741 -2139722517 -1873816194 64305932 -1819308506 1638514388 -326903098 660798679 -1822739558 102487229 345279516 -1096751037 -491294003
REM
CELL 1.54180   50.00000   50.00000   50.00000   90.00000   90.00000   90.00000
LATT -1
SFAC C  
C      1  0.5208450000000  0.4594880000000  0.4686870000000 1.0
C      1  0.5352710000000  0.5427700000000  0.5600780000000 1.0
C      1  0.5137330000000  0.5753120000000  0.4441240000000 1.0
C      1  0.4224400000000  0.5323250000000  0.5151780000000 1.0
C      1  0.5421270000000  0.4337500000000  0.5241480000000 1.0
C      1  0.5076060000000  0.5534300000000  0.4246450000000 1.0
C      1  0.5567490000000  0.4785340000000  0.5084460000000 1.0
C      1  0.4532670000000  0.5766960000000  0.4896620000000 1.0
C      1  0.5320070000000  0.5145010000000  0.5708540000000 1.0
C      1  0.5967740000000  0.4712340000000  0.5010030000000 1.0
C      1  0.4357260000000  0.5004570000000  0.5752980000000 1.0
C      1  0.5493390000000  0.5713860000000  0.4809460000000 1.0
C      1  0.5826830000000  0.4847860000000  0.5239800000000 1.0
C      1  0.4708840000000  0.4817770000000  0.4781780000000 1.0
C      1  0.4642850000000  0.4200790000000  0.5288930000000 1.0
C      1  0.5149330000000  0.4383840000000  0.5177170000000 1.0
C      1  0.4324240000000  0.4573390000000  0.4909760000000 1.0
C      1  0.5394030000000  0.5125020000000  0.4750130000000 1.0
C      1  0.4503560000000  0.5388830000000  0.5814400000000 1.0
C      1  0.4870470000000  0.4981560000000  0.5542770000000 1.0
C      1  0.4187990000000  0.4636440000000  0.5155050000000 1.0
C      1  0.5380330000000  0.5711830000000  0.5084530000000 1.0
C      1  0.5083240000000  0.4894900000000  0.5043230000000 1.0
C      1  0.4315850000000  0.4595580000000  0.5405960000000 1.0
C      1  0.5376720000000  0.5786730000000  0.4571100000000 1.0
C      1  0.4237050000000  0.5400470000000  0.4663370000000 1.0
C      1  0.5661690000000  0.5164380000000  0.4623880000000 1.0
C      1  0.4896570000000  0.4890180000000  0.4223910000000 1.0
C      1  0.5567640000000  0.4748930000000  0.5393770000000 1.0
C      1  0.4586790000000  0.4449400000000  0.5419350000000 1.0
C      1  0.4835030000000  0.4985530000000  0.5845430000000 1.0
C      1  0.5626970000000  0.5026350000000  0.4371100000000 1.0
C      1  0.4471970000000  0.5645530000000  0.5419460000000 1.0
C      1  0.5910960000000  0.5122910000000  0.5248540000000 1.0
C      1  0.4582550000000  0.4314850000000  0.4823670000000 1.0
C      1  0.6128160000000  0.4909250000000  0.4900000000000 1.0
C      1  0.5109770000000  0.5640130000000  0.5189930000000 1.0
C      1  0.4452440000000  0.5594030000000  0.4670190000000 1.0
C      1  0.4682800000000  0.5579330000000  0.4496650000000 1.0
C      1  0.5575940000000  0.4320430000000  0.4998650000000 1.0
C      1  0.5487000000000  0.4483150000000  0.5488480000000 1.0
C      1  0.4589610000000  0.5770690000000  0.5193260000000 1.0
C      1  0.5129280000000  0.5555990000000  0.5481490000000 1.0
C      1  0.4288570000000  0.5277070000000  0.5651520000000 1.0
C      1  0.5369830000000  0.4999310000000  0.5016810000000 1.0
C      1  0.5842430000000  0.5315220000000  0.4798980000000 1.0
C      1  0.5184590000000  0.4896000000000  0.4292660000000 1.0
C      1  0.4090300000000  0.5314740000000  0.4896440000000 1.0
C      1  0.4542580000000  0.4784070000000  0.4508090000000 1.0
C      1  0.5449950000000  0.4198950000000  0.4768760000000 1.0
C      1  0.4803460000000  0.5417230000000  0.4286940000000 1.0
C      1  0.5159800000000  0.4255170000000  0.4737910000000 1.0
C      1  0.5130700000000  0.4684980000000  0.5769140000000 1.0
C      1  0.5271180000000  0.5346200000000  0.4309780000000 1.0
C      1  0.4637850000000  0.5049860000000  0.4973830000000 1.0
C      1  0.5617670000000  0.5598580000000  0.5198830000000 1.0
C      1  0.5332840000000  0.4496100000000  0.5722430000000 1.0
C      1  0.4283770000000  0.4705300000000  0.4645120000000 1.0
C      1  0.5328560000000  0.4646470000000  0.4364300000000 1.0
C      1  0.4879210000000  0.5154890000000  0.5114840000000 1.0
C      1  0.5091780000000  0.4805130000000  0.5480960000000 1.0
C      1  0.4627910000000  0.4280910000000  0.4560440000000 1.0
C      1  0.5720230000000  0.5551370000000  0.4917340000000 1.0
C      1  0.4751220000000  0.4662370000000  0.4328380000000 1.0
C      1  0.4732560000000  0.5135650000000  0.4253190000000 1.0
C      1  0.4380530000000  0.5073810000000  0.5111650000000 1.0
C      1  0.5718740000000  0.4565280000000  0.4900080000000 1.0
C      1  0.4735420000000  0.4596970000000  0.5206410000000 1.0
C      1  0.5424520000000  0.5142450000000  0.5259530000000 1.0
C      1  0.5332350000000  0.4355830000000  0.4334850000000 1.0
C      1  0.5689350000000  0.5257910000000  0.5338530000000 1.0
C      1  0.5693680000000  0.4535800000000  0.4592790000000 1.0
C      1  0.5000840000000  0.5444650000000  0.4739620000000 1.0
C      1  0.4371040000000  0.4736280000000  0.5651510000000 1.0
C      1  0.4796100000000  0.5860740000000  0.4851600000000 1.0
C      1  0.5137260000000  0.4997310000000  0.5865950000000 1.0
C      1  0.4490680000000  0.5044990000000  0.4373260000000 1.0
C      1  0.4010500000000  0.5030990000000  0.4865490000000 1.0
C      1  0.5598860000000  0.4737550000000  0.4407600000000 1.0
C      1  0.4907890000000  0.5711540000000  0.4628540000000 1.0
C      1  0.5366570000000  0.4960520000000  0.5474400000000 1.0
C      1  0.4639790000000  0.5576090000000  0.5646990000000 1.0
C      1  0.4869830000000  0.5822750000000  0.5128810000000 1.0
C      1  0.4616280000000  0.4575060000000  0.5703640000000 1.0
C      1  0.5153840000000  0.5001930000000  0.4586300000000 1.0
C      1  0.4261120000000  0.5159410000000  0.4494200000000 1.0
C      1  0.4112280000000  0.4932830000000  0.4619390000000 1.0
C      1  0.5021480000000  0.4657260000000  0.5231580000000 1.0
C      1  0.4991930000000  0.5403440000000  0.5011260000000 1.0
C      1  0.5184730000000  0.5288560000000  0.4598870000000 1.0
C      1  0.4834690000000  0.4677500000000  0.5841620000000 1.0
C      1  0.4736900000000  0.4169610000000  0.5033870000000 1.0
C      1  0.5393080000000  0.5104530000000  0.4224460000000 1.0
C      1  0.5604500000000  0.5489850000000  0.5466820000000 1.0
C      1  0.4270690000000  0.5437720000000  0.5402330000000 1.0
C      1  0.4138780000000  0.4900030000000  0.5082280000000 1.0
C      1  0.4823190000000  0.4386990000000  0.4394870000000 1.0
C      1  0.5018040000000  0.4809770000000  0.4765480000000 1.0
C      1  0.4827730000000  0.5208410000000  0.5398670000000 1.0
C      1  0.4615810000000  0.4589100000000  0.4941410000000 1.0
C      1  0.5015270000000  0.4220150000000  0.4984460000000 1.0
C      1  0.6023000000000  0.5165250000000  0.4968650000000 1.0
C      1  0.5083390000000  0.4264480000000  0.4442470000000 1.0
C      1  0.5551550000000  0.4299610000000  0.4523890000000 1.0
C      1  0.4586900000000  0.5125050000000  0.5906650000000 1.0
C      1  0.4878540000000  0.5461580000000  0.5556100000000 1.0
END
