TITL C-38730-3264-5 -0.219730213589254 125000 -526.498072221076 0 0 77 (C1) n - 1
REM
REM in /rds/project/t2_vol4/rds-t2-cs072/BORA/CARBON/from-Arr/AIRSS/Generating-Clusters/GAP-ML-2020/Only-C1/SD-CG/HFTN-CG
REM
REM
REM
REM
REM
REM ./C.cell (11c1c37f851c82e70ff6c80c92926a4b)
REM AIRSS Version 0.9.1 bugfix July 2018 build 013d7b7c2542+ Fri, 06 Jul 2018 19:26:36 +0100
REM compiler GCC version 9.3.0
REM options -cpp -mtune=generic -march=x86-64 -g -O0
REM seed -1109273340 -1070856474 1814094568 -580123389 -1730193623 -1882066868 559597747 -1551517243 1526215972 2125992947 -1641690623 675905117 813463041 -1439567812 1986526977 -109767724 -1389531024 1550840189 2005161382 203954284 -750866260 1687392485 1872189945 384158923 38382013 969909997 1374123839 -1886223397 -448848438 889214082 2121310854 1099633291 879409962
REM
CELL 1.54180   50.00000   50.00000   50.00000   90.00000   90.00000   90.00000
LATT -1
SFAC C  
C      1  0.4231660000000  0.5101520000000  0.4959490000000 1.0
C      1  0.4885660000000  0.5096820000000  0.5785830000000 1.0
C      1  0.4993100000000  0.4795030000000  0.4887090000000 1.0
C      1  0.5008250000000  0.5356370000000  0.5085890000000 1.0
C      1  0.4649600000000  0.4872120000000  0.4412970000000 1.0
C      1  0.5266700000000  0.5495560000000  0.4607500000000 1.0
C      1  0.4799850000000  0.4846510000000  0.5303030000000 1.0
C      1  0.5357770000000  0.5671500000000  0.5056340000000 1.0
C      1  0.5129980000000  0.4750380000000  0.4391660000000 1.0
C      1  0.4763460000000  0.5522250000000  0.5207990000000 1.0
C      1  0.4512090000000  0.4864720000000  0.5666790000000 1.0
C      1  0.4354170000000  0.5349270000000  0.5010680000000 1.0
C      1  0.4719480000000  0.4452060000000  0.5457990000000 1.0
C      1  0.5723020000000  0.4810050000000  0.4845690000000 1.0
C      1  0.4293630000000  0.4951930000000  0.4730470000000 1.0
C      1  0.5044220000000  0.4158900000000  0.4757470000000 1.0
C      1  0.5107390000000  0.5279320000000  0.5715680000000 1.0
C      1  0.4822680000000  0.5424760000000  0.4454890000000 1.0
C      1  0.5016490000000  0.4185160000000  0.5218230000000 1.0
C      1  0.4327480000000  0.4922000000000  0.5174810000000 1.0
C      1  0.5265060000000  0.5273480000000  0.4437040000000 1.0
C      1  0.5203360000000  0.4849380000000  0.5578920000000 1.0
C      1  0.5408360000000  0.4799650000000  0.4370450000000 1.0
C      1  0.4323180000000  0.4680090000000  0.4849500000000 1.0
C      1  0.5458990000000  0.5067470000000  0.4474330000000 1.0
C      1  0.5121420000000  0.5796130000000  0.5003810000000 1.0
C      1  0.5440070000000  0.5509900000000  0.4835250000000 1.0
C      1  0.5427320000000  0.4468880000000  0.4938770000000 1.0
C      1  0.5255430000000  0.4922130000000  0.4978160000000 1.0
C      1  0.5477920000000  0.5015100000000  0.4791620000000 1.0
C      1  0.4611820000000  0.5022700000000  0.5173410000000 1.0
C      1  0.4904140000000  0.5239170000000  0.4862900000000 1.0
C      1  0.4626990000000  0.4597730000000  0.4497610000000 1.0
C      1  0.5223100000000  0.4388690000000  0.4768900000000 1.0
C      1  0.4731140000000  0.4699360000000  0.5597920000000 1.0
C      1  0.5838870000000  0.5288120000000  0.4684130000000 1.0
C      1  0.4920850000000  0.5759830000000  0.4816580000000 1.0
C      1  0.5332980000000  0.5126050000000  0.5611540000000 1.0
C      1  0.5436340000000  0.5248540000000  0.5346580000000 1.0
C      1  0.5001650000000  0.5609520000000  0.4593410000000 1.0
C      1  0.4997150000000  0.5217440000000  0.4354100000000 1.0
C      1  0.4492860000000  0.5497770000000  0.4807010000000 1.0
C      1  0.4775360000000  0.5003670000000  0.4905640000000 1.0
C      1  0.4516490000000  0.4511940000000  0.4748920000000 1.0
C      1  0.4328910000000  0.4646520000000  0.5141540000000 1.0
C      1  0.5011600000000  0.4441460000000  0.5329230000000 1.0
C      1  0.5415000000000  0.5555930000000  0.5324270000000 1.0
C      1  0.4869620000000  0.4166190000000  0.4987210000000 1.0
C      1  0.5413680000000  0.4686410000000  0.5155890000000 1.0
C      1  0.4505720000000  0.5345760000000  0.5557260000000 1.0
C      1  0.5286910000000  0.5675080000000  0.5525830000000 1.0
C      1  0.5644390000000  0.5143410000000  0.5174520000000 1.0
C      1  0.4569850000000  0.5601250000000  0.5656090000000 1.0
C      1  0.4967080000000  0.4821900000000  0.5750670000000 1.0
C      1  0.5628010000000  0.4646090000000  0.4483990000000 1.0
C      1  0.4919290000000  0.4946350000000  0.4333870000000 1.0
C      1  0.5257570000000  0.4624950000000  0.5395040000000 1.0
C      1  0.4679050000000  0.4402500000000  0.4984830000000 1.0
C      1  0.5177830000000  0.5145110000000  0.5180230000000 1.0
C      1  0.5066270000000  0.4605110000000  0.4637880000000 1.0
C      1  0.5619580000000  0.5277880000000  0.4888380000000 1.0
C      1  0.5778220000000  0.5110050000000  0.4481910000000 1.0
C      1  0.4525820000000  0.4454430000000  0.5232160000000 1.0
C      1  0.5838510000000  0.4847160000000  0.4581030000000 1.0
C      1  0.4800600000000  0.5620090000000  0.5499500000000 1.0
C      1  0.4926070000000  0.4189850000000  0.4506650000000 1.0
C      1  0.5665380000000  0.4860240000000  0.5128090000000 1.0
C      1  0.4539060000000  0.5315610000000  0.5248600000000 1.0
C      1  0.5615870000000  0.4546110000000  0.4752440000000 1.0
C      1  0.4685760000000  0.5663260000000  0.4944120000000 1.0
C      1  0.4470640000000  0.5069220000000  0.4527990000000 1.0
C      1  0.4602810000000  0.5118710000000  0.5713390000000 1.0
C      1  0.5065100000000  0.5548170000000  0.5621460000000 1.0
C      1  0.4560200000000  0.5352550000000  0.4554800000000 1.0
C      1  0.5023800000000  0.4997480000000  0.5366860000000 1.0
C      1  0.4866870000000  0.4451890000000  0.4472270000000 1.0
C      1  0.4877430000000  0.4624330000000  0.5105000000000 1.0
END
