TITL C-38596-965-8 -0.189124774514434 125000 -753.119310679872 0 0 109 (C1) n - 1
REM
REM in /rds/project/t2_vol4/rds-t2-cs072/BORA/CARBON/from-Arr/AIRSS/Generating-Clusters/GAP-ML-2020/Only-C1/SD-CG/HFTN-CG
REM
REM
REM
REM
REM
REM ./C.cell (11c1c37f851c82e70ff6c80c92926a4b)
REM AIRSS Version 0.9.1 bugfix July 2018 build 013d7b7c2542+ Fri, 06 Jul 2018 19:26:36 +0100
REM compiler GCC version 9.3.0
REM options -cpp -mtune=generic -march=x86-64 -g -O0
REM seed 1776514635 1099730431 189120077 1497437253 -1928756116 843967393 -1420699850 973899500 -1263569290 -290521690 -1834142949 -2013439242 -1679490941 -30270101 -1396796360 -1737916285 419924511 -1102836100 -1194520670 -807602467 366163393 1894137294 -322545877 1903662656 1775826974 -1370055234 47419800 696706086 293890874 200247151 -165300908 -2004235032 -1651177392
REM
CELL 1.54180   50.00000   50.00000   50.00000   90.00000   90.00000   90.00000
LATT -1
SFAC C  
C      1  0.4889360000000  0.4843610000000  0.5427740000000 1.0
C      1  0.5838060000000  0.5080690000000  0.4758320000000 1.0
C      1  0.5515860000000  0.5530870000000  0.5765410000000 1.0
C      1  0.5943240000000  0.5240370000000  0.5238460000000 1.0
C      1  0.5099920000000  0.4923430000000  0.5066160000000 1.0
C      1  0.4925100000000  0.5028740000000  0.5915740000000 1.0
C      1  0.4806050000000  0.5781440000000  0.4646260000000 1.0
C      1  0.4567400000000  0.5333700000000  0.4354890000000 1.0
C      1  0.4241410000000  0.5236590000000  0.5296680000000 1.0
C      1  0.4873930000000  0.5823640000000  0.5141300000000 1.0
C      1  0.4754010000000  0.4924340000000  0.4688390000000 1.0
C      1  0.4501360000000  0.4596030000000  0.4295840000000 1.0
C      1  0.5777490000000  0.4611280000000  0.5037600000000 1.0
C      1  0.4666300000000  0.4641460000000  0.5786100000000 1.0
C      1  0.5218880000000  0.5691760000000  0.4881440000000 1.0
C      1  0.4165670000000  0.4592120000000  0.4940290000000 1.0
C      1  0.4129640000000  0.4861650000000  0.5044810000000 1.0
C      1  0.5749490000000  0.5219820000000  0.4534930000000 1.0
C      1  0.5260420000000  0.5374090000000  0.4186600000000 1.0
C      1  0.5830150000000  0.5290270000000  0.4974220000000 1.0
C      1  0.5442150000000  0.5165500000000  0.4192340000000 1.0
C      1  0.5636640000000  0.4760700000000  0.4481910000000 1.0
C      1  0.4449430000000  0.4830570000000  0.5707370000000 1.0
C      1  0.4933160000000  0.5683530000000  0.4406060000000 1.0
C      1  0.5349320000000  0.5203810000000  0.4772470000000 1.0
C      1  0.5617080000000  0.5034470000000  0.4356630000000 1.0
C      1  0.4731070000000  0.4217830000000  0.4929640000000 1.0
C      1  0.4166820000000  0.4952770000000  0.5308710000000 1.0
C      1  0.4452950000000  0.4451630000000  0.4541620000000 1.0
C      1  0.5123970000000  0.4636250000000  0.5114070000000 1.0
C      1  0.5241510000000  0.4436840000000  0.4276100000000 1.0
C      1  0.4789610000000  0.5504390000000  0.4240180000000 1.0
C      1  0.4403390000000  0.5477520000000  0.4561610000000 1.0
C      1  0.5699440000000  0.5251100000000  0.5441460000000 1.0
C      1  0.4932970000000  0.5335630000000  0.4736890000000 1.0
C      1  0.4851660000000  0.5402560000000  0.5007540000000 1.0
C      1  0.5063540000000  0.5597010000000  0.5136000000000 1.0
C      1  0.4164740000000  0.5057620000000  0.4710440000000 1.0
C      1  0.5098220000000  0.5428910000000  0.5717450000000 1.0
C      1  0.4969580000000  0.5858150000000  0.4868470000000 1.0
C      1  0.4501880000000  0.5065420000000  0.4200750000000 1.0
C      1  0.4549410000000  0.5662850000000  0.4720570000000 1.0
C      1  0.4813330000000  0.5428670000000  0.5691060000000 1.0
C      1  0.4744650000000  0.4924630000000  0.4122890000000 1.0
C      1  0.4318010000000  0.4504310000000  0.5397230000000 1.0
C      1  0.4227130000000  0.4592260000000  0.4663470000000 1.0
C      1  0.5161830000000  0.5149040000000  0.5789050000000 1.0
C      1  0.5147120000000  0.4109590000000  0.5193250000000 1.0
C      1  0.5487120000000  0.4385100000000  0.5367130000000 1.0
C      1  0.4802550000000  0.5163740000000  0.4541170000000 1.0
C      1  0.4543580000000  0.4266410000000  0.5146270000000 1.0
C      1  0.4551250000000  0.4339100000000  0.5436210000000 1.0
C      1  0.5873340000000  0.5018530000000  0.5368310000000 1.0
C      1  0.4477790000000  0.5114890000000  0.5722550000000 1.0
C      1  0.5515440000000  0.4911070000000  0.5111630000000 1.0
C      1  0.5617560000000  0.5273540000000  0.5722550000000 1.0
C      1  0.5045320000000  0.4413060000000  0.5589740000000 1.0
C      1  0.5334480000000  0.5573030000000  0.5277900000000 1.0
C      1  0.5486360000000  0.4528410000000  0.4397110000000 1.0
C      1  0.4739730000000  0.4408400000000  0.5633040000000 1.0
C      1  0.4533110000000  0.5562440000000  0.5002190000000 1.0
C      1  0.4970820000000  0.4502350000000  0.4303060000000 1.0
C      1  0.5474470000000  0.5686190000000  0.5024600000000 1.0
C      1  0.5693020000000  0.5543290000000  0.4884750000000 1.0
C      1  0.4939180000000  0.5080160000000  0.4250100000000 1.0
C      1  0.5174430000000  0.4331650000000  0.4752070000000 1.0
C      1  0.4811460000000  0.4972410000000  0.5179860000000 1.0
C      1  0.4635790000000  0.4901320000000  0.4945390000000 1.0
C      1  0.4318360000000  0.5344700000000  0.5024740000000 1.0
C      1  0.4277000000000  0.4764460000000  0.5493840000000 1.0
C      1  0.4943040000000  0.4485960000000  0.4612520000000 1.0
C      1  0.5376630000000  0.4776660000000  0.5677720000000 1.0
C      1  0.4182790000000  0.4842740000000  0.4528520000000 1.0
C      1  0.4219330000000  0.5339900000000  0.4734280000000 1.0
C      1  0.4910530000000  0.4748000000000  0.5887760000000 1.0
C      1  0.5440820000000  0.5054090000000  0.5810500000000 1.0
C      1  0.4992740000000  0.4785020000000  0.4656440000000 1.0
C      1  0.4349180000000  0.4848720000000  0.4297370000000 1.0
C      1  0.5547540000000  0.5201570000000  0.4999680000000 1.0
C      1  0.5159120000000  0.4956550000000  0.5522510000000 1.0
C      1  0.4718210000000  0.5201840000000  0.5835820000000 1.0
C      1  0.4990860000000  0.4585400000000  0.5350510000000 1.0
C      1  0.5738880000000  0.4790150000000  0.4760670000000 1.0
C      1  0.5308720000000  0.5584560000000  0.5591130000000 1.0
C      1  0.5447860000000  0.5293570000000  0.5270690000000 1.0
C      1  0.5196290000000  0.5442480000000  0.4691150000000 1.0
C      1  0.5236470000000  0.4237490000000  0.5419760000000 1.0
C      1  0.5145040000000  0.4613820000000  0.5783100000000 1.0
C      1  0.5674720000000  0.5506120000000  0.4604710000000 1.0
C      1  0.5021810000000  0.4158700000000  0.4955120000000 1.0
C      1  0.5235100000000  0.5576410000000  0.4404180000000 1.0
C      1  0.5729210000000  0.4778160000000  0.5278240000000 1.0
C      1  0.4629090000000  0.5701460000000  0.5243480000000 1.0
C      1  0.5353730000000  0.4309750000000  0.4512160000000 1.0
C      1  0.5211440000000  0.4938250000000  0.4786050000000 1.0
C      1  0.4647910000000  0.5465720000000  0.5446380000000 1.0
C      1  0.4680380000000  0.4353030000000  0.4683670000000 1.0
C      1  0.5557100000000  0.4627270000000  0.5490710000000 1.0
C      1  0.5571540000000  0.4414150000000  0.5090620000000 1.0
C      1  0.4408080000000  0.5306050000000  0.5510130000000 1.0
C      1  0.4756870000000  0.4636600000000  0.4176220000000 1.0
C      1  0.4354530000000  0.5029370000000  0.4945090000000 1.0
C      1  0.5336760000000  0.4506160000000  0.4938950000000 1.0
C      1  0.5498850000000  0.5662440000000  0.4472860000000 1.0
C      1  0.5280110000000  0.5037220000000  0.5268550000000 1.0
C      1  0.5450190000000  0.4767520000000  0.4847400000000 1.0
C      1  0.4988110000000  0.5328120000000  0.4127660000000 1.0
C      1  0.4775570000000  0.5248970000000  0.5226340000000 1.0
C      1  0.4298320000000  0.4426350000000  0.5120730000000 1.0
END
