TITL C-38739-3341-1 -0.388439403985864 125000 -783.875614092372 0 0 112 (C1) n - 1
REM
REM in /rds/project/t2_vol4/rds-t2-cs072/BORA/CARBON/from-Arr/AIRSS/Generating-Clusters/GAP-ML-2020/Only-C1/SD-CG/HFTN-CG
REM
REM
REM
REM
REM
REM ./C.cell (11c1c37f851c82e70ff6c80c92926a4b)
REM AIRSS Version 0.9.1 bugfix July 2018 build 013d7b7c2542+ Fri, 06 Jul 2018 19:26:36 +0100
REM compiler GCC version 9.3.0
REM options -cpp -mtune=generic -march=x86-64 -g -O0
REM seed 393223797 603544069 2067105234 -668966171 -1765699945 -182234163 -469535150 -1364989041 -949397798 30898191 -2127549048 -270129241 224441517 -1263753248 2095784195 -1364762904 32685503 -505470346 1913011171 732541231 -666232162 -381112584 1229782759 -1684638695 -434213810 1213742957 -468914482 -1000512353 -94411802 2138767377 -1574051356 1860792901 880494216
REM
CELL 1.54180   50.00000   50.00000   50.00000   90.00000   90.00000   90.00000
LATT -1
SFAC C  
C      1  0.4824180000000  0.4024590000000  0.4924240000000 1.0
C      1  0.4702220000000  0.4683180000000  0.4201820000000 1.0
C      1  0.5102950000000  0.4534050000000  0.4872380000000 1.0
C      1  0.5396770000000  0.5807950000000  0.5081900000000 1.0
C      1  0.5490950000000  0.4283060000000  0.5021610000000 1.0
C      1  0.4994750000000  0.4464910000000  0.5132030000000 1.0
C      1  0.5504700000000  0.5661640000000  0.5290720000000 1.0
C      1  0.5309530000000  0.5581420000000  0.4399850000000 1.0
C      1  0.4558080000000  0.4762150000000  0.5798390000000 1.0
C      1  0.5216090000000  0.4947510000000  0.4096390000000 1.0
C      1  0.4655240000000  0.4692740000000  0.5352370000000 1.0
C      1  0.5481240000000  0.5209360000000  0.5169360000000 1.0
C      1  0.5090170000000  0.4064260000000  0.4818700000000 1.0
C      1  0.4426530000000  0.4970440000000  0.5656210000000 1.0
C      1  0.5120170000000  0.5089930000000  0.5453760000000 1.0
C      1  0.5116750000000  0.4273080000000  0.4617930000000 1.0
C      1  0.5759690000000  0.5283250000000  0.5611850000000 1.0
C      1  0.5077790000000  0.4957060000000  0.5906880000000 1.0
C      1  0.5540300000000  0.4943030000000  0.5308960000000 1.0
C      1  0.4409320000000  0.5707350000000  0.4899020000000 1.0
C      1  0.4722810000000  0.4945060000000  0.4095310000000 1.0
C      1  0.4476280000000  0.4680250000000  0.4384290000000 1.0
C      1  0.5044870000000  0.4171520000000  0.5213640000000 1.0
C      1  0.4205440000000  0.5022600000000  0.5497600000000 1.0
C      1  0.5451590000000  0.5728120000000  0.4815150000000 1.0
C      1  0.4537550000000  0.5103910000000  0.4238190000000 1.0
C      1  0.5285970000000  0.5557780000000  0.5497690000000 1.0
C      1  0.5671300000000  0.4727470000000  0.5158770000000 1.0
C      1  0.4424580000000  0.4298770000000  0.5511170000000 1.0
C      1  0.4435260000000  0.4948880000000  0.4455000000000 1.0
C      1  0.4552160000000  0.4190310000000  0.5283590000000 1.0
C      1  0.5228040000000  0.5415010000000  0.4180960000000 1.0
C      1  0.5414410000000  0.4582390000000  0.4363470000000 1.0
C      1  0.4527000000000  0.5440670000000  0.4539830000000 1.0
C      1  0.5814120000000  0.5088300000000  0.4777360000000 1.0
C      1  0.4881810000000  0.4630140000000  0.5539430000000 1.0
C      1  0.5341310000000  0.5130500000000  0.4895750000000 1.0
C      1  0.4975310000000  0.5357010000000  0.4058940000000 1.0
C      1  0.5387600000000  0.5176430000000  0.4169170000000 1.0
C      1  0.4197950000000  0.5349950000000  0.4897370000000 1.0
C      1  0.4571290000000  0.5674990000000  0.5451360000000 1.0
C      1  0.5111710000000  0.4982610000000  0.5037280000000 1.0
C      1  0.5374670000000  0.4587780000000  0.5713580000000 1.0
C      1  0.4853410000000  0.4836690000000  0.5757390000000 1.0
C      1  0.5071980000000  0.4960240000000  0.4582440000000 1.0
C      1  0.5681140000000  0.5002490000000  0.5569820000000 1.0
C      1  0.5266200000000  0.4108670000000  0.5040030000000 1.0
C      1  0.5215740000000  0.4876280000000  0.5299360000000 1.0
C      1  0.4223150000000  0.4793360000000  0.5029040000000 1.0
C      1  0.4847820000000  0.5337010000000  0.5739250000000 1.0
C      1  0.4894960000000  0.4340630000000  0.4442500000000 1.0
C      1  0.5849370000000  0.5438360000000  0.5420680000000 1.0
C      1  0.4316830000000  0.5544330000000  0.5366960000000 1.0
C      1  0.5193940000000  0.5650280000000  0.4686580000000 1.0
C      1  0.4698760000000  0.5695260000000  0.4973660000000 1.0
C      1  0.4842510000000  0.5086400000000  0.5566490000000 1.0
C      1  0.4971850000000  0.5794870000000  0.4847900000000 1.0
C      1  0.4746650000000  0.5501010000000  0.4095020000000 1.0
C      1  0.5784110000000  0.5366380000000  0.4883960000000 1.0
C      1  0.5088540000000  0.5270190000000  0.5882730000000 1.0
C      1  0.4528280000000  0.5003200000000  0.4736240000000 1.0
C      1  0.4313460000000  0.5521170000000  0.4691440000000 1.0
C      1  0.4423010000000  0.4504690000000  0.4596480000000 1.0
C      1  0.4690630000000  0.5257970000000  0.4722130000000 1.0
C      1  0.4326810000000  0.5067920000000  0.4949440000000 1.0
C      1  0.4290110000000  0.5270740000000  0.5379030000000 1.0
C      1  0.5121330000000  0.5893540000000  0.5071300000000 1.0
C      1  0.4569030000000  0.5386250000000  0.4265010000000 1.0
C      1  0.4623380000000  0.4985820000000  0.5394830000000 1.0
C      1  0.5695140000000  0.4630650000000  0.4726040000000 1.0
C      1  0.5382180000000  0.4483460000000  0.5467630000000 1.0
C      1  0.5143200000000  0.5353480000000  0.4805670000000 1.0
C      1  0.5577490000000  0.5490300000000  0.4452910000000 1.0
C      1  0.5623540000000  0.5236890000000  0.4332390000000 1.0
C      1  0.4635030000000  0.4310640000000  0.4571320000000 1.0
C      1  0.5560310000000  0.5277860000000  0.5828570000000 1.0
C      1  0.4438550000000  0.4510780000000  0.5714670000000 1.0
C      1  0.4345690000000  0.4571720000000  0.5438700000000 1.0
C      1  0.4624830000000  0.4181720000000  0.4815630000000 1.0
C      1  0.4995540000000  0.4797920000000  0.4814880000000 1.0
C      1  0.5356120000000  0.4981400000000  0.4643480000000 1.0
C      1  0.4512400000000  0.5171210000000  0.5181670000000 1.0
C      1  0.4795990000000  0.5590180000000  0.5619830000000 1.0
C      1  0.5317420000000  0.5409220000000  0.5774990000000 1.0
C      1  0.5781670000000  0.4821230000000  0.4914420000000 1.0
C      1  0.4246890000000  0.5573170000000  0.5092710000000 1.0
C      1  0.4940220000000  0.4535440000000  0.4241460000000 1.0
C      1  0.5558830000000  0.4468010000000  0.5228780000000 1.0
C      1  0.5118870000000  0.4599690000000  0.5368870000000 1.0
C      1  0.4715920000000  0.4774130000000  0.4863100000000 1.0
C      1  0.5383190000000  0.4359350000000  0.4537510000000 1.0
C      1  0.5202150000000  0.4670290000000  0.4195920000000 1.0
C      1  0.4701400000000  0.5818230000000  0.5244280000000 1.0
C      1  0.5214560000000  0.5320750000000  0.5305960000000 1.0
C      1  0.4321430000000  0.4552930000000  0.4873490000000 1.0
C      1  0.5041960000000  0.5722050000000  0.5525530000000 1.0
C      1  0.5729410000000  0.5038950000000  0.4505080000000 1.0
C      1  0.5009860000000  0.5294450000000  0.5075680000000 1.0
C      1  0.5696550000000  0.5429290000000  0.5176150000000 1.0
C      1  0.4959640000000  0.5217210000000  0.4620040000000 1.0
C      1  0.5583430000000  0.4778350000000  0.4509050000000 1.0
C      1  0.4709280000000  0.4579850000000  0.5093150000000 1.0
C      1  0.4718380000000  0.5351530000000  0.5021600000000 1.0
C      1  0.4183780000000  0.4779000000000  0.5316690000000 1.0
C      1  0.4792680000000  0.4043910000000  0.5213660000000 1.0
C      1  0.5662130000000  0.5558370000000  0.4714660000000 1.0
C      1  0.4968650000000  0.5881440000000  0.5307700000000 1.0
C      1  0.4967140000000  0.5067810000000  0.4025560000000 1.0
C      1  0.5562970000000  0.4383520000000  0.4760550000000 1.0
C      1  0.5327290000000  0.4816330000000  0.5859150000000 1.0
C      1  0.4506340000000  0.4353880000000  0.5019180000000 1.0
C      1  0.5548480000000  0.4988300000000  0.5822730000000 1.0
END
