TITL C-38740-3213-7 0.195802594162144 125000 -799.733451587451 0 0 114 (C1) n - 1
REM
REM in /rds/project/t2_vol4/rds-t2-cs072/BORA/CARBON/from-Arr/AIRSS/Generating-Clusters/GAP-ML-2020/Only-C1/SD-CG/HFTN-CG
REM
REM
REM
REM
REM
REM ./C.cell (11c1c37f851c82e70ff6c80c92926a4b)
REM AIRSS Version 0.9.1 bugfix July 2018 build 013d7b7c2542+ Fri, 06 Jul 2018 19:26:36 +0100
REM compiler GCC version 9.3.0
REM options -cpp -mtune=generic -march=x86-64 -g -O0
REM seed 1165953217 -582333842 -1039597821 -744377984 382621397 -2032600814 418264976 956719941 470216762 -1275529974 -2086067857 -1086924634 -1130739704 70105079 -37179959 830368643 -14386208 512927982 -925510009 -352983017 -1217619724 -256116003 752223807 35884026 -747763677 1470283973 1712548029 -544188602 976508967 1261163258 355367162 -375752626 -1494592158
REM
CELL 1.54180   50.00000   50.00000   50.00000   90.00000   90.00000   90.00000
LATT -1
SFAC C  
C      1  0.5573220000000  0.4618200000000  0.4329140000000 1.0
C      1  0.4634430000000  0.5940480000000  0.5008610000000 1.0
C      1  0.4600360000000  0.5687580000000  0.4590820000000 1.0
C      1  0.5082780000000  0.5991080000000  0.4944830000000 1.0
C      1  0.5452580000000  0.4997470000000  0.4190270000000 1.0
C      1  0.5491350000000  0.5729670000000  0.5147050000000 1.0
C      1  0.5077180000000  0.4656140000000  0.5132050000000 1.0
C      1  0.5441510000000  0.5475530000000  0.4619410000000 1.0
C      1  0.3935720000000  0.4770030000000  0.4870110000000 1.0
C      1  0.4691630000000  0.5519000000000  0.5681360000000 1.0
C      1  0.5283350000000  0.4358720000000  0.5527120000000 1.0
C      1  0.4443270000000  0.4535800000000  0.4570000000000 1.0
C      1  0.4647300000000  0.4506570000000  0.4355490000000 1.0
C      1  0.5013740000000  0.4266620000000  0.4670920000000 1.0
C      1  0.5730450000000  0.4504090000000  0.4763910000000 1.0
C      1  0.4405400000000  0.5438320000000  0.5016390000000 1.0
C      1  0.4842930000000  0.5554840000000  0.4459710000000 1.0
C      1  0.4649590000000  0.5228680000000  0.4919310000000 1.0
C      1  0.5253620000000  0.5255290000000  0.4535750000000 1.0
C      1  0.5294680000000  0.4195280000000  0.5286320000000 1.0
C      1  0.5199600000000  0.4495440000000  0.4697730000000 1.0
C      1  0.5011730000000  0.4344810000000  0.5610090000000 1.0
C      1  0.5428020000000  0.4855200000000  0.4904570000000 1.0
C      1  0.5096930000000  0.4721990000000  0.4261070000000 1.0
C      1  0.4399090000000  0.5542560000000  0.4703180000000 1.0
C      1  0.4652280000000  0.4753320000000  0.4207940000000 1.0
C      1  0.5358490000000  0.4726020000000  0.4163350000000 1.0
C      1  0.4628610000000  0.4320530000000  0.4937590000000 1.0
C      1  0.4573650000000  0.5297960000000  0.5506710000000 1.0
C      1  0.5886360000000  0.4742350000000  0.4759440000000 1.0
C      1  0.4998960000000  0.5383470000000  0.5161750000000 1.0
C      1  0.5058810000000  0.4980050000000  0.5889770000000 1.0
C      1  0.5382230000000  0.5318180000000  0.5799260000000 1.0
C      1  0.5426250000000  0.4092730000000  0.4846060000000 1.0
C      1  0.4071160000000  0.5103380000000  0.5209520000000 1.0
C      1  0.4440410000000  0.4917930000000  0.4309460000000 1.0
C      1  0.5203520000000  0.5022430000000  0.4963130000000 1.0
C      1  0.4583760000000  0.4588940000000  0.5544480000000 1.0
C      1  0.5217300000000  0.5198620000000  0.5187120000000 1.0
C      1  0.5637600000000  0.4905830000000  0.5098770000000 1.0
C      1  0.5106150000000  0.4753300000000  0.4566740000000 1.0
C      1  0.4603300000000  0.4292550000000  0.5440460000000 1.0
C      1  0.4900280000000  0.4199000000000  0.4935880000000 1.0
C      1  0.4272030000000  0.4762660000000  0.4484260000000 1.0
C      1  0.5331910000000  0.5845550000000  0.4929880000000 1.0
C      1  0.4966130000000  0.5331300000000  0.4634540000000 1.0
C      1  0.4168530000000  0.5263170000000  0.4999920000000 1.0
C      1  0.4832420000000  0.4822470000000  0.5813630000000 1.0
C      1  0.4488410000000  0.5523500000000  0.5303080000000 1.0
C      1  0.5310360000000  0.5714090000000  0.4667890000000 1.0
C      1  0.4188860000000  0.4993530000000  0.5457150000000 1.0
C      1  0.4656360000000  0.5709140000000  0.5470960000000 1.0
C      1  0.4760880000000  0.5340640000000  0.4261920000000 1.0
C      1  0.5496240000000  0.5055820000000  0.5789600000000 1.0
C      1  0.5678250000000  0.4892290000000  0.4353040000000 1.0
C      1  0.5061070000000  0.5765680000000  0.4531780000000 1.0
C      1  0.4896380000000  0.4880950000000  0.4138660000000 1.0
C      1  0.4405410000000  0.4622440000000  0.5277060000000 1.0
C      1  0.5831570000000  0.4963820000000  0.4582140000000 1.0
C      1  0.5021630000000  0.4139790000000  0.5193640000000 1.0
C      1  0.4090190000000  0.4890280000000  0.4669770000000 1.0
C      1  0.5512850000000  0.5481630000000  0.5586470000000 1.0
C      1  0.5351760000000  0.4242960000000  0.4625320000000 1.0
C      1  0.5616840000000  0.4451330000000  0.5034570000000 1.0
C      1  0.4488750000000  0.4349170000000  0.5194690000000 1.0
C      1  0.5827460000000  0.5200870000000  0.4753530000000 1.0
C      1  0.5702990000000  0.5299430000000  0.5466170000000 1.0
C      1  0.5624550000000  0.4766000000000  0.5457480000000 1.0
C      1  0.4862680000000  0.4182700000000  0.5432800000000 1.0
C      1  0.5101480000000  0.4752970000000  0.5410230000000 1.0
C      1  0.4938430000000  0.5504100000000  0.5834690000000 1.0
C      1  0.4153550000000  0.5165390000000  0.4729260000000 1.0
C      1  0.5108870000000  0.5275320000000  0.5885950000000 1.0
C      1  0.4744460000000  0.5107220000000  0.4651690000000 1.0
C      1  0.4890190000000  0.5870430000000  0.5411450000000 1.0
C      1  0.5149350000000  0.5803190000000  0.5545650000000 1.0
C      1  0.4888930000000  0.5414830000000  0.4914550000000 1.0
C      1  0.5508520000000  0.4182450000000  0.5090030000000 1.0
C      1  0.4847530000000  0.4824990000000  0.4715430000000 1.0
C      1  0.4517660000000  0.4788510000000  0.5055530000000 1.0
C      1  0.4556790000000  0.4833290000000  0.5722900000000 1.0
C      1  0.4962600000000  0.5158910000000  0.4163260000000 1.0
C      1  0.5558330000000  0.4438730000000  0.4546650000000 1.0
C      1  0.5312230000000  0.4847410000000  0.5812450000000 1.0
C      1  0.5677690000000  0.5441050000000  0.4770340000000 1.0
C      1  0.4469400000000  0.4245870000000  0.4684260000000 1.0
C      1  0.4948460000000  0.5962830000000  0.4693360000000 1.0
C      1  0.4533130000000  0.5184790000000  0.4400100000000 1.0
C      1  0.4140280000000  0.4726350000000  0.5348220000000 1.0
C      1  0.5361130000000  0.4662550000000  0.5567240000000 1.0
C      1  0.4887330000000  0.4621030000000  0.5600320000000 1.0
C      1  0.4808960000000  0.4266120000000  0.4452870000000 1.0
C      1  0.5679550000000  0.5540220000000  0.5045490000000 1.0
C      1  0.5314720000000  0.4586150000000  0.4959940000000 1.0
C      1  0.4614790000000  0.4636800000000  0.4816320000000 1.0
C      1  0.4595090000000  0.4082800000000  0.4514660000000 1.0
C      1  0.5739830000000  0.4654110000000  0.5212450000000 1.0
C      1  0.5244060000000  0.5188190000000  0.4246460000000 1.0
C      1  0.4410130000000  0.5061870000000  0.5611990000000 1.0
C      1  0.5805130000000  0.5345410000000  0.5205390000000 1.0
C      1  0.4870900000000  0.5978630000000  0.5150620000000 1.0
C      1  0.5884390000000  0.5128090000000  0.5024170000000 1.0
C      1  0.5287000000000  0.4976790000000  0.4671120000000 1.0
C      1  0.4673850000000  0.5916010000000  0.4736130000000 1.0
C      1  0.5406380000000  0.5705230000000  0.5433590000000 1.0
C      1  0.3987910000000  0.4834560000000  0.5121070000000 1.0
C      1  0.4320170000000  0.5317550000000  0.4556300000000 1.0
C      1  0.5913090000000  0.4834910000000  0.5027000000000 1.0
C      1  0.5085750000000  0.5048680000000  0.5403920000000 1.0
C      1  0.5676040000000  0.5029770000000  0.5576190000000 1.0
C      1  0.4946860000000  0.4868200000000  0.4987670000000 1.0
C      1  0.4817610000000  0.5170820000000  0.5340470000000 1.0
C      1  0.4706820000000  0.5007000000000  0.5112410000000 1.0
C      1  0.5100530000000  0.5732660000000  0.5807610000000 1.0
END
