TITL C-38722-3271-5 34.1384629459846 125000 -81.2464309921821 0 0 13 (C1) n - 1
REM
REM in /rds/project/t2_vol4/rds-t2-cs072/BORA/CARBON/from-Arr/AIRSS/Generating-Clusters/GAP-ML-2020/Only-C1/SD-CG/HFTN-CG
REM
REM
REM
REM
REM
REM ./C.cell (11c1c37f851c82e70ff6c80c92926a4b)
REM AIRSS Version 0.9.1 bugfix July 2018 build 013d7b7c2542+ Fri, 06 Jul 2018 19:26:36 +0100
REM compiler GCC version 9.3.0
REM options -cpp -mtune=generic -march=x86-64 -g -O0
REM seed -1314028369 557516793 1577128485 307690004 -342435102 377942306 834311222 268116184 -1072904987 266027306 -1736405123 612621864 -983692039 -1308520563 -26916562 1032786666 566468599 -249785105 -1590248567 1911236717 1565072846 1814609893 -1147746626 366466754 656034517 -1149221305 366137894 52378654 -395555723 513952489 -1427874291 190653933 -45940590
REM
CELL 1.54180   50.00000   50.00000   50.00000   90.00000   90.00000   90.00000
LATT -1
SFAC C  
C      1  0.4574630000000  0.5003180000000  0.4814110000000 1.0
C      1  0.5367170000000  0.5005920000000  0.5053840000000 1.0
C      1  0.5310170000000  0.4828450000000  0.4814270000000 1.0
C      1  0.5200270000000  0.4929350000000  0.4589500000000 1.0
C      1  0.5187000000000  0.5215740000000  0.5014100000000 1.0
C      1  0.5357890000000  0.4788460000000  0.5225380000000 1.0
C      1  0.5073950000000  0.5112170000000  0.4755330000000 1.0
C      1  0.4814460000000  0.5183870000000  0.5377630000000 1.0
C      1  0.5274930000000  0.4622240000000  0.4995410000000 1.0
C      1  0.4381720000000  0.4861480000000  0.4744570000000 1.0
C      1  0.4921160000000  0.5201270000000  0.5131550000000 1.0
C      1  0.4723120000000  0.5134700000000  0.5605300000000 1.0
C      1  0.4813540000000  0.5113170000000  0.4879000000000 1.0
END
