TITL C-38722-3271-9 -0.161004115117988 125000 -310.956073958948 0 0 47 (C1) n - 1
REM
REM in /rds/project/t2_vol4/rds-t2-cs072/BORA/CARBON/from-Arr/AIRSS/Generating-Clusters/GAP-ML-2020/Only-C1/SD-CG/HFTN-CG
REM
REM
REM
REM
REM
REM ./C.cell (11c1c37f851c82e70ff6c80c92926a4b)
REM AIRSS Version 0.9.1 bugfix July 2018 build 013d7b7c2542+ Fri, 06 Jul 2018 19:26:36 +0100
REM compiler GCC version 9.3.0
REM options -cpp -mtune=generic -march=x86-64 -g -O0
REM seed 1622877818 804417012 -1330372325 -1891829702 1682139183 -788207239 701309397 -286343009 -1709300538 -594586642 -2049230162 -181297980 -183948822 1155278866 -794972723 1205289806 274682969 -556690150 957680015 -625568998 -816151368 946300801 1714904088 -940801497 -1586135022 -1042898636 -1832720904 -40760614 755186938 -1661509203 1576365996 120768477 -925914803
REM
CELL 1.54180   50.00000   50.00000   50.00000   90.00000   90.00000   90.00000
LATT -1
SFAC C  
C      1  0.5436170000000  0.4623720000000  0.5270250000000 1.0
C      1  0.5693330000000  0.4957910000000  0.4702470000000 1.0
C      1  0.4674010000000  0.5446050000000  0.5156590000000 1.0
C      1  0.4985150000000  0.4848590000000  0.4657530000000 1.0
C      1  0.5157330000000  0.4667190000000  0.5161980000000 1.0
C      1  0.4666030000000  0.4830170000000  0.5554700000000 1.0
C      1  0.5530250000000  0.4864680000000  0.5352700000000 1.0
C      1  0.4714450000000  0.4455910000000  0.5226270000000 1.0
C      1  0.5805840000000  0.4830100000000  0.4905650000000 1.0
C      1  0.4462090000000  0.5328010000000  0.4995930000000 1.0
C      1  0.5014870000000  0.5349830000000  0.5548560000000 1.0
C      1  0.5257400000000  0.5339940000000  0.5404560000000 1.0
C      1  0.4645130000000  0.4900860000000  0.5100800000000 1.0
C      1  0.4950570000000  0.4865200000000  0.5612200000000 1.0
C      1  0.5167130000000  0.5575760000000  0.4945020000000 1.0
C      1  0.5009780000000  0.5201010000000  0.4965600000000 1.0
C      1  0.4927150000000  0.5135710000000  0.5718870000000 1.0
C      1  0.4769770000000  0.5289750000000  0.5374730000000 1.0
C      1  0.5599250000000  0.4781790000000  0.5083430000000 1.0
C      1  0.5199080000000  0.4449410000000  0.4623330000000 1.0
C      1  0.5060430000000  0.4891710000000  0.5340060000000 1.0
C      1  0.4767190000000  0.5235160000000  0.4545780000000 1.0
C      1  0.4436270000000  0.4914130000000  0.4684330000000 1.0
C      1  0.4607490000000  0.4688290000000  0.5319490000000 1.0
C      1  0.4455340000000  0.5481790000000  0.4770280000000 1.0
C      1  0.5304290000000  0.4819740000000  0.4947760000000 1.0
C      1  0.4793990000000  0.4739480000000  0.4900610000000 1.0
C      1  0.4600330000000  0.5006640000000  0.4476650000000 1.0
C      1  0.4963240000000  0.4392800000000  0.4730470000000 1.0
C      1  0.4718960000000  0.4505410000000  0.4555620000000 1.0
C      1  0.5354270000000  0.5438210000000  0.4747130000000 1.0
C      1  0.4660670000000  0.5116970000000  0.5592070000000 1.0
C      1  0.5294580000000  0.5102680000000  0.5035610000000 1.0
C      1  0.5307940000000  0.5061010000000  0.5329030000000 1.0
C      1  0.5471890000000  0.5334140000000  0.4986450000000 1.0
C      1  0.4784160000000  0.4761340000000  0.4439120000000 1.0
C      1  0.5012060000000  0.5133160000000  0.4668110000000 1.0
C      1  0.4453310000000  0.5046270000000  0.4942490000000 1.0
C      1  0.4932890000000  0.4504000000000  0.5030510000000 1.0
C      1  0.5448170000000  0.4970070000000  0.4585990000000 1.0
C      1  0.5256230000000  0.4735570000000  0.4669240000000 1.0
C      1  0.4556010000000  0.4641690000000  0.4737430000000 1.0
C      1  0.5288160000000  0.5214030000000  0.4589690000000 1.0
C      1  0.5329640000000  0.5506400000000  0.5181560000000 1.0
C      1  0.4865070000000  0.5068010000000  0.5191630000000 1.0
C      1  0.4897270000000  0.5482390000000  0.4948430000000 1.0
C      1  0.4715390000000  0.5467330000000  0.4693280000000 1.0
END
