TITL C-38602-1021-9 -0.121453274050139 125000 -192.700516508525 0 0 29 (C1) n - 1
REM
REM in /rds/project/t2_vol4/rds-t2-cs072/BORA/CARBON/from-Arr/AIRSS/Generating-Clusters/GAP-ML-2020/Only-C1/SD-CG/HFTN-CG
REM
REM
REM
REM
REM
REM ./C.cell (11c1c37f851c82e70ff6c80c92926a4b)
REM AIRSS Version 0.9.1 bugfix July 2018 build 013d7b7c2542+ Fri, 06 Jul 2018 19:26:36 +0100
REM compiler GCC version 9.3.0
REM options -cpp -mtune=generic -march=x86-64 -g -O0
REM seed 3592066 -1567730482 581726366 -2120758334 -365509525 -822799753 -1692183731 1896686787 -1713418402 -508148570 1218400043 417736013 -608399049 -151581975 -1249501049 -1953028240 -1540344111 636042790 2054447453 -1740542447 1495318892 -105715040 1946152343 -1624431892 -2069641870 1244570990 -2058773801 1960877925 -1315975636 1445433620 1523979331 593910605 -1775525638
REM
CELL 1.54180   50.00000   50.00000   50.00000   90.00000   90.00000   90.00000
LATT -1
SFAC C  
C      1  0.5077800000000  0.4407820000000  0.4880490000000 1.0
C      1  0.4873190000000  0.4782870000000  0.4550820000000 1.0
C      1  0.5032060000000  0.5565880000000  0.5294610000000 1.0
C      1  0.4872330000000  0.5651950000000  0.4774660000000 1.0
C      1  0.4711020000000  0.5242360000000  0.4488260000000 1.0
C      1  0.5114070000000  0.5191990000000  0.4744100000000 1.0
C      1  0.5272390000000  0.4632100000000  0.5278130000000 1.0
C      1  0.4680070000000  0.4603250000000  0.4674460000000 1.0
C      1  0.5493030000000  0.4660170000000  0.5101670000000 1.0
C      1  0.4843680000000  0.5479480000000  0.5506950000000 1.0
C      1  0.5196670000000  0.5341300000000  0.5364560000000 1.0
C      1  0.5390890000000  0.4789480000000  0.4880990000000 1.0
C      1  0.5296450000000  0.5060280000000  0.4927170000000 1.0
C      1  0.5282430000000  0.5118350000000  0.5217920000000 1.0
C      1  0.5233990000000  0.4596760000000  0.4721950000000 1.0
C      1  0.4654260000000  0.5682430000000  0.4615450000000 1.0
C      1  0.4753890000000  0.4807540000000  0.5533090000000 1.0
C      1  0.4904950000000  0.5074900000000  0.4573760000000 1.0
C      1  0.5080200000000  0.5463660000000  0.4811340000000 1.0
C      1  0.5204820000000  0.4891420000000  0.5381700000000 1.0
C      1  0.5013570000000  0.5629850000000  0.5024970000000 1.0
C      1  0.5082690000000  0.4443390000000  0.5168370000000 1.0
C      1  0.4997310000000  0.5253580000000  0.5559840000000 1.0
C      1  0.4681510000000  0.4623110000000  0.5370400000000 1.0
C      1  0.4791780000000  0.4466600000000  0.5178580000000 1.0
C      1  0.4785780000000  0.4455060000000  0.4875330000000 1.0
C      1  0.4982750000000  0.4967670000000  0.5544130000000 1.0
C      1  0.4585310000000  0.5463240000000  0.4471790000000 1.0
C      1  0.5111110000000  0.4653530000000  0.4484520000000 1.0
END
