TITL C-38720-3215-9 108.137570643078 125000 -452.187270298557 0 0 67 (C1) n - 1
REM
REM in /rds/project/t2_vol4/rds-t2-cs072/BORA/CARBON/from-Arr/AIRSS/Generating-Clusters/GAP-ML-2020/Only-C1/SD-CG/HFTN-CG
REM
REM
REM
REM
REM
REM ./C.cell (11c1c37f851c82e70ff6c80c92926a4b)
REM AIRSS Version 0.9.1 bugfix July 2018 build 013d7b7c2542+ Fri, 06 Jul 2018 19:26:36 +0100
REM compiler GCC version 9.3.0
REM options -cpp -mtune=generic -march=x86-64 -g -O0
REM seed 482207622 -2094354013 1643486529 330292193 -321656945 72115779 -1466290561 -698251661 2130807521 418602869 1208885338 -1230696024 -1167272796 -991621467 -1203943403 -1112596233 -2021317214 1799271977 1729203448 -1128604997 -2044001049 -3649684 -922602242 -1628740984 1362377430 -929512900 -1708711572 155327082 547342187 -1339270451 746506242 -888675584 -1003686390
REM
CELL 1.54180   50.00000   50.00000   50.00000   90.00000   90.00000   90.00000
LATT -1
SFAC C  
C      1  0.5646100000000  0.4950430000000  0.5256370000000 1.0
C      1  0.4783930000000  0.4242090000000  0.4974080000000 1.0
C      1  0.5594360000000  0.4596350000000  0.5000190000000 1.0
C      1  0.4957520000000  0.5001400000000  0.4231660000000 1.0
C      1  0.4667600000000  0.5312850000000  0.5353510000000 1.0
C      1  0.5520430000000  0.5134900000000  0.4807720000000 1.0
C      1  0.5386630000000  0.5585060000000  0.4717830000000 1.0
C      1  0.4622510000000  0.4366580000000  0.5169100000000 1.0
C      1  0.5046060000000  0.5245850000000  0.5656130000000 1.0
C      1  0.4471550000000  0.5280600000000  0.4572410000000 1.0
C      1  0.4285810000000  0.4889730000000  0.5106460000000 1.0
C      1  0.5048130000000  0.5741020000000  0.5087260000000 1.0
C      1  0.4827850000000  0.4598950000000  0.5844810000000 1.0
C      1  0.4890870000000  0.5427390000000  0.5481530000000 1.0
C      1  0.5044090000000  0.4981290000000  0.5258660000000 1.0
C      1  0.4941730000000  0.5213370000000  0.4881370000000 1.0
C      1  0.4560630000000  0.5523950000000  0.4674360000000 1.0
C      1  0.5457450000000  0.4639240000000  0.5487670000000 1.0
C      1  0.5266570000000  0.5441480000000  0.4517870000000 1.0
C      1  0.5367770000000  0.5549150000000  0.5369740000000 1.0
C      1  0.5301130000000  0.5727140000000  0.4952090000000 1.0
C      1  0.4431510000000  0.5086940000000  0.4791880000000 1.0
C      1  0.4831060000000  0.5706620000000  0.4912220000000 1.0
C      1  0.5103730000000  0.4509370000000  0.5194210000000 1.0
C      1  0.4470130000000  0.4838320000000  0.5299620000000 1.0
C      1  0.5654040000000  0.4658440000000  0.5286850000000 1.0
C      1  0.5196780000000  0.4793260000000  0.5058360000000 1.0
C      1  0.5264560000000  0.5359550000000  0.5768640000000 1.0
C      1  0.4305350000000  0.5181770000000  0.5038870000000 1.0
C      1  0.5441340000000  0.5347740000000  0.5552980000000 1.0
C      1  0.4816670000000  0.4580790000000  0.5142340000000 1.0
C      1  0.4708450000000  0.4582580000000  0.5616600000000 1.0
C      1  0.5157850000000  0.4801300000000  0.4288910000000 1.0
C      1  0.4612610000000  0.5200550000000  0.4345430000000 1.0
C      1  0.5075890000000  0.4256930000000  0.5030900000000 1.0
C      1  0.5345010000000  0.5147330000000  0.4555290000000 1.0
C      1  0.4360840000000  0.4798070000000  0.4833100000000 1.0
C      1  0.5063420000000  0.5057330000000  0.4678980000000 1.0
C      1  0.4566240000000  0.4573510000000  0.5369170000000 1.0
C      1  0.4676400000000  0.4920930000000  0.4297560000000 1.0
C      1  0.4759130000000  0.4336370000000  0.4711400000000 1.0
C      1  0.4582940000000  0.4612870000000  0.4695370000000 1.0
C      1  0.4711780000000  0.5030070000000  0.4947260000000 1.0
C      1  0.5097170000000  0.5228380000000  0.5117720000000 1.0
C      1  0.4787970000000  0.4746030000000  0.4896220000000 1.0
C      1  0.5111540000000  0.4957080000000  0.5563420000000 1.0
C      1  0.4471570000000  0.5394210000000  0.5156560000000 1.0
C      1  0.4707010000000  0.5030330000000  0.5264860000000 1.0
C      1  0.5016930000000  0.4683720000000  0.5643820000000 1.0
C      1  0.5080500000000  0.5624560000000  0.5351980000000 1.0
C      1  0.5574160000000  0.5096080000000  0.5497500000000 1.0
C      1  0.5030540000000  0.4364760000000  0.4595820000000 1.0
C      1  0.5094320000000  0.4628360000000  0.4516990000000 1.0
C      1  0.5239220000000  0.4276270000000  0.4798210000000 1.0
C      1  0.5494570000000  0.4391250000000  0.4860130000000 1.0
C      1  0.4607860000000  0.4705880000000  0.4433200000000 1.0
C      1  0.5201120000000  0.4523630000000  0.5470320000000 1.0
C      1  0.5499680000000  0.4906360000000  0.4996660000000 1.0
C      1  0.4885360000000  0.5283360000000  0.4285990000000 1.0
C      1  0.5059270000000  0.4785280000000  0.4781480000000 1.0
C      1  0.5405820000000  0.4892420000000  0.5599900000000 1.0
C      1  0.5560240000000  0.5404390000000  0.4891750000000 1.0
C      1  0.4574760000000  0.5575460000000  0.4957200000000 1.0
C      1  0.5488290000000  0.5572330000000  0.5116980000000 1.0
C      1  0.4999430000000  0.5493380000000  0.4437800000000 1.0
C      1  0.5360410000000  0.4978080000000  0.4324500000000 1.0
C      1  0.4827810000000  0.5628940000000  0.4624230000000 1.0
END
