TITL C-38718-3187-7 5.00979186974381 125000 -481.243395847304 0 0 70 (C1) n - 1
REM
REM in /rds/project/t2_vol4/rds-t2-cs072/BORA/CARBON/from-Arr/AIRSS/Generating-Clusters/GAP-ML-2020/Only-C1/SD-CG/HFTN-CG
REM
REM
REM
REM
REM
REM ./C.cell (11c1c37f851c82e70ff6c80c92926a4b)
REM AIRSS Version 0.9.1 bugfix July 2018 build 013d7b7c2542+ Fri, 06 Jul 2018 19:26:36 +0100
REM compiler GCC version 9.3.0
REM options -cpp -mtune=generic -march=x86-64 -g -O0
REM seed 665070508 -17473448 1617884269 916996133 1909200470 2060510257 885116200 1716093013 811553144 -1119228013 -161487360 -181876280 473966598 -635738481 -1279045378 -1006191640 -1774327066 747312832 -1018617942 -688856904 -1665327155 -765020276 -386171379 1325316722 -215526950 1260933724 -1101650894 -489836619 1515690046 1579658371 -782658741 583597581 565190129
REM
CELL 1.54180   50.00000   50.00000   50.00000   90.00000   90.00000   90.00000
LATT -1
SFAC C  
C      1  0.4259570000000  0.4965940000000  0.4916190000000 1.0
C      1  0.5081070000000  0.5106450000000  0.5577670000000 1.0
C      1  0.4159590000000  0.4558790000000  0.5380970000000 1.0
C      1  0.5527760000000  0.5205100000000  0.5415690000000 1.0
C      1  0.5694490000000  0.5327610000000  0.4948730000000 1.0
C      1  0.5706870000000  0.5155260000000  0.5191840000000 1.0
C      1  0.5319060000000  0.4796260000000  0.5060310000000 1.0
C      1  0.5491590000000  0.5530440000000  0.4912270000000 1.0
C      1  0.4817960000000  0.5658330000000  0.5011450000000 1.0
C      1  0.5317710000000  0.5592140000000  0.5146990000000 1.0
C      1  0.4765720000000  0.5729270000000  0.5273630000000 1.0
C      1  0.4406390000000  0.5405110000000  0.4994580000000 1.0
C      1  0.4517500000000  0.4928880000000  0.4521500000000 1.0
C      1  0.5356350000000  0.5255990000000  0.4350440000000 1.0
C      1  0.4678100000000  0.5056940000000  0.5228390000000 1.0
C      1  0.5360350000000  0.5028000000000  0.5562390000000 1.0
C      1  0.5768420000000  0.4888040000000  0.5105750000000 1.0
C      1  0.4791680000000  0.4897150000000  0.4426190000000 1.0
C      1  0.4273390000000  0.4809540000000  0.5386580000000 1.0
C      1  0.5284920000000  0.5055300000000  0.4967930000000 1.0
C      1  0.4979520000000  0.4672410000000  0.4359550000000 1.0
C      1  0.4941130000000  0.4426790000000  0.4513680000000 1.0
C      1  0.4900990000000  0.4936040000000  0.5711970000000 1.0
C      1  0.4465580000000  0.5207160000000  0.4572720000000 1.0
C      1  0.4703220000000  0.4403650000000  0.4649470000000 1.0
C      1  0.5570000000000  0.4500640000000  0.4891450000000 1.0
C      1  0.5452000000000  0.4833330000000  0.4512130000000 1.0
C      1  0.5438570000000  0.4559210000000  0.5398050000000 1.0
C      1  0.5138930000000  0.4564010000000  0.5044440000000 1.0
C      1  0.4567790000000  0.4823350000000  0.5419290000000 1.0
C      1  0.4945090000000  0.4916720000000  0.4702560000000 1.0
C      1  0.4940810000000  0.5669400000000  0.5478820000000 1.0
C      1  0.4845000000000  0.4988480000000  0.4970540000000 1.0
C      1  0.4957830000000  0.4499410000000  0.5468120000000 1.0
C      1  0.5189560000000  0.4447640000000  0.5314030000000 1.0
C      1  0.5301200000000  0.4401130000000  0.4844570000000 1.0
C      1  0.4305320000000  0.5222730000000  0.4805140000000 1.0
C      1  0.4284140000000  0.4376750000000  0.5249760000000 1.0
C      1  0.5338250000000  0.4745360000000  0.5592280000000 1.0
C      1  0.5404320000000  0.5460710000000  0.5394550000000 1.0
C      1  0.4239340000000  0.5017430000000  0.5203020000000 1.0
C      1  0.5730270000000  0.5151500000000  0.4717700000000 1.0
C      1  0.4403930000000  0.4775850000000  0.4745600000000 1.0
C      1  0.4933880000000  0.5207240000000  0.5343520000000 1.0
C      1  0.5647340000000  0.4686240000000  0.4686910000000 1.0
C      1  0.5793070000000  0.4894210000000  0.4820340000000 1.0
C      1  0.4881530000000  0.4699490000000  0.5049470000000 1.0
C      1  0.5226960000000  0.5661800000000  0.5431040000000 1.0
C      1  0.5269060000000  0.5544710000000  0.4730070000000 1.0
C      1  0.4632430000000  0.5006170000000  0.5637340000000 1.0
C      1  0.4522740000000  0.4507730000000  0.4821660000000 1.0
C      1  0.5584640000000  0.4658570000000  0.5154260000000 1.0
C      1  0.5188200000000  0.5459750000000  0.4474090000000 1.0
C      1  0.4911470000000  0.5134520000000  0.4287660000000 1.0
C      1  0.4556600000000  0.5281060000000  0.5537690000000 1.0
C      1  0.5079180000000  0.5517460000000  0.4967000000000 1.0
C      1  0.4664280000000  0.5417890000000  0.4588600000000 1.0
C      1  0.4615980000000  0.5545350000000  0.4849420000000 1.0
C      1  0.4724980000000  0.4581310000000  0.5291770000000 1.0
C      1  0.4429160000000  0.5243960000000  0.5254890000000 1.0
C      1  0.5236390000000  0.4798740000000  0.4307580000000 1.0
C      1  0.5053770000000  0.5202100000000  0.5062510000000 1.0
C      1  0.4802730000000  0.5423630000000  0.5500250000000 1.0
C      1  0.5180660000000  0.5065500000000  0.4235100000000 1.0
C      1  0.5220780000000  0.4953520000000  0.4716310000000 1.0
C      1  0.5185780000000  0.4338940000000  0.4615190000000 1.0
C      1  0.5561650000000  0.5112810000000  0.4491090000000 1.0
C      1  0.4526560000000  0.4430980000000  0.5118210000000 1.0
C      1  0.4902420000000  0.5383120000000  0.4431550000000 1.0
C      1  0.5046460000000  0.4692890000000  0.5657540000000 1.0
END
