TITL C-38725-3311-2 -187.75758985943 125000 -493.605443176293 0 0 72 (C1) n - 1
REM
REM in /rds/project/t2_vol4/rds-t2-cs072/BORA/CARBON/from-Arr/AIRSS/Generating-Clusters/GAP-ML-2020/Only-C1/SD-CG/HFTN-CG
REM
REM
REM
REM
REM
REM ./C.cell (11c1c37f851c82e70ff6c80c92926a4b)
REM AIRSS Version 0.9.1 bugfix July 2018 build 013d7b7c2542+ Fri, 06 Jul 2018 19:26:36 +0100
REM compiler GCC version 9.3.0
REM options -cpp -mtune=generic -march=x86-64 -g -O0
REM seed 1212334620 1256254197 -739365112 1425193082 114741898 2146826210 390877916 -394015107 334867562 -1041898001 1156238446 1866894657 -456037173 -693102498 1918680808 1307076310 -307267800 240255201 105059712 367099352 -210191628 -1252928286 17327809 879751250 1743851565 370561922 2066966219 430625852 722115344 743781268 1863315160 1717433958 -2109172374
REM
CELL 1.54180   50.00000   50.00000   50.00000   90.00000   90.00000   90.00000
LATT -1
SFAC C  
C      1  0.5245700000000  0.4914930000000  0.4673660000000 1.0
C      1  0.4737140000000  0.4986610000000  0.5094610000000 1.0
C      1  0.4646200000000  0.5642620000000  0.5162580000000 1.0
C      1  0.5046470000000  0.4335530000000  0.4476010000000 1.0
C      1  0.5211930000000  0.5190910000000  0.4793830000000 1.0
C      1  0.4581510000000  0.4491570000000  0.5202170000000 1.0
C      1  0.4450190000000  0.4799430000000  0.5510250000000 1.0
C      1  0.5630820000000  0.5253330000000  0.4555350000000 1.0
C      1  0.4335170000000  0.5303060000000  0.4907150000000 1.0
C      1  0.5430560000000  0.4774190000000  0.5535520000000 1.0
C      1  0.5103250000000  0.4678340000000  0.4261850000000 1.0
C      1  0.4556320000000  0.4745900000000  0.5762950000000 1.0
C      1  0.4821510000000  0.4443920000000  0.5362920000000 1.0
C      1  0.4751810000000  0.4946920000000  0.5829740000000 1.0
C      1  0.5406030000000  0.5320630000000  0.4378450000000 1.0
C      1  0.4520090000000  0.4614640000000  0.4733960000000 1.0
C      1  0.4433400000000  0.5259230000000  0.5362600000000 1.0
C      1  0.5277460000000  0.4385780000000  0.5272080000000 1.0
C      1  0.5007890000000  0.4309660000000  0.5201660000000 1.0
C      1  0.5033850000000  0.4901140000000  0.5455950000000 1.0
C      1  0.4818040000000  0.5083990000000  0.5567490000000 1.0
C      1  0.5691950000000  0.5169030000000  0.4830950000000 1.0
C      1  0.5582380000000  0.4850830000000  0.5313000000000 1.0
C      1  0.5145760000000  0.4934330000000  0.4389900000000 1.0
C      1  0.4985040000000  0.5320610000000  0.5161840000000 1.0
C      1  0.4934500000000  0.5275440000000  0.4699260000000 1.0
C      1  0.4275810000000  0.5163360000000  0.5142390000000 1.0
C      1  0.5278190000000  0.5058880000000  0.5537200000000 1.0
C      1  0.4894910000000  0.5351930000000  0.5474370000000 1.0
C      1  0.5275520000000  0.5744240000000  0.4937300000000 1.0
C      1  0.4666650000000  0.4978210000000  0.4409030000000 1.0
C      1  0.4781120000000  0.5242930000000  0.4962290000000 1.0
C      1  0.5198600000000  0.5145090000000  0.5086480000000 1.0
C      1  0.4860400000000  0.4534040000000  0.4372090000000 1.0
C      1  0.4908270000000  0.5764150000000  0.5137130000000 1.0
C      1  0.5671750000000  0.4881960000000  0.4858840000000 1.0
C      1  0.4447210000000  0.5124960000000  0.4474250000000 1.0
C      1  0.5106990000000  0.4277890000000  0.4746380000000 1.0
C      1  0.5458050000000  0.5117520000000  0.5301300000000 1.0
C      1  0.4374380000000  0.4673360000000  0.5275710000000 1.0
C      1  0.5277900000000  0.4477710000000  0.4369140000000 1.0
C      1  0.4976570000000  0.4616620000000  0.5555850000000 1.0
C      1  0.4656940000000  0.4685890000000  0.4489820000000 1.0
C      1  0.5337410000000  0.5541260000000  0.5389650000000 1.0
C      1  0.5379740000000  0.4367960000000  0.4803440000000 1.0
C      1  0.4641070000000  0.4434290000000  0.4929520000000 1.0
C      1  0.4909030000000  0.5136320000000  0.4432760000000 1.0
C      1  0.5459980000000  0.4454570000000  0.5059070000000 1.0
C      1  0.5461870000000  0.4522340000000  0.4575480000000 1.0
C      1  0.5183290000000  0.5193430000000  0.4287530000000 1.0
C      1  0.5018220000000  0.4896110000000  0.5125320000000 1.0
C      1  0.4616940000000  0.5475860000000  0.5386220000000 1.0
C      1  0.5518930000000  0.5510130000000  0.4554050000000 1.0
C      1  0.5624620000000  0.4699540000000  0.5080610000000 1.0
C      1  0.5107190000000  0.4753350000000  0.4893560000000 1.0
C      1  0.5520880000000  0.4792090000000  0.4637870000000 1.0
C      1  0.4333490000000  0.5090010000000  0.4710720000000 1.0
C      1  0.4587560000000  0.5024510000000  0.5403220000000 1.0
C      1  0.4759680000000  0.5562320000000  0.4683980000000 1.0
C      1  0.4272860000000  0.4865820000000  0.5090770000000 1.0
C      1  0.4328570000000  0.4817890000000  0.4822980000000 1.0
C      1  0.4576760000000  0.5481630000000  0.4917150000000 1.0
C      1  0.5550870000000  0.5390830000000  0.5266780000000 1.0
C      1  0.4823600000000  0.4675860000000  0.5807340000000 1.0
C      1  0.4834910000000  0.5820780000000  0.4630410000000 1.0
C      1  0.5176660000000  0.5362290000000  0.5549950000000 1.0
C      1  0.4903420000000  0.4292030000000  0.4939960000000 1.0
C      1  0.4997880000000  0.5795850000000  0.4853750000000 1.0
C      1  0.5261970000000  0.4547620000000  0.5506410000000 1.0
C      1  0.5192540000000  0.5713020000000  0.5216640000000 1.0
C      1  0.5629810000000  0.5407960000000  0.4992810000000 1.0
C      1  0.5496010000000  0.5603060000000  0.4826740000000 1.0
END
