TITL C-38597-1014-4 0.814151331032883 125000 -221.965977328159 0 0 34 (C1) n - 1
REM
REM in /rds/project/t2_vol4/rds-t2-cs072/BORA/CARBON/from-Arr/AIRSS/Generating-Clusters/GAP-ML-2020/Only-C1/SD-CG/HFTN-CG
REM
REM
REM
REM
REM
REM ./C.cell (11c1c37f851c82e70ff6c80c92926a4b)
REM AIRSS Version 0.9.1 bugfix July 2018 build 013d7b7c2542+ Fri, 06 Jul 2018 19:26:36 +0100
REM compiler GCC version 9.3.0
REM options -cpp -mtune=generic -march=x86-64 -g -O0
REM seed 322409323 974090069 -666295689 1176314378 1767862721 1306514520 -1610229119 1831409832 -178391897 -889674655 1467305862 -1907609472 -34553389 -1743750310 -942505172 -393789765 455825033 -2107448320 -383700897 1350874942 -2096737302 -1267237168 -953967327 1965383528 1543185243 1700425632 -860033075 -502099586 1820859838 -991551399 -1680515695 -1167905662 -1269635010
REM
CELL 1.54180   50.00000   50.00000   50.00000   90.00000   90.00000   90.00000
LATT -1
SFAC C  
C      1  0.5424960000000  0.4578000000000  0.5099980000000 1.0
C      1  0.5463570000000  0.5325210000000  0.5263560000000 1.0
C      1  0.4932250000000  0.5059540000000  0.5608890000000 1.0
C      1  0.4686310000000  0.4863950000000  0.5582190000000 1.0
C      1  0.5084440000000  0.5127050000000  0.4559640000000 1.0
C      1  0.4339260000000  0.4913150000000  0.4753280000000 1.0
C      1  0.5246630000000  0.4889300000000  0.4487310000000 1.0
C      1  0.5009830000000  0.4676090000000  0.4806780000000 1.0
C      1  0.4347750000000  0.5137290000000  0.4630040000000 1.0
C      1  0.5482390000000  0.5037350000000  0.4584960000000 1.0
C      1  0.5361100000000  0.4909630000000  0.5070070000000 1.0
C      1  0.4897440000000  0.5096930000000  0.5013880000000 1.0
C      1  0.5067460000000  0.4854950000000  0.5039830000000 1.0
C      1  0.5427210000000  0.5485400000000  0.4775780000000 1.0
C      1  0.4789310000000  0.5290650000000  0.5184880000000 1.0
C      1  0.4608400000000  0.5526440000000  0.4792850000000 1.0
C      1  0.4590990000000  0.5275490000000  0.4667470000000 1.0
C      1  0.5229700000000  0.4489530000000  0.5251440000000 1.0
C      1  0.5241060000000  0.4648160000000  0.4646700000000 1.0
C      1  0.4517180000000  0.5082030000000  0.5562750000000 1.0
C      1  0.5141650000000  0.4954610000000  0.5464890000000 1.0
C      1  0.4696110000000  0.5505320000000  0.5032410000000 1.0
C      1  0.4774780000000  0.4788970000000  0.4712510000000 1.0
C      1  0.5476380000000  0.5424550000000  0.5024230000000 1.0
C      1  0.5532550000000  0.4902320000000  0.4831050000000 1.0
C      1  0.4597300000000  0.4692270000000  0.5118680000000 1.0
C      1  0.4735460000000  0.4690020000000  0.5347020000000 1.0
C      1  0.5355160000000  0.5075520000000  0.5311110000000 1.0
C      1  0.5477230000000  0.4613030000000  0.4817310000000 1.0
C      1  0.4739690000000  0.5249110000000  0.5472210000000 1.0
C      1  0.5322920000000  0.5287680000000  0.4614350000000 1.0
C      1  0.4837210000000  0.5100010000000  0.4716160000000 1.0
C      1  0.5032720000000  0.4715830000000  0.5300270000000 1.0
C      1  0.4533580000000  0.4734620000000  0.4855540000000 1.0
END
