TITL C-38602-1021-6 0.0702174246528845 125000 -676.469426982749 0 0 98 (C1) n - 1
REM
REM in /rds/project/t2_vol4/rds-t2-cs072/BORA/CARBON/from-Arr/AIRSS/Generating-Clusters/GAP-ML-2020/Only-C1/SD-CG/HFTN-CG
REM
REM
REM
REM
REM
REM ./C.cell (11c1c37f851c82e70ff6c80c92926a4b)
REM AIRSS Version 0.9.1 bugfix July 2018 build 013d7b7c2542+ Fri, 06 Jul 2018 19:26:36 +0100
REM compiler GCC version 9.3.0
REM options -cpp -mtune=generic -march=x86-64 -g -O0
REM seed -405596188 238532208 -385029869 1795892353 -405604997 272997537 1583877543 1360056156 372545266 1580204123 1606653172 1554224725 1484550149 -1983285793 -156984671 -265876145 1987827597 1062414224 1491309231 -2080184257 946965374 1922329296 1376917439 1584046236 2100174001 -2034769068 -1077941149 650781041 -1554688824 880337954 -1883881701 -1425333250 -1564206039
REM
CELL 1.54180   50.00000   50.00000   50.00000   90.00000   90.00000   90.00000
LATT -1
SFAC C  
C      1  0.5151770000000  0.5157410000000  0.5410560000000 1.0
C      1  0.5041780000000  0.4165960000000  0.5004010000000 1.0
C      1  0.4716580000000  0.5279880000000  0.5052910000000 1.0
C      1  0.5035550000000  0.5812670000000  0.5029450000000 1.0
C      1  0.5714160000000  0.5039910000000  0.4826740000000 1.0
C      1  0.5133000000000  0.5232700000000  0.5122870000000 1.0
C      1  0.4952740000000  0.4119340000000  0.4754530000000 1.0
C      1  0.5411320000000  0.5667260000000  0.5331020000000 1.0
C      1  0.4533350000000  0.5177520000000  0.4823010000000 1.0
C      1  0.5104420000000  0.5679090000000  0.4789000000000 1.0
C      1  0.5363880000000  0.4336020000000  0.5363780000000 1.0
C      1  0.4200170000000  0.4519380000000  0.4788890000000 1.0
C      1  0.5061160000000  0.5558430000000  0.5617830000000 1.0
C      1  0.5600070000000  0.5646630000000  0.5119430000000 1.0
C      1  0.5527000000000  0.4722640000000  0.5579790000000 1.0
C      1  0.5069430000000  0.5333910000000  0.4315280000000 1.0
C      1  0.4883110000000  0.4851670000000  0.5229170000000 1.0
C      1  0.5666460000000  0.4854400000000  0.5089820000000 1.0
C      1  0.5568780000000  0.4511030000000  0.4705120000000 1.0
C      1  0.4663530000000  0.5274000000000  0.5361170000000 1.0
C      1  0.4237120000000  0.5194360000000  0.5218140000000 1.0
C      1  0.4633770000000  0.4692890000000  0.5753390000000 1.0
C      1  0.4252670000000  0.5325830000000  0.4472940000000 1.0
C      1  0.4361400000000  0.4823280000000  0.4420830000000 1.0
C      1  0.5278430000000  0.4611450000000  0.4696870000000 1.0
C      1  0.5358600000000  0.5493660000000  0.4719890000000 1.0
C      1  0.4585310000000  0.4643150000000  0.4394730000000 1.0
C      1  0.5870130000000  0.5255960000000  0.5179730000000 1.0
C      1  0.5317320000000  0.5337500000000  0.4454240000000 1.0
C      1  0.4534940000000  0.4327960000000  0.5121250000000 1.0
C      1  0.5311840000000  0.4303660000000  0.5077800000000 1.0
C      1  0.4843110000000  0.4864410000000  0.5845230000000 1.0
C      1  0.4394060000000  0.5393440000000  0.5359640000000 1.0
C      1  0.4367480000000  0.4931140000000  0.5173310000000 1.0
C      1  0.5375520000000  0.5202650000000  0.5621460000000 1.0
C      1  0.5589150000000  0.4514990000000  0.5397420000000 1.0
C      1  0.4831630000000  0.4321880000000  0.5164680000000 1.0
C      1  0.4259680000000  0.4767450000000  0.4686310000000 1.0
C      1  0.5651210000000  0.4667460000000  0.4486400000000 1.0
C      1  0.4918340000000  0.5079490000000  0.5019460000000 1.0
C      1  0.5019210000000  0.4861730000000  0.4162460000000 1.0
C      1  0.4982580000000  0.4411380000000  0.4348350000000 1.0
C      1  0.5203850000000  0.4908310000000  0.4679950000000 1.0
C      1  0.5703140000000  0.4561550000000  0.5146170000000 1.0
C      1  0.4428140000000  0.4387520000000  0.4859020000000 1.0
C      1  0.4741560000000  0.5870320000000  0.5399070000000 1.0
C      1  0.5918590000000  0.5250720000000  0.4892970000000 1.0
C      1  0.5466550000000  0.5250270000000  0.4915020000000 1.0
C      1  0.4636600000000  0.4471140000000  0.4644640000000 1.0
C      1  0.5183430000000  0.5823320000000  0.5271890000000 1.0
C      1  0.4169910000000  0.5392900000000  0.5021850000000 1.0
C      1  0.5247640000000  0.4474420000000  0.4421270000000 1.0
C      1  0.5143770000000  0.4866190000000  0.5370090000000 1.0
C      1  0.5588690000000  0.4386630000000  0.4953260000000 1.0
C      1  0.4274120000000  0.5321500000000  0.4768010000000 1.0
C      1  0.5441350000000  0.4622830000000  0.4281110000000 1.0
C      1  0.4654580000000  0.5136420000000  0.4313650000000 1.0
C      1  0.4751980000000  0.5850820000000  0.5122530000000 1.0
C      1  0.5393130000000  0.5051870000000  0.4447530000000 1.0
C      1  0.4463220000000  0.4891350000000  0.4881090000000 1.0
C      1  0.5621930000000  0.5638380000000  0.4811720000000 1.0
C      1  0.4445810000000  0.4456160000000  0.5362370000000 1.0
C      1  0.4336660000000  0.5592420000000  0.5149930000000 1.0
C      1  0.4914040000000  0.5141170000000  0.5802610000000 1.0
C      1  0.4314330000000  0.4708150000000  0.5378110000000 1.0
C      1  0.4737930000000  0.5171510000000  0.4594680000000 1.0
C      1  0.4653500000000  0.4455250000000  0.5573100000000 1.0
C      1  0.4915580000000  0.5120670000000  0.4184730000000 1.0
C      1  0.5612600000000  0.5367740000000  0.5152310000000 1.0
C      1  0.4469070000000  0.4838170000000  0.5580590000000 1.0
C      1  0.4523640000000  0.5740970000000  0.4997120000000 1.0
C      1  0.4371830000000  0.5101530000000  0.4331600000000 1.0
C      1  0.5338400000000  0.5504040000000  0.5569440000000 1.0
C      1  0.4866120000000  0.5418060000000  0.4490060000000 1.0
C      1  0.5301530000000  0.4859980000000  0.4229430000000 1.0
C      1  0.5330030000000  0.4816420000000  0.5122420000000 1.0
C      1  0.5204110000000  0.5101140000000  0.5839980000000 1.0
C      1  0.4906470000000  0.5304600000000  0.5556310000000 1.0
C      1  0.4367750000000  0.5549110000000  0.4582930000000 1.0
C      1  0.4989310000000  0.5795930000000  0.5489450000000 1.0
C      1  0.5596160000000  0.4998610000000  0.5540420000000 1.0
C      1  0.4895610000000  0.4613680000000  0.5050020000000 1.0
C      1  0.5270470000000  0.5042830000000  0.4951230000000 1.0
C      1  0.4858690000000  0.5643070000000  0.4648410000000 1.0
C      1  0.5754040000000  0.5028470000000  0.5304370000000 1.0
C      1  0.4888860000000  0.4348400000000  0.5460450000000 1.0
C      1  0.4841730000000  0.4275390000000  0.4562300000000 1.0
C      1  0.5192560000000  0.4579780000000  0.4982030000000 1.0
C      1  0.4730960000000  0.4719150000000  0.4817350000000 1.0
C      1  0.5134760000000  0.4826570000000  0.5858080000000 1.0
C      1  0.4621200000000  0.4976030000000  0.5351650000000 1.0
C      1  0.5238000000000  0.4681220000000  0.5631730000000 1.0
C      1  0.5653400000000  0.4944480000000  0.4555650000000 1.0
C      1  0.4838080000000  0.4636200000000  0.4248150000000 1.0
C      1  0.4579830000000  0.5677210000000  0.4726790000000 1.0
C      1  0.5155120000000  0.4407950000000  0.5538370000000 1.0
C      1  0.5840120000000  0.5483680000000  0.4769420000000 1.0
C      1  0.4907720000000  0.4952240000000  0.4726650000000 1.0
END
