TITL C-38740-3213-9 -112.119165997647 125000 -712.091150034555 0 0 103 (C1) n - 1
REM
REM in /rds/project/t2_vol4/rds-t2-cs072/BORA/CARBON/from-Arr/AIRSS/Generating-Clusters/GAP-ML-2020/Only-C1/SD-CG/HFTN-CG
REM
REM
REM
REM
REM
REM ./C.cell (11c1c37f851c82e70ff6c80c92926a4b)
REM AIRSS Version 0.9.1 bugfix July 2018 build 013d7b7c2542+ Fri, 06 Jul 2018 19:26:36 +0100
REM compiler GCC version 9.3.0
REM options -cpp -mtune=generic -march=x86-64 -g -O0
REM seed -715897256 -1547559644 -1122082483 179695330 -1856976336 -1420387545 -1268188852 837437193 -23396139 -1275580161 -987696435 -1859541838 1028108384 109664284 -1166760635 1235595088 -786369047 302942120 1877752776 -688592799 -1160064569 131933621 1614306697 -603989677 -1316353263 1156686849 -1228347553 2110123640 -1821196740 916470653 1569447415 340997172 -947197651
REM
CELL 1.54180   50.00000   50.00000   50.00000   90.00000   90.00000   90.00000
LATT -1
SFAC C  
C      1  0.5023980000000  0.5607570000000  0.4261820000000 1.0
C      1  0.4492850000000  0.5114590000000  0.4991550000000 1.0
C      1  0.5785660000000  0.5104360000000  0.4672380000000 1.0
C      1  0.5344360000000  0.5633560000000  0.4962310000000 1.0
C      1  0.4643380000000  0.5362770000000  0.5041370000000 1.0
C      1  0.4848900000000  0.4904080000000  0.4074890000000 1.0
C      1  0.5535900000000  0.5014660000000  0.5579610000000 1.0
C      1  0.4949880000000  0.4312930000000  0.4845240000000 1.0
C      1  0.5084340000000  0.5501390000000  0.5058140000000 1.0
C      1  0.4793450000000  0.5174910000000  0.4071720000000 1.0
C      1  0.5364000000000  0.4541400000000  0.5661850000000 1.0
C      1  0.5597280000000  0.5485390000000  0.4920980000000 1.0
C      1  0.4933360000000  0.4865330000000  0.4829450000000 1.0
C      1  0.5045630000000  0.5917060000000  0.4600540000000 1.0
C      1  0.4336810000000  0.4800920000000  0.5690440000000 1.0
C      1  0.5153460000000  0.4571680000000  0.4284040000000 1.0
C      1  0.4919160000000  0.5325140000000  0.4904270000000 1.0
C      1  0.4675970000000  0.4281170000000  0.4961280000000 1.0
C      1  0.5225320000000  0.5717970000000  0.4700090000000 1.0
C      1  0.4704610000000  0.4740260000000  0.4262740000000 1.0
C      1  0.4555500000000  0.5621760000000  0.4918460000000 1.0
C      1  0.5752950000000  0.4634500000000  0.5355100000000 1.0
C      1  0.5686610000000  0.5356420000000  0.5156230000000 1.0
C      1  0.5641520000000  0.5353110000000  0.4682440000000 1.0
C      1  0.5032880000000  0.5193570000000  0.5812400000000 1.0
C      1  0.4250450000000  0.4411190000000  0.4850980000000 1.0
C      1  0.4729240000000  0.5849050000000  0.5007660000000 1.0
C      1  0.5341180000000  0.5059520000000  0.4958090000000 1.0
C      1  0.5804780000000  0.5092230000000  0.5162380000000 1.0
C      1  0.4069000000000  0.5350150000000  0.5128560000000 1.0
C      1  0.5043180000000  0.4598740000000  0.4886610000000 1.0
C      1  0.4569020000000  0.4664800000000  0.5660970000000 1.0
C      1  0.4076310000000  0.5165600000000  0.4921220000000 1.0
C      1  0.4988060000000  0.5408070000000  0.5336500000000 1.0
C      1  0.4917330000000  0.4438160000000  0.5427490000000 1.0
C      1  0.4624440000000  0.4774320000000  0.5224150000000 1.0
C      1  0.5051920000000  0.4663190000000  0.5292890000000 1.0
C      1  0.4758100000000  0.5156530000000  0.5737040000000 1.0
C      1  0.5419500000000  0.4814430000000  0.4992190000000 1.0
C      1  0.4345650000000  0.4922320000000  0.5213650000000 1.0
C      1  0.5866730000000  0.4967480000000  0.4906970000000 1.0
C      1  0.4811690000000  0.4867120000000  0.5664080000000 1.0
C      1  0.4875510000000  0.4883140000000  0.5366730000000 1.0
C      1  0.5023260000000  0.5868780000000  0.4301990000000 1.0
C      1  0.5119220000000  0.5806360000000  0.5403590000000 1.0
C      1  0.4201640000000  0.5460160000000  0.5343130000000 1.0
C      1  0.4316090000000  0.5263720000000  0.5531680000000 1.0
C      1  0.4608480000000  0.5725630000000  0.5390630000000 1.0
C      1  0.4616340000000  0.5652470000000  0.4639200000000 1.0
C      1  0.4628720000000  0.4500580000000  0.5402460000000 1.0
C      1  0.5573740000000  0.4451470000000  0.5491130000000 1.0
C      1  0.4472910000000  0.5172830000000  0.4523640000000 1.0
C      1  0.5089550000000  0.5579080000000  0.5569010000000 1.0
C      1  0.5428690000000  0.5347850000000  0.4490510000000 1.0
C      1  0.5080220000000  0.4195570000000  0.5454020000000 1.0
C      1  0.4586580000000  0.5311130000000  0.5584030000000 1.0
C      1  0.4215600000000  0.4689840000000  0.4810470000000 1.0
C      1  0.5651330000000  0.4690560000000  0.4421860000000 1.0
C      1  0.5095140000000  0.4917040000000  0.5797120000000 1.0
C      1  0.5225930000000  0.5389800000000  0.5726900000000 1.0
C      1  0.4836590000000  0.5868960000000  0.5275940000000 1.0
C      1  0.4598200000000  0.4904370000000  0.4478370000000 1.0
C      1  0.5459250000000  0.5294390000000  0.5581090000000 1.0
C      1  0.5175380000000  0.5490270000000  0.4513590000000 1.0
C      1  0.5171730000000  0.4961600000000  0.4353230000000 1.0
C      1  0.4265700000000  0.4986530000000  0.5496200000000 1.0
C      1  0.5658390000000  0.4274400000000  0.5064350000000 1.0
C      1  0.5421190000000  0.4508080000000  0.4392770000000 1.0
C      1  0.4937220000000  0.4999500000000  0.4553660000000 1.0
C      1  0.5547320000000  0.4354660000000  0.4612100000000 1.0
C      1  0.4127590000000  0.4876700000000  0.5004210000000 1.0
C      1  0.5255680000000  0.4139590000000  0.5241450000000 1.0
C      1  0.5204280000000  0.4157650000000  0.4951510000000 1.0
C      1  0.5813650000000  0.4514470000000  0.5101060000000 1.0
C      1  0.5115940000000  0.4808700000000  0.4126560000000 1.0
C      1  0.5524790000000  0.5470390000000  0.5361970000000 1.0
C      1  0.4549540000000  0.4412950000000  0.4723440000000 1.0
C      1  0.5767040000000  0.4550270000000  0.4642610000000 1.0
C      1  0.4315430000000  0.5182460000000  0.4755960000000 1.0
C      1  0.5237200000000  0.4637500000000  0.5083730000000 1.0
C      1  0.5868930000000  0.4675920000000  0.4877200000000 1.0
C      1  0.5662030000000  0.4964440000000  0.4453470000000 1.0
C      1  0.5473140000000  0.4214990000000  0.4845040000000 1.0
C      1  0.5028330000000  0.5114590000000  0.5294460000000 1.0
C      1  0.4339560000000  0.5714110000000  0.5359230000000 1.0
C      1  0.4930610000000  0.5300370000000  0.4608940000000 1.0
C      1  0.5349370000000  0.4823570000000  0.5713260000000 1.0
C      1  0.4654050000000  0.4857850000000  0.4933580000000 1.0
C      1  0.5731450000000  0.4919970000000  0.5386780000000 1.0
C      1  0.4499810000000  0.4725450000000  0.4711890000000 1.0
C      1  0.5121670000000  0.4382780000000  0.5652480000000 1.0
C      1  0.5422520000000  0.5091930000000  0.4380750000000 1.0
C      1  0.4794490000000  0.4342010000000  0.4572840000000 1.0
C      1  0.4511380000000  0.4300710000000  0.5207860000000 1.0
C      1  0.5069570000000  0.5092020000000  0.5006560000000 1.0
C      1  0.4253640000000  0.4278620000000  0.5093150000000 1.0
C      1  0.4874110000000  0.4505870000000  0.4356840000000 1.0
C      1  0.4700900000000  0.5439190000000  0.5339600000000 1.0
C      1  0.4662800000000  0.5405770000000  0.4480710000000 1.0
C      1  0.4789440000000  0.5874210000000  0.4723570000000 1.0
C      1  0.4795990000000  0.5406270000000  0.4202270000000 1.0
C      1  0.5361690000000  0.5699430000000  0.5260500000000 1.0
C      1  0.5519170000000  0.4231060000000  0.5306290000000 1.0
END
