TITL C-38594-1017-3 212.12230064737 125000 -426.826527706226 0 0 63 (C1) n - 1
REM
REM in /rds/project/t2_vol4/rds-t2-cs072/BORA/CARBON/from-Arr/AIRSS/Generating-Clusters/GAP-ML-2020/Only-C1/SD-CG/HFTN-CG
REM
REM
REM
REM
REM
REM ./C.cell (11c1c37f851c82e70ff6c80c92926a4b)
REM AIRSS Version 0.9.1 bugfix July 2018 build 013d7b7c2542+ Fri, 06 Jul 2018 19:26:36 +0100
REM compiler GCC version 9.3.0
REM options -cpp -mtune=generic -march=x86-64 -g -O0
REM seed -1466284026 -1146485747 594658376 249962988 1151328350 2009477977 1052488921 1498381482 -1839794521 -1253721113 -1671473254 1919089116 -1410932148 1393962988 -1323716232 -1804194305 -2137694870 2047950037 -1207872486 1954722822 67715229 -2090936502 562545323 -1879281276 -1043960057 91941070 -1398206268 -361379717 876312419 1267381258 402509618 1205634669 -2142672242
REM
CELL 1.54180   50.00000   50.00000   50.00000   90.00000   90.00000   90.00000
LATT -1
SFAC C  
C      1  0.5242010000000  0.5018360000000  0.4463590000000 1.0
C      1  0.4636110000000  0.5280900000000  0.4373130000000 1.0
C      1  0.5213420000000  0.4956360000000  0.4764630000000 1.0
C      1  0.5423970000000  0.5264700000000  0.4481070000000 1.0
C      1  0.4526670000000  0.4858990000000  0.4547530000000 1.0
C      1  0.4637570000000  0.4403900000000  0.5140880000000 1.0
C      1  0.5399470000000  0.4694850000000  0.4729870000000 1.0
C      1  0.5374300000000  0.5476580000000  0.4664150000000 1.0
C      1  0.4645040000000  0.4398250000000  0.5416020000000 1.0
C      1  0.4943710000000  0.4823960000000  0.5122890000000 1.0
C      1  0.5508760000000  0.4857930000000  0.4510900000000 1.0
C      1  0.5288690000000  0.5117840000000  0.5592970000000 1.0
C      1  0.5005170000000  0.5043760000000  0.5607070000000 1.0
C      1  0.4845340000000  0.5547260000000  0.4624740000000 1.0
C      1  0.4503660000000  0.4672230000000  0.5025290000000 1.0
C      1  0.4453060000000  0.5293900000000  0.4607980000000 1.0
C      1  0.4724720000000  0.5684360000000  0.5198930000000 1.0
C      1  0.5641060000000  0.5104110000000  0.4577460000000 1.0
C      1  0.4165500000000  0.4991790000000  0.4857230000000 1.0
C      1  0.5406610000000  0.5027180000000  0.5202210000000 1.0
C      1  0.5359550000000  0.4446950000000  0.5131650000000 1.0
C      1  0.5080320000000  0.5361560000000  0.4989710000000 1.0
C      1  0.4972710000000  0.4755920000000  0.5610180000000 1.0
C      1  0.4246550000000  0.4821730000000  0.5057480000000 1.0
C      1  0.4767570000000  0.4453140000000  0.4697970000000 1.0
C      1  0.4992220000000  0.4481210000000  0.4518770000000 1.0
C      1  0.4818940000000  0.5210940000000  0.4979050000000 1.0
C      1  0.4728100000000  0.4648270000000  0.5488300000000 1.0
C      1  0.5237270000000  0.4647230000000  0.5615880000000 1.0
C      1  0.4356860000000  0.5355840000000  0.5509950000000 1.0
C      1  0.5639590000000  0.4838300000000  0.5155320000000 1.0
C      1  0.5220990000000  0.4461230000000  0.4690580000000 1.0
C      1  0.4768270000000  0.5525020000000  0.4357390000000 1.0
C      1  0.4974560000000  0.5738620000000  0.5259340000000 1.0
C      1  0.5144870000000  0.4355410000000  0.4948870000000 1.0
C      1  0.5431830000000  0.5246080000000  0.5379630000000 1.0
C      1  0.5401560000000  0.4516930000000  0.5408480000000 1.0
C      1  0.5741100000000  0.5195440000000  0.4837130000000 1.0
C      1  0.4326260000000  0.5042420000000  0.4630570000000 1.0
C      1  0.4994230000000  0.4901540000000  0.4323830000000 1.0
C      1  0.4555330000000  0.5304500000000  0.5662410000000 1.0
C      1  0.5417340000000  0.4878160000000  0.5683050000000 1.0
C      1  0.5444670000000  0.5483920000000  0.5214890000000 1.0
C      1  0.4718840000000  0.4998970000000  0.4374090000000 1.0
C      1  0.4537460000000  0.5531160000000  0.5068610000000 1.0
C      1  0.5519660000000  0.5383580000000  0.4919690000000 1.0
C      1  0.4571550000000  0.4646340000000  0.4731660000000 1.0
C      1  0.5005340000000  0.4625420000000  0.4287980000000 1.0
C      1  0.4955640000000  0.4953120000000  0.4887160000000 1.0
C      1  0.5308830000000  0.5154540000000  0.4962540000000 1.0
C      1  0.4214160000000  0.5102250000000  0.5107540000000 1.0
C      1  0.4847810000000  0.4344310000000  0.4951850000000 1.0
C      1  0.5520180000000  0.4626440000000  0.4983690000000 1.0
C      1  0.5182710000000  0.5567980000000  0.5182690000000 1.0
C      1  0.4631860000000  0.5404660000000  0.4813160000000 1.0
C      1  0.4678840000000  0.4829000000000  0.5237920000000 1.0
C      1  0.4403920000000  0.5294970000000  0.5225970000000 1.0
C      1  0.5674120000000  0.4800740000000  0.5663730000000 1.0
C      1  0.4675050000000  0.5132630000000  0.5244860000000 1.0
C      1  0.5646330000000  0.4689540000000  0.5417250000000 1.0
C      1  0.5826010000000  0.5012670000000  0.5018540000000 1.0
C      1  0.4775400000000  0.5194740000000  0.5522630000000 1.0
C      1  0.5100810000000  0.5519370000000  0.4739430000000 1.0
END
