TITL C-38743-3258-2 14.5878708367277 125000 -142.628740067094 0 0 22 (C1) n - 1
REM
REM in /rds/project/t2_vol4/rds-t2-cs072/BORA/CARBON/from-Arr/AIRSS/Generating-Clusters/GAP-ML-2020/Only-C1/SD-CG/HFTN-CG
REM
REM
REM
REM
REM
REM ./C.cell (11c1c37f851c82e70ff6c80c92926a4b)
REM AIRSS Version 0.9.1 bugfix July 2018 build 013d7b7c2542+ Fri, 06 Jul 2018 19:26:36 +0100
REM compiler GCC version 9.3.0
REM options -cpp -mtune=generic -march=x86-64 -g -O0
REM seed -1914252854 7422266 586783609 1254847398 477603077 1892248598 -556894389 410722995 -1317738038 -2141509606 244950350 12933195 -383779495 -301036350 705027616 -1089544748 -1243626976 1647893499 302024260 -38571091 2121022746 354800515 292629079 -655458569 -1983649615 -1285840427 852379018 522631718 -1260361611 1773950150 -537894916 -437713039 -1276842480
REM
CELL 1.54180   50.00000   50.00000   50.00000   90.00000   90.00000   90.00000
LATT -1
SFAC C  
C      1  0.4831590000000  0.4695800000000  0.4721410000000 1.0
C      1  0.5061220000000  0.5009100000000  0.4576440000000 1.0
C      1  0.4720150000000  0.5204040000000  0.4713640000000 1.0
C      1  0.4944770000000  0.5571380000000  0.5060100000000 1.0
C      1  0.5114150000000  0.4760330000000  0.4689580000000 1.0
C      1  0.4558400000000  0.4606990000000  0.5118860000000 1.0
C      1  0.5249260000000  0.4685730000000  0.4921480000000 1.0
C      1  0.5133980000000  0.5511690000000  0.5268210000000 1.0
C      1  0.5419110000000  0.5116190000000  0.5165350000000 1.0
C      1  0.5126320000000  0.5432790000000  0.4866000000000 1.0
C      1  0.5354180000000  0.4750860000000  0.5348420000000 1.0
C      1  0.5368660000000  0.5020970000000  0.5436050000000 1.0
C      1  0.5061850000000  0.4556140000000  0.5094580000000 1.0
C      1  0.4588410000000  0.5329240000000  0.4919200000000 1.0
C      1  0.4360060000000  0.4649660000000  0.5267910000000 1.0
C      1  0.5004540000000  0.5273150000000  0.4672750000000 1.0
C      1  0.4797150000000  0.4592600000000  0.4986240000000 1.0
C      1  0.5159530000000  0.4557870000000  0.5356850000000 1.0
C      1  0.5427330000000  0.4840520000000  0.5072940000000 1.0
C      1  0.4670020000000  0.5539600000000  0.5054900000000 1.0
C      1  0.5296350000000  0.5355150000000  0.5086580000000 1.0
C      1  0.4752990000000  0.4940190000000  0.4602520000000 1.0
END
