TITL C-38598-915-4 -0.025595746905791 125000 -179.494686085969 0 0 28 (C1) n - 1
REM
REM in /rds/project/t2_vol4/rds-t2-cs072/BORA/CARBON/from-Arr/AIRSS/Generating-Clusters/GAP-ML-2020/Only-C1/SD-CG/HFTN-CG
REM
REM
REM
REM
REM
REM ./C.cell (11c1c37f851c82e70ff6c80c92926a4b)
REM AIRSS Version 0.9.1 bugfix July 2018 build 013d7b7c2542+ Fri, 06 Jul 2018 19:26:36 +0100
REM compiler GCC version 9.3.0
REM options -cpp -mtune=generic -march=x86-64 -g -O0
REM seed -1640855768 2125467509 -472406004 1684007581 -816847245 -613248030 -718675137 1340817368 1053915777 -1472908826 1865806480 640187723 -608816378 -441063052 -687253891 -535487333 -1783389365 -17404929 1779470263 855492418 -1440287271 -1576498894 -629334476 862716083 1191018046 1903364050 -2029838165 1370075336 593309562 -1722519046 789139524 859905499 -1820557007
REM
CELL 1.54180   50.00000   50.00000   50.00000   90.00000   90.00000   90.00000
LATT -1
SFAC C  
C      1  0.5217860000000  0.5230170000000  0.4292170000000 1.0
C      1  0.4734860000000  0.4841390000000  0.5258390000000 1.0
C      1  0.5537200000000  0.5322560000000  0.5410490000000 1.0
C      1  0.5079910000000  0.4724860000000  0.4656590000000 1.0
C      1  0.5491550000000  0.4888990000000  0.5131750000000 1.0
C      1  0.4988850000000  0.4996880000000  0.5202930000000 1.0
C      1  0.5072350000000  0.5202770000000  0.4491040000000 1.0
C      1  0.4860260000000  0.5332780000000  0.5532780000000 1.0
C      1  0.5488030000000  0.4919470000000  0.4673790000000 1.0
C      1  0.4841880000000  0.4546590000000  0.4679150000000 1.0
C      1  0.4897850000000  0.4465410000000  0.4962790000000 1.0
C      1  0.5138230000000  0.4619280000000  0.4951920000000 1.0
C      1  0.5567320000000  0.5055590000000  0.4903720000000 1.0
C      1  0.4985890000000  0.5009770000000  0.4686330000000 1.0
C      1  0.4581370000000  0.4946100000000  0.5460090000000 1.0
C      1  0.4503820000000  0.5361180000000  0.5078220000000 1.0
C      1  0.5314710000000  0.5310510000000  0.5270550000000 1.0
C      1  0.4609610000000  0.5224480000000  0.5477520000000 1.0
C      1  0.4620460000000  0.4705980000000  0.4783550000000 1.0
C      1  0.4598840000000  0.5183910000000  0.4928070000000 1.0
C      1  0.4436610000000  0.5393090000000  0.5334000000000 1.0
C      1  0.5052490000000  0.5218600000000  0.5374610000000 1.0
C      1  0.5351760000000  0.4736310000000  0.4560970000000 1.0
C      1  0.5346590000000  0.5236010000000  0.4987380000000 1.0
C      1  0.4664360000000  0.4623470000000  0.5070260000000 1.0
C      1  0.5105520000000  0.5095910000000  0.4943310000000 1.0
C      1  0.5221570000000  0.4821630000000  0.5126480000000 1.0
C      1  0.4690290000000  0.4986310000000  0.4771150000000 1.0
END
