TITL C-38607-934-9 12.5688839262559 125000 -553.087509720004 0 0 78 (C1) n - 1
REM
REM in /rds/project/t2_vol4/rds-t2-cs072/BORA/CARBON/from-Arr/AIRSS/Generating-Clusters/GAP-ML-2020/Only-C1/SD-CG/HFTN-CG
REM
REM
REM
REM
REM
REM ./C.cell (11c1c37f851c82e70ff6c80c92926a4b)
REM AIRSS Version 0.9.1 bugfix July 2018 build 013d7b7c2542+ Fri, 06 Jul 2018 19:26:36 +0100
REM compiler GCC version 9.3.0
REM options -cpp -mtune=generic -march=x86-64 -g -O0
REM seed 156124484 1777992677 -1864470145 2108858410 -2109574771 -2069467750 1313056482 -1514827740 1498398657 466891437 -700924726 -1596923602 1728783669 -2133213978 -1213054339 -1563661401 -1574680385 243206686 1537986060 1281314502 1247530683 -1176984004 246363900 -1247591166 -936683919 1471832517 -247790334 1213865344 -478612013 -1118462706 -2094409007 1549647890 -1928187042
REM
CELL 1.54180   50.00000   50.00000   50.00000   90.00000   90.00000   90.00000
LATT -1
SFAC C  
C      1  0.5519230000000  0.4538480000000  0.4785950000000 1.0
C      1  0.4248410000000  0.4939110000000  0.4631860000000 1.0
C      1  0.4496650000000  0.4549720000000  0.4829000000000 1.0
C      1  0.5505250000000  0.5220290000000  0.5439010000000 1.0
C      1  0.5577490000000  0.4811260000000  0.4706000000000 1.0
C      1  0.5445820000000  0.4745740000000  0.5569410000000 1.0
C      1  0.4722460000000  0.5302270000000  0.4948770000000 1.0
C      1  0.4509730000000  0.4931560000000  0.4508760000000 1.0
C      1  0.5121830000000  0.5525420000000  0.5547690000000 1.0
C      1  0.5135030000000  0.5090050000000  0.5750170000000 1.0
C      1  0.5132250000000  0.4237490000000  0.4861470000000 1.0
C      1  0.5443080000000  0.4372210000000  0.5233860000000 1.0
C      1  0.4481570000000  0.5159480000000  0.5472560000000 1.0
C      1  0.5099270000000  0.5037240000000  0.4762970000000 1.0
C      1  0.5390920000000  0.5650980000000  0.4855450000000 1.0
C      1  0.4588830000000  0.5041530000000  0.4993050000000 1.0
C      1  0.4286700000000  0.5092350000000  0.5063260000000 1.0
C      1  0.5533780000000  0.4981910000000  0.4467680000000 1.0
C      1  0.4792490000000  0.5479070000000  0.4510910000000 1.0
C      1  0.5586460000000  0.5479890000000  0.4968020000000 1.0
C      1  0.4846140000000  0.5489960000000  0.5450510000000 1.0
C      1  0.4748040000000  0.4280600000000  0.5134750000000 1.0
C      1  0.4755010000000  0.4824830000000  0.5676600000000 1.0
C      1  0.5021560000000  0.5077890000000  0.5207220000000 1.0
C      1  0.5718390000000  0.5299030000000  0.4782410000000 1.0
C      1  0.5570890000000  0.5253490000000  0.4534570000000 1.0
C      1  0.4991530000000  0.4650410000000  0.5692430000000 1.0
C      1  0.5264250000000  0.5771860000000  0.5547460000000 1.0
C      1  0.5775780000000  0.4916480000000  0.4904150000000 1.0
C      1  0.5369880000000  0.4482020000000  0.5484820000000 1.0
C      1  0.4281020000000  0.5424640000000  0.4724510000000 1.0
C      1  0.4942010000000  0.5698850000000  0.4970520000000 1.0
C      1  0.5162910000000  0.5224710000000  0.4304870000000 1.0
C      1  0.4844430000000  0.4242660000000  0.4859990000000 1.0
C      1  0.4759920000000  0.4926560000000  0.5199850000000 1.0
C      1  0.5208590000000  0.5731140000000  0.5052820000000 1.0
C      1  0.4224800000000  0.4803510000000  0.5095480000000 1.0
C      1  0.4691630000000  0.4382050000000  0.4663930000000 1.0
C      1  0.4719940000000  0.4998920000000  0.4323100000000 1.0
C      1  0.5343300000000  0.5403140000000  0.4442360000000 1.0
C      1  0.5592530000000  0.4932450000000  0.5407170000000 1.0
C      1  0.5331530000000  0.4934900000000  0.4900160000000 1.0
C      1  0.4453610000000  0.5539450000000  0.5158590000000 1.0
C      1  0.4875640000000  0.5254560000000  0.4334330000000 1.0
C      1  0.4848390000000  0.5087390000000  0.5737410000000 1.0
C      1  0.4748880000000  0.5553840000000  0.5174040000000 1.0
C      1  0.5525780000000  0.5446640000000  0.5250460000000 1.0
C      1  0.5138580000000  0.4485240000000  0.4454750000000 1.0
C      1  0.4973400000000  0.5634600000000  0.4668470000000 1.0
C      1  0.5291430000000  0.4391270000000  0.4677630000000 1.0
C      1  0.4339540000000  0.5296300000000  0.5274600000000 1.0
C      1  0.5144380000000  0.4731640000000  0.4293460000000 1.0
C      1  0.4585620000000  0.5447530000000  0.4715040000000 1.0
C      1  0.5004390000000  0.5223090000000  0.4956550000000 1.0
C      1  0.4944350000000  0.4731320000000  0.5057980000000 1.0
C      1  0.4395680000000  0.5610330000000  0.4885340000000 1.0
C      1  0.4520720000000  0.4458060000000  0.5115860000000 1.0
C      1  0.4192410000000  0.5169520000000  0.4793810000000 1.0
C      1  0.4917470000000  0.4809640000000  0.4784670000000 1.0
C      1  0.5212010000000  0.4232010000000  0.5133670000000 1.0
C      1  0.5197950000000  0.4846240000000  0.5147400000000 1.0
C      1  0.4555750000000  0.4861790000000  0.5453130000000 1.0
C      1  0.4245360000000  0.4707740000000  0.4822410000000 1.0
C      1  0.5299400000000  0.4964930000000  0.4303320000000 1.0
C      1  0.5589170000000  0.4541330000000  0.5066620000000 1.0
C      1  0.4395470000000  0.4666620000000  0.5280000000000 1.0
C      1  0.5090370000000  0.4424490000000  0.5535500000000 1.0
C      1  0.5281340000000  0.5282690000000  0.5612260000000 1.0
C      1  0.5936490000000  0.5126050000000  0.4840170000000 1.0
C      1  0.4842510000000  0.4488720000000  0.4447620000000 1.0
C      1  0.5250180000000  0.5611480000000  0.4607900000000 1.0
C      1  0.4631780000000  0.4850700000000  0.4767170000000 1.0
C      1  0.5688790000000  0.4796280000000  0.5159160000000 1.0
C      1  0.4985760000000  0.4268360000000  0.5308660000000 1.0
C      1  0.5333500000000  0.5663900000000  0.5303510000000 1.0
C      1  0.4856140000000  0.4748380000000  0.4293530000000 1.0
C      1  0.4704830000000  0.5288000000000  0.5593520000000 1.0
C      1  0.5221630000000  0.4823680000000  0.5725920000000 1.0
END
