TITL C-39049-4528-1 -0.0408953402047628 125000 -178.655120182261 0 0 27 (C1) n - 1
REM
REM in /rds/project/t2_vol4/rds-t2-cs072/BORA/CARBON/from-Arr/AIRSS/Generating-Clusters/GAP-ML-2020/Only-C1/SD-CG/HFTN-CG
REM
REM
REM
REM
REM
REM ./C.cell (11c1c37f851c82e70ff6c80c92926a4b)
REM AIRSS Version 0.9.1 bugfix July 2018 build 013d7b7c2542+ Fri, 06 Jul 2018 19:26:36 +0100
REM compiler GCC version 9.3.0
REM options -cpp -mtune=generic -march=x86-64 -g -O0
REM seed -2025611224 -1874954857 1528261967 -1435311733 77467908 -1021676848 -1757763236 1489290801 422566082 1236736760 -1774896560 729386427 -205856649 359938939 458658160 1659118201 114898345 1550196121 -1280627492 -902994880 1205770645 2086111684 1057988343 946248162 1928651001 1289991324 619551643 423797576 -1788208765 -1461030463 -501111047 -1350261355 439418730
REM
CELL 1.54180   50.00000   50.00000   50.00000   90.00000   90.00000   90.00000
LATT -1
SFAC C  
C      1  0.4769850000000  0.4634770000000  0.4986400000000 1.0
C      1  0.5401500000000  0.4864780000000  0.4901970000000 1.0
C      1  0.5151550000000  0.4585340000000  0.5269290000000 1.0
C      1  0.5297000000000  0.4897390000000  0.4614980000000 1.0
C      1  0.4896090000000  0.5398070000000  0.4602340000000 1.0
C      1  0.5308990000000  0.5142350000000  0.4494720000000 1.0
C      1  0.4749120000000  0.5293660000000  0.4391490000000 1.0
C      1  0.5384180000000  0.5123300000000  0.5323740000000 1.0
C      1  0.5167210000000  0.5227880000000  0.5466800000000 1.0
C      1  0.5276830000000  0.4975930000000  0.5535830000000 1.0
C      1  0.5130130000000  0.4746620000000  0.5506600000000 1.0
C      1  0.4915310000000  0.5256000000000  0.5337470000000 1.0
C      1  0.4855380000000  0.4577450000000  0.5251750000000 1.0
C      1  0.5385870000000  0.5115000000000  0.5042670000000 1.0
C      1  0.5016960000000  0.4608410000000  0.4821450000000 1.0
C      1  0.5105660000000  0.4691540000000  0.4572460000000 1.0
C      1  0.4949000000000  0.5353580000000  0.5064750000000 1.0
C      1  0.4601130000000  0.5103850000000  0.4790690000000 1.0
C      1  0.5206960000000  0.5315500000000  0.4929330000000 1.0
C      1  0.4754020000000  0.5347500000000  0.4858630000000 1.0
C      1  0.4833270000000  0.4766710000000  0.5470370000000 1.0
C      1  0.4511070000000  0.4982490000000  0.5229190000000 1.0
C      1  0.5169610000000  0.5328580000000  0.4646210000000 1.0
C      1  0.4585790000000  0.4881820000000  0.4979590000000 1.0
C      1  0.4596140000000  0.5111210000000  0.4499890000000 1.0
C      1  0.4726880000000  0.5030170000000  0.5397770000000 1.0
C      1  0.5254500000000  0.4640090000000  0.5013620000000 1.0
END
