TITL C-39218-6428-5 564.85936480228 125000 -1060.86559636809 0 0 152 (C1) n - 1
REM
REM in /rds/project/t2_vol4/rds-t2-cs072/BORA/CARBON/from-Arr/AIRSS/Generating-Clusters/GAP-ML-2020/Only-C1/SD-CG/HFTN-CG
REM
REM
REM
REM
REM
REM ./C.cell (11c1c37f851c82e70ff6c80c92926a4b)
REM AIRSS Version 0.9.1 bugfix July 2018 build 013d7b7c2542+ Fri, 06 Jul 2018 19:26:36 +0100
REM compiler GCC version 9.3.0
REM options -cpp -mtune=generic -march=x86-64 -g -O0
REM seed -1688698518 -1328727500 1631332922 -177097175 738986337 -162640676 684900235 -205106232 2006978109 1359960298 -1895496871 -962654607 1616985239 1823982596 -1529101743 1437514849 1651573624 1818073737 1200264540 871606389 -985473600 2103442812 2114236268 -358881871 684010749 -35305662 1076996065 -642564620 -1499625778 358718891 1538458073 -1095834400 -1416744405
REM
CELL 1.54180   50.00000   50.00000   50.00000   90.00000   90.00000   90.00000
LATT -1
SFAC C  
C      1  0.5506320000000  0.5917850000000  0.4963090000000 1.0
C      1  0.4910350000000  0.4586880000000  0.4969660000000 1.0
C      1  0.4021360000000  0.5161380000000  0.4817850000000 1.0
C      1  0.5635550000000  0.4448450000000  0.4668650000000 1.0
C      1  0.5893080000000  0.4525790000000  0.4536900000000 1.0
C      1  0.4440250000000  0.4648900000000  0.4221960000000 1.0
C      1  0.5754810000000  0.5633540000000  0.5329920000000 1.0
C      1  0.4849160000000  0.5041900000000  0.6020810000000 1.0
C      1  0.5202120000000  0.5821180000000  0.4657580000000 1.0
C      1  0.5552580000000  0.5837670000000  0.5225060000000 1.0
C      1  0.5201760000000  0.5383440000000  0.4523800000000 1.0
C      1  0.5383810000000  0.5208020000000  0.4032730000000 1.0
C      1  0.5806870000000  0.5203400000000  0.5474210000000 1.0
C      1  0.4056680000000  0.4862440000000  0.5432700000000 1.0
C      1  0.5826290000000  0.4663830000000  0.5352500000000 1.0
C      1  0.4600910000000  0.5631010000000  0.4395700000000 1.0
C      1  0.4360460000000  0.5893230000000  0.4639420000000 1.0
C      1  0.4976280000000  0.3992650000000  0.5091900000000 1.0
C      1  0.5096170000000  0.4959610000000  0.4746580000000 1.0
C      1  0.4539960000000  0.5740940000000  0.5140950000000 1.0
C      1  0.5330700000000  0.5179790000000  0.6044970000000 1.0
C      1  0.4636270000000  0.4888080000000  0.5905430000000 1.0
C      1  0.5660690000000  0.4400520000000  0.4954610000000 1.0
C      1  0.5202610000000  0.4368260000000  0.5624050000000 1.0
C      1  0.5793750000000  0.5120470000000  0.5049490000000 1.0
C      1  0.5190100000000  0.5355640000000  0.5162000000000 1.0
C      1  0.4208280000000  0.4668560000000  0.4916220000000 1.0
C      1  0.5722010000000  0.5631800000000  0.5617970000000 1.0
C      1  0.4758480000000  0.5308190000000  0.5957400000000 1.0
C      1  0.6006770000000  0.4700260000000  0.4882580000000 1.0
C      1  0.4672580000000  0.4652750000000  0.5725100000000 1.0
C      1  0.5123550000000  0.5051300000000  0.5212480000000 1.0
C      1  0.5751090000000  0.4951680000000  0.5335490000000 1.0
C      1  0.5413680000000  0.4281570000000  0.4570030000000 1.0
C      1  0.5587830000000  0.4823550000000  0.4224980000000 1.0
C      1  0.4564370000000  0.5718690000000  0.5440440000000 1.0
C      1  0.4719670000000  0.5935050000000  0.4980200000000 1.0
C      1  0.5565030000000  0.4695940000000  0.5829760000000 1.0
C      1  0.5619470000000  0.5115820000000  0.4170340000000 1.0
C      1  0.4954340000000  0.5509750000000  0.5572840000000 1.0
C      1  0.4251120000000  0.5713400000000  0.5056650000000 1.0
C      1  0.5364260000000  0.5564300000000  0.4711590000000 1.0
C      1  0.4829820000000  0.4432660000000  0.5853680000000 1.0
C      1  0.4333100000000  0.5700160000000  0.4426770000000 1.0
C      1  0.4635460000000  0.5951350000000  0.4704000000000 1.0
C      1  0.5375840000000  0.4892950000000  0.4885800000000 1.0
C      1  0.5904130000000  0.5001780000000  0.4528670000000 1.0
C      1  0.5530860000000  0.5147990000000  0.4905930000000 1.0
C      1  0.5022150000000  0.4078950000000  0.4806830000000 1.0
C      1  0.5185530000000  0.4552580000000  0.4434140000000 1.0
C      1  0.4427770000000  0.5492630000000  0.5584720000000 1.0
C      1  0.5612170000000  0.4574490000000  0.5546060000000 1.0
C      1  0.4145600000000  0.5491150000000  0.5179710000000 1.0
C      1  0.4458190000000  0.4530850000000  0.5112290000000 1.0
C      1  0.5372140000000  0.4719330000000  0.4038980000000 1.0
C      1  0.4676350000000  0.4753020000000  0.4098020000000 1.0
C      1  0.4137800000000  0.5539140000000  0.4564800000000 1.0
C      1  0.4172450000000  0.5739660000000  0.4789260000000 1.0
C      1  0.5219430000000  0.5509990000000  0.5433600000000 1.0
C      1  0.4784430000000  0.4229740000000  0.5440940000000 1.0
C      1  0.4488940000000  0.4387340000000  0.4331200000000 1.0
C      1  0.5317240000000  0.5818250000000  0.5405530000000 1.0
C      1  0.4312020000000  0.5318550000000  0.5356170000000 1.0
C      1  0.5712060000000  0.4898210000000  0.5925500000000 1.0
C      1  0.4415510000000  0.5041470000000  0.5813800000000 1.0
C      1  0.4321870000000  0.4358650000000  0.4565300000000 1.0
C      1  0.5381980000000  0.5383110000000  0.4946750000000 1.0
C      1  0.5824100000000  0.5690410000000  0.4593510000000 1.0
C      1  0.4845100000000  0.4706230000000  0.5448290000000 1.0
C      1  0.4710800000000  0.5044670000000  0.4151580000000 1.0
C      1  0.5156280000000  0.5404970000000  0.4060490000000 1.0
C      1  0.5137400000000  0.4972540000000  0.6037520000000 1.0
C      1  0.4102500000000  0.4253150000000  0.4974800000000 1.0
C      1  0.4514540000000  0.5341150000000  0.4819430000000 1.0
C      1  0.5111110000000  0.4488930000000  0.5862280000000 1.0
C      1  0.4117500000000  0.5075080000000  0.5242760000000 1.0
C      1  0.5839230000000  0.4765800000000  0.4385620000000 1.0
C      1  0.5017200000000  0.4457650000000  0.5408690000000 1.0
C      1  0.5002140000000  0.4134670000000  0.4348220000000 1.0
C      1  0.4668800000000  0.4993240000000  0.5090550000000 1.0
C      1  0.4201470000000  0.4959450000000  0.4955710000000 1.0
C      1  0.5246980000000  0.4285950000000  0.4325300000000 1.0
C      1  0.5046680000000  0.5030910000000  0.4211670000000 1.0
C      1  0.5955370000000  0.4976370000000  0.4825360000000 1.0
C      1  0.4878540000000  0.4537370000000  0.4104160000000 1.0
C      1  0.5157370000000  0.5568420000000  0.4285840000000 1.0
C      1  0.5812680000000  0.5223190000000  0.4362930000000 1.0
C      1  0.5852950000000  0.4558760000000  0.5090820000000 1.0
C      1  0.4610450000000  0.5231590000000  0.5271190000000 1.0
C      1  0.5468550000000  0.5753770000000  0.5659190000000 1.0
C      1  0.4621120000000  0.4910460000000  0.4643930000000 1.0
C      1  0.4658760000000  0.5377800000000  0.4555180000000 1.0
C      1  0.4251560000000  0.4858320000000  0.5654920000000 1.0
C      1  0.5056400000000  0.5809130000000  0.4416250000000 1.0
C      1  0.4942110000000  0.5085540000000  0.4981450000000 1.0
C      1  0.4707230000000  0.4244760000000  0.5703050000000 1.0
C      1  0.5855510000000  0.5484680000000  0.4443080000000 1.0
C      1  0.4837970000000  0.5764400000000  0.5489690000000 1.0
C      1  0.5386600000000  0.5458130000000  0.5684190000000 1.0
C      1  0.4991770000000  0.3946970000000  0.4537290000000 1.0
C      1  0.5667960000000  0.5328800000000  0.5702860000000 1.0
C      1  0.5038110000000  0.5914760000000  0.5342910000000 1.0
C      1  0.5158970000000  0.4538720000000  0.5141390000000 1.0
C      1  0.6112670000000  0.4541490000000  0.4688210000000 1.0
C      1  0.4824160000000  0.5228020000000  0.5475510000000 1.0
C      1  0.4913040000000  0.5240350000000  0.4065290000000 1.0
C      1  0.5240820000000  0.4965600000000  0.3997100000000 1.0
C      1  0.4876620000000  0.4760120000000  0.4705380000000 1.0
C      1  0.5234640000000  0.5411590000000  0.5925390000000 1.0
C      1  0.5848470000000  0.5366480000000  0.5247320000000 1.0
C      1  0.4988420000000  0.5986180000000  0.5072450000000 1.0
C      1  0.5251610000000  0.4746490000000  0.5876680000000 1.0
C      1  0.4700960000000  0.4706240000000  0.5169050000000 1.0
C      1  0.4568430000000  0.5124220000000  0.4402290000000 1.0
C      1  0.5519700000000  0.4739770000000  0.4689060000000 1.0
C      1  0.4486740000000  0.5040990000000  0.4869060000000 1.0
C      1  0.4573580000000  0.4264160000000  0.4971810000000 1.0
C      1  0.5465650000000  0.4322850000000  0.5528220000000 1.0
C      1  0.4936910000000  0.5385780000000  0.4967750000000 1.0
C      1  0.5463070000000  0.4832930000000  0.5411410000000 1.0
C      1  0.5000770000000  0.4985110000000  0.5470450000000 1.0
C      1  0.5256850000000  0.4914430000000  0.5608390000000 1.0
C      1  0.4778320000000  0.5849950000000  0.4461130000000 1.0
C      1  0.5407610000000  0.4151280000000  0.5299610000000 1.0
C      1  0.4259690000000  0.4793070000000  0.4393820000000 1.0
C      1  0.5607760000000  0.5748650000000  0.4747680000000 1.0
C      1  0.5224760000000  0.5971310000000  0.4894830000000 1.0
C      1  0.5373590000000  0.4805330000000  0.4453190000000 1.0
C      1  0.5301810000000  0.4809210000000  0.5161410000000 1.0
C      1  0.5170700000000  0.4522480000000  0.4129410000000 1.0
C      1  0.4105180000000  0.5259650000000  0.4563830000000 1.0
C      1  0.5397070000000  0.4308920000000  0.5044320000000 1.0
C      1  0.4220890000000  0.4613490000000  0.4619740000000 1.0
C      1  0.4308240000000  0.4490530000000  0.5379300000000 1.0
C      1  0.4936710000000  0.5405850000000  0.4675360000000 1.0
C      1  0.4725520000000  0.4104210000000  0.5189440000000 1.0
C      1  0.4323170000000  0.4200640000000  0.4814490000000 1.0
C      1  0.4271400000000  0.5080560000000  0.4404950000000 1.0
C      1  0.4968210000000  0.5468500000000  0.5868220000000 1.0
C      1  0.5295900000000  0.4178990000000  0.4802130000000 1.0
C      1  0.5196910000000  0.5067540000000  0.4485200000000 1.0
C      1  0.5606400000000  0.5149630000000  0.5933440000000 1.0
C      1  0.4656070000000  0.5447630000000  0.5053720000000 1.0
C      1  0.4045480000000  0.4586940000000  0.5333630000000 1.0
C      1  0.4839910000000  0.4339050000000  0.4812660000000 1.0
C      1  0.4395850000000  0.4622690000000  0.5620390000000 1.0
C      1  0.4500880000000  0.5322190000000  0.5810310000000 1.0
C      1  0.5198460000000  0.3982000000000  0.5256720000000 1.0
C      1  0.3986040000000  0.5292240000000  0.5064840000000 1.0
C      1  0.4003060000000  0.4490630000000  0.5059440000000 1.0
C      1  0.4782780000000  0.4346960000000  0.4297780000000 1.0
C      1  0.4912440000000  0.4508860000000  0.4551060000000 1.0
END
