TITL C-39216-6427-6 0.00965944079325427 125000 -100.932398148088 0 0 16 (C1) n - 1
REM
REM in /rds/project/t2_vol4/rds-t2-cs072/BORA/CARBON/from-Arr/AIRSS/Generating-Clusters/GAP-ML-2020/Only-C1/SD-CG/HFTN-CG
REM
REM
REM
REM
REM
REM ./C.cell (11c1c37f851c82e70ff6c80c92926a4b)
REM AIRSS Version 0.9.1 bugfix July 2018 build 013d7b7c2542+ Fri, 06 Jul 2018 19:26:36 +0100
REM compiler GCC version 9.3.0
REM options -cpp -mtune=generic -march=x86-64 -g -O0
REM seed -589331534 -104741319 -412815519 -1413377723 392239134 -1876750977 -980874863 30630626 -1951247715 -1860967748 -639586563 179064219 1260798396 -376062873 894478362 1813801301 1247149131 400825374 -548211684 229742733 -1030404108 -712543005 750604267 459846357 -1436945008 2107280896 92886530 1855432369 -108764839 -1976475153 926474363 839446530 -688065014
REM
CELL 1.54180   50.00000   50.00000   50.00000   90.00000   90.00000   90.00000
LATT -1
SFAC C  
C      1  0.4606250000000  0.4831640000000  0.5529190000000 1.0
C      1  0.4899610000000  0.5138070000000  0.4561990000000 1.0
C      1  0.5221620000000  0.5345990000000  0.4784690000000 1.0
C      1  0.5030500000000  0.5365370000000  0.4577620000000 1.0
C      1  0.4716690000000  0.4457610000000  0.4857730000000 1.0
C      1  0.5108670000000  0.5228170000000  0.5204930000000 1.0
C      1  0.4897890000000  0.5224900000000  0.5376340000000 1.0
C      1  0.5181520000000  0.4954620000000  0.5099470000000 1.0
C      1  0.4731440000000  0.5044240000000  0.5449630000000 1.0
C      1  0.5094380000000  0.4718150000000  0.5208630000000 1.0
C      1  0.4970530000000  0.4530760000000  0.5319040000000 1.0
C      1  0.5328480000000  0.4961050000000  0.4869180000000 1.0
C      1  0.5202930000000  0.5446820000000  0.5048600000000 1.0
C      1  0.5437190000000  0.5157920000000  0.4743260000000 1.0
C      1  0.4760240000000  0.4684230000000  0.4743950000000 1.0
C      1  0.4812050000000  0.4910450000000  0.4625740000000 1.0
END
