TITL C-39045-1093-1 -0.223442943756435 125000 -844.230719034565 0 0 121 (C1) n - 1
REM
REM in /rds/project/t2_vol4/rds-t2-cs072/BORA/CARBON/from-Arr/AIRSS/Generating-Clusters/GAP-ML-2020/Only-C1/SD-CG/HFTN-CG
REM
REM
REM
REM
REM
REM ./C.cell (11c1c37f851c82e70ff6c80c92926a4b)
REM AIRSS Version 0.9.1 bugfix July 2018 build 013d7b7c2542+ Fri, 06 Jul 2018 19:26:36 +0100
REM compiler GCC version 9.3.0
REM options -cpp -mtune=generic -march=x86-64 -g -O0
REM seed 583595966 -1278560503 -187707635 1687418461 1326947370 105216976 -1466986686 1302983975 -872198704 -1989717955 -1197005464 -950000608 -2051610866 -274727566 -2035840526 698884894 -1057481374 1231674110 -1172721306 -237055274 2071894393 -1889964106 277984911 -560667008 1995319631 -1703203576 -455884572 1918768400 -567981889 729454738 10824157 -68271913 1063688058
REM
CELL 1.54180   50.00000   50.00000   50.00000   90.00000   90.00000   90.00000
LATT -1
SFAC C  
C      1  0.5577030000000  0.4934300000000  0.4242780000000 1.0
C      1  0.4899290000000  0.5410730000000  0.5298020000000 1.0
C      1  0.4487830000000  0.5343840000000  0.4719380000000 1.0
C      1  0.4416640000000  0.4863690000000  0.4633140000000 1.0
C      1  0.4725570000000  0.5017910000000  0.5576430000000 1.0
C      1  0.4585130000000  0.5502330000000  0.5591910000000 1.0
C      1  0.4937760000000  0.5029210000000  0.4794850000000 1.0
C      1  0.4926380000000  0.4322650000000  0.5265550000000 1.0
C      1  0.5953220000000  0.4784270000000  0.5044190000000 1.0
C      1  0.5510370000000  0.5611510000000  0.4889310000000 1.0
C      1  0.5912150000000  0.5060370000000  0.4644150000000 1.0
C      1  0.5273500000000  0.5396630000000  0.4964980000000 1.0
C      1  0.4554130000000  0.5257860000000  0.5010140000000 1.0
C      1  0.5217190000000  0.5560540000000  0.4286090000000 1.0
C      1  0.4868340000000  0.5205940000000  0.4247890000000 1.0
C      1  0.5110230000000  0.5958770000000  0.4794010000000 1.0
C      1  0.4867700000000  0.4605060000000  0.4655240000000 1.0
C      1  0.4898100000000  0.5109370000000  0.5315160000000 1.0
C      1  0.4447610000000  0.4389550000000  0.4742120000000 1.0
C      1  0.4194970000000  0.5571410000000  0.5232280000000 1.0
C      1  0.4262910000000  0.4719230000000  0.5450200000000 1.0
C      1  0.4579940000000  0.5614560000000  0.4659470000000 1.0
C      1  0.5038830000000  0.4764350000000  0.4195170000000 1.0
C      1  0.5650320000000  0.4778370000000  0.5632860000000 1.0
C      1  0.4658940000000  0.5481020000000  0.5159750000000 1.0
C      1  0.4663570000000  0.5951970000000  0.5043260000000 1.0
C      1  0.4599140000000  0.4329340000000  0.4483050000000 1.0
C      1  0.5136100000000  0.5246990000000  0.4751620000000 1.0
C      1  0.4609210000000  0.5897800000000  0.5320850000000 1.0
C      1  0.5489340000000  0.4934680000000  0.5809870000000 1.0
C      1  0.5565310000000  0.5632060000000  0.5207220000000 1.0
C      1  0.4582600000000  0.4557190000000  0.4309500000000 1.0
C      1  0.5144450000000  0.4971720000000  0.5343910000000 1.0
C      1  0.5820200000000  0.4542030000000  0.5125510000000 1.0
C      1  0.4530240000000  0.4296610000000  0.5489040000000 1.0
C      1  0.4421340000000  0.4948660000000  0.4090830000000 1.0
C      1  0.5270120000000  0.4771930000000  0.5902020000000 1.0
C      1  0.4796240000000  0.5023180000000  0.4515260000000 1.0
C      1  0.4207030000000  0.5224370000000  0.5626140000000 1.0
C      1  0.5807760000000  0.4979030000000  0.5479960000000 1.0
C      1  0.4628630000000  0.4768630000000  0.5066490000000 1.0
C      1  0.5369790000000  0.5829490000000  0.4729300000000 1.0
C      1  0.5592510000000  0.4470350000000  0.4470370000000 1.0
C      1  0.4070610000000  0.4841790000000  0.5069650000000 1.0
C      1  0.4355530000000  0.4689370000000  0.4200600000000 1.0
C      1  0.5938920000000  0.5000490000000  0.5222020000000 1.0
C      1  0.5000690000000  0.5866410000000  0.4544630000000 1.0
C      1  0.4356960000000  0.4856620000000  0.5201640000000 1.0
C      1  0.4392040000000  0.5153050000000  0.5243260000000 1.0
C      1  0.4817210000000  0.4288660000000  0.5546380000000 1.0
C      1  0.4957010000000  0.5981710000000  0.5025720000000 1.0
C      1  0.5095350000000  0.5035960000000  0.4141730000000 1.0
C      1  0.4936430000000  0.5484770000000  0.4297580000000 1.0
C      1  0.5230350000000  0.4566000000000  0.4212660000000 1.0
C      1  0.5271830000000  0.4146950000000  0.4786480000000 1.0
C      1  0.4035370000000  0.4672150000000  0.4866370000000 1.0
C      1  0.4128480000000  0.5282630000000  0.5302280000000 1.0
C      1  0.4935020000000  0.4537970000000  0.5697110000000 1.0
C      1  0.5617610000000  0.4171300000000  0.5210710000000 1.0
C      1  0.4877950000000  0.5595700000000  0.5561860000000 1.0
C      1  0.4985910000000  0.4161940000000  0.4784180000000 1.0
C      1  0.5266320000000  0.5777380000000  0.4460610000000 1.0
C      1  0.5129080000000  0.5518600000000  0.5172370000000 1.0
C      1  0.5419290000000  0.5115340000000  0.4990860000000 1.0
C      1  0.5442420000000  0.4310760000000  0.5415070000000 1.0
C      1  0.4814840000000  0.4741900000000  0.4387420000000 1.0
C      1  0.5290120000000  0.4837640000000  0.4614180000000 1.0
C      1  0.4597940000000  0.4664150000000  0.4788340000000 1.0
C      1  0.5506750000000  0.5216770000000  0.5747800000000 1.0
C      1  0.4856870000000  0.5861640000000  0.5446980000000 1.0
C      1  0.5867860000000  0.4269110000000  0.5167160000000 1.0
C      1  0.5500480000000  0.4649640000000  0.4262100000000 1.0
C      1  0.5366770000000  0.4115350000000  0.5054010000000 1.0
C      1  0.4446200000000  0.4194660000000  0.5247620000000 1.0
C      1  0.4808370000000  0.4625580000000  0.5252990000000 1.0
C      1  0.4459530000000  0.4560100000000  0.5560550000000 1.0
C      1  0.3958440000000  0.5031360000000  0.5259140000000 1.0
C      1  0.5587140000000  0.4558660000000  0.4939520000000 1.0
C      1  0.5735250000000  0.5420720000000  0.5296670000000 1.0
C      1  0.4040670000000  0.5051840000000  0.5756100000000 1.0
C      1  0.5485210000000  0.4526560000000  0.5590440000000 1.0
C      1  0.5759290000000  0.5103540000000  0.4404450000000 1.0
C      1  0.5702140000000  0.5240650000000  0.5534790000000 1.0
C      1  0.4460160000000  0.5646900000000  0.5365990000000 1.0
C      1  0.4895640000000  0.4310630000000  0.4549630000000 1.0
C      1  0.5729070000000  0.4585770000000  0.4690150000000 1.0
C      1  0.5368450000000  0.5115460000000  0.4161390000000 1.0
C      1  0.4258140000000  0.4699620000000  0.4463670000000 1.0
C      1  0.5428630000000  0.5379250000000  0.4250910000000 1.0
C      1  0.5908810000000  0.4804300000000  0.4762280000000 1.0
C      1  0.4529640000000  0.4216090000000  0.4985440000000 1.0
C      1  0.5151540000000  0.4343620000000  0.4383260000000 1.0
C      1  0.5089400000000  0.4750360000000  0.4787090000000 1.0
C      1  0.5077530000000  0.5898020000000  0.5280120000000 1.0
C      1  0.5888480000000  0.5294290000000  0.4821630000000 1.0
C      1  0.5711290000000  0.5481440000000  0.4701850000000 1.0
C      1  0.5375140000000  0.5080010000000  0.4698010000000 1.0
C      1  0.4885640000000  0.5042070000000  0.5828670000000 1.0
C      1  0.4817080000000  0.4188750000000  0.5013660000000 1.0
C      1  0.5658370000000  0.5374960000000  0.4427790000000 1.0
C      1  0.4760150000000  0.5039420000000  0.5037400000000 1.0
C      1  0.4514900000000  0.5119760000000  0.4529120000000 1.0
C      1  0.4502690000000  0.5222990000000  0.5561250000000 1.0
C      1  0.5291070000000  0.5687480000000  0.5349260000000 1.0
C      1  0.4481870000000  0.5795310000000  0.4869480000000 1.0
C      1  0.4724810000000  0.4707010000000  0.5533050000000 1.0
C      1  0.5894250000000  0.5264580000000  0.5110100000000 1.0
C      1  0.5211520000000  0.4234310000000  0.5267840000000 1.0
C      1  0.5377500000000  0.4275330000000  0.4538090000000 1.0
C      1  0.5266310000000  0.5379270000000  0.5787400000000 1.0
C      1  0.5298440000000  0.4673480000000  0.4989890000000 1.0
C      1  0.5177440000000  0.5585500000000  0.5616680000000 1.0
C      1  0.4258140000000  0.5688060000000  0.4998370000000 1.0
C      1  0.5321380000000  0.4903020000000  0.5153680000000 1.0
C      1  0.5239600000000  0.4543940000000  0.5731530000000 1.0
C      1  0.5038360000000  0.5253400000000  0.5886450000000 1.0
C      1  0.4554330000000  0.5143420000000  0.4209540000000 1.0
C      1  0.4988760000000  0.4788560000000  0.5901690000000 1.0
C      1  0.4174060000000  0.4521450000000  0.4677210000000 1.0
C      1  0.4802020000000  0.5668930000000  0.4478100000000 1.0
C      1  0.4057530000000  0.4898320000000  0.5529050000000 1.0
END
