TITL C-39245-6459-7 -0.0599977824540826 125000 -498.376296913737 0 0 72 (C1) n - 1
REM
REM in /rds/project/t2_vol4/rds-t2-cs072/BORA/CARBON/from-Arr/AIRSS/Generating-Clusters/GAP-ML-2020/Only-C1/SD-CG/HFTN-CG
REM
REM
REM
REM
REM
REM ./C.cell (11c1c37f851c82e70ff6c80c92926a4b)
REM AIRSS Version 0.9.1 bugfix July 2018 build 013d7b7c2542+ Fri, 06 Jul 2018 19:26:36 +0100
REM compiler GCC version 9.3.0
REM options -cpp -mtune=generic -march=x86-64 -g -O0
REM seed -637966954 169249316 -2015123303 1646251293 1079921671 -2054280281 -1086930074 -1207133928 -1285287157 1183507845 1887313349 1312880963 923369280 -68536023 357085413 -931489063 -469306701 -1254365318 -945569356 -345233980 -1495856028 -837000526 -1683923192 1208844167 -1213859442 1669023501 -988543788 312116463 -1060608663 1528152513 2041348068 -1497281301 -511548204
REM
CELL 1.54180   50.00000   50.00000   50.00000   90.00000   90.00000   90.00000
LATT -1
SFAC C  
C      1  0.5243160000000  0.4403650000000  0.5160410000000 1.0
C      1  0.5347390000000  0.4852530000000  0.4325500000000 1.0
C      1  0.5506160000000  0.5248270000000  0.4512260000000 1.0
C      1  0.4165720000000  0.5287920000000  0.5065570000000 1.0
C      1  0.5531810000000  0.5347720000000  0.5171750000000 1.0
C      1  0.5404970000000  0.5354560000000  0.5438720000000 1.0
C      1  0.4679860000000  0.4575100000000  0.5371680000000 1.0
C      1  0.4822800000000  0.4248740000000  0.5048250000000 1.0
C      1  0.4823800000000  0.4734620000000  0.5160610000000 1.0
C      1  0.4574500000000  0.4905710000000  0.4313960000000 1.0
C      1  0.4527700000000  0.4701400000000  0.4523640000000 1.0
C      1  0.5393550000000  0.5480320000000  0.4952660000000 1.0
C      1  0.4964410000000  0.5294680000000  0.5661890000000 1.0
C      1  0.5384840000000  0.5460530000000  0.4657570000000 1.0
C      1  0.5496490000000  0.5136700000000  0.5592090000000 1.0
C      1  0.4757830000000  0.5722590000000  0.5267780000000 1.0
C      1  0.4304450000000  0.4845720000000  0.5252400000000 1.0
C      1  0.4723270000000  0.5213730000000  0.5529620000000 1.0
C      1  0.5209430000000  0.4897840000000  0.5121210000000 1.0
C      1  0.5137560000000  0.5434340000000  0.5486920000000 1.0
C      1  0.4647690000000  0.5168420000000  0.4991710000000 1.0
C      1  0.5701660000000  0.4945660000000  0.4916990000000 1.0
C      1  0.4375840000000  0.4749360000000  0.4991180000000 1.0
C      1  0.4733300000000  0.4505550000000  0.4607520000000 1.0
C      1  0.4353550000000  0.4824310000000  0.4716800000000 1.0
C      1  0.4627050000000  0.4872260000000  0.5013610000000 1.0
C      1  0.5068830000000  0.5207260000000  0.4244140000000 1.0
C      1  0.4975430000000  0.4977070000000  0.5261730000000 1.0
C      1  0.5501390000000  0.4534220000000  0.5178380000000 1.0
C      1  0.5086980000000  0.4610770000000  0.5024160000000 1.0
C      1  0.4386040000000  0.5306940000000  0.4871710000000 1.0
C      1  0.4707460000000  0.5722030000000  0.4830460000000 1.0
C      1  0.4481170000000  0.4767640000000  0.5468260000000 1.0
C      1  0.4489530000000  0.5160460000000  0.4432480000000 1.0
C      1  0.5644910000000  0.5023760000000  0.4645040000000 1.0
C      1  0.5530360000000  0.4786130000000  0.4521770000000 1.0
C      1  0.4808420000000  0.5191030000000  0.4756470000000 1.0
C      1  0.4687750000000  0.4901090000000  0.4057920000000 1.0
C      1  0.5602390000000  0.4665340000000  0.4951620000000 1.0
C      1  0.4973500000000  0.5508150000000  0.5250950000000 1.0
C      1  0.4927960000000  0.4948560000000  0.4192080000000 1.0
C      1  0.5141020000000  0.5588660000000  0.5014060000000 1.0
C      1  0.5091170000000  0.4738090000000  0.4313750000000 1.0
C      1  0.5764870000000  0.4736900000000  0.5583750000000 1.0
C      1  0.4148770000000  0.5085790000000  0.5226110000000 1.0
C      1  0.5003390000000  0.4562090000000  0.4524820000000 1.0
C      1  0.5320250000000  0.4996490000000  0.5765780000000 1.0
C      1  0.4876700000000  0.4852380000000  0.5754700000000 1.0
C      1  0.5438260000000  0.4789640000000  0.5288630000000 1.0
C      1  0.5017310000000  0.5040490000000  0.4702260000000 1.0
C      1  0.4654610000000  0.5854040000000  0.5077520000000 1.0
C      1  0.5031970000000  0.4617310000000  0.5690340000000 1.0
C      1  0.5057100000000  0.5076130000000  0.5799360000000 1.0
C      1  0.5577470000000  0.4610060000000  0.5714100000000 1.0
C      1  0.5124920000000  0.5560990000000  0.4561240000000 1.0
C      1  0.4679730000000  0.5368980000000  0.4508700000000 1.0
C      1  0.4806850000000  0.5239570000000  0.5236640000000 1.0
C      1  0.5217590000000  0.5015720000000  0.4863470000000 1.0
C      1  0.5650390000000  0.4958250000000  0.5409730000000 1.0
C      1  0.4994840000000  0.5669330000000  0.4786730000000 1.0
C      1  0.4709000000000  0.4315010000000  0.4831120000000 1.0
C      1  0.4642920000000  0.4946970000000  0.5621840000000 1.0
C      1  0.4342570000000  0.5100850000000  0.4657090000000 1.0
C      1  0.5459270000000  0.4598220000000  0.4718630000000 1.0
C      1  0.5183310000000  0.4531080000000  0.4743330000000 1.0
C      1  0.5337960000000  0.5138200000000  0.4304130000000 1.0
C      1  0.5693700000000  0.5105210000000  0.5155570000000 1.0
C      1  0.4542190000000  0.5531760000000  0.4710070000000 1.0
C      1  0.4948260000000  0.5423760000000  0.4381730000000 1.0
C      1  0.5016860000000  0.4284010000000  0.5268180000000 1.0
C      1  0.4903080000000  0.4439480000000  0.5498560000000 1.0
C      1  0.5312750000000  0.4701880000000  0.5748560000000 1.0
END
