TITL C-39038-1168-5 0.00124926911350779 125000 -32.9154378782469 0 0 6 (Cs) n - 1
REM
REM in /rds/project/t2_vol4/rds-t2-cs072/BORA/CARBON/from-Arr/AIRSS/Generating-Clusters/GAP-ML-2020/Only-C1/SD-CG/HFTN-CG
REM
REM
REM
REM
REM
REM ./C.cell (11c1c37f851c82e70ff6c80c92926a4b)
REM AIRSS Version 0.9.1 bugfix July 2018 build 013d7b7c2542+ Fri, 06 Jul 2018 19:26:36 +0100
REM compiler GCC version 9.3.0
REM options -cpp -mtune=generic -march=x86-64 -g -O0
REM seed -1343595385 -388282999 1351994835 1726185907 -1939030682 875282513 1676632830 682135493 295280790 887405005 -1747652850 -2043676134 669377804 537705169 -396742866 -1597653496 1877115202 1151432080 1133212784 710584466 -1179571097 -1461125662 -642613593 164256469 1368559903 1768420508 -1899718521 -490319375 -1499362265 -1103706158 1173714042 -603766273 2117771040
REM
CELL 1.54180   50.00000   50.00000   50.00000   90.00000   90.00000   90.00000
LATT -1
SFAC C  
C      1  0.5435820000000  0.5053750000000  0.5201340000000 1.0
C      1  0.4883210000000  0.5060310000000  0.4815460000000 1.0
C      1  0.4702840000000  0.4791900000000  0.5162380000000 1.0
C      1  0.4852000000000  0.5173310000000  0.4596840000000 1.0
C      1  0.5198680000000  0.4985470000000  0.5159990000000 1.0
C      1  0.4927450000000  0.4935260000000  0.5063990000000 1.0
END
