TITL C-3966-7100-7 -0.0754430808649637 125000 -564.978294728885 0 0 82 (C1) n - 1
REM
REM in /rds/project/t2_vol4/rds-t2-cs072/BORA/CARBON/from-Arr/AIRSS/Generating-Clusters/GAP-ML-2020/Only-C1/SD-CG/HFTN-CG
REM
REM
REM
REM
REM
REM ./C.cell (11c1c37f851c82e70ff6c80c92926a4b)
REM AIRSS Version 0.9.1 bugfix July 2018 build 013d7b7c2542+ Fri, 06 Jul 2018 19:26:36 +0100
REM compiler GCC version 9.3.0
REM options -cpp -mtune=generic -march=x86-64 -g -O0
REM seed 14408298 2017284144 2030149024 663848017 1898298394 1741493286 -1805582958 -561615854 -1549342330 1619163609 -511409306 242873939 -946225490 -567316125 -1034396552 -357581262 672128990 1457290591 -546543957 169670211 -1154204366 -1726305770 -201646411 -924594192 1715752547 447530782 1047575948 1800934974 674753117 364995736 1228499393 -88843960 1690484385
REM
CELL 1.54180   50.00000   50.00000   50.00000   90.00000   90.00000   90.00000
LATT -1
SFAC C  
C      1  0.5052400000000  0.4924930000000  0.5298010000000 1.0
C      1  0.5585890000000  0.5487380000000  0.5287310000000 1.0
C      1  0.4419820000000  0.4527090000000  0.4686760000000 1.0
C      1  0.5620390000000  0.4828280000000  0.4736570000000 1.0
C      1  0.5816280000000  0.5032640000000  0.5089930000000 1.0
C      1  0.4517940000000  0.5094690000000  0.5463300000000 1.0
C      1  0.5097570000000  0.4949190000000  0.5777340000000 1.0
C      1  0.5388380000000  0.4984410000000  0.5732680000000 1.0
C      1  0.5636510000000  0.5408240000000  0.4505190000000 1.0
C      1  0.4827270000000  0.5281410000000  0.4250520000000 1.0
C      1  0.4826830000000  0.4223520000000  0.4999240000000 1.0
C      1  0.4902190000000  0.5495540000000  0.4431160000000 1.0
C      1  0.5271250000000  0.4726300000000  0.5206200000000 1.0
C      1  0.5120050000000  0.4430840000000  0.4718000000000 1.0
C      1  0.5076680000000  0.4484160000000  0.5249840000000 1.0
C      1  0.5623850000000  0.4997340000000  0.4257900000000 1.0
C      1  0.4494280000000  0.5311320000000  0.4731470000000 1.0
C      1  0.5097770000000  0.4229330000000  0.5105310000000 1.0
C      1  0.5552290000000  0.5260400000000  0.4265330000000 1.0
C      1  0.5294110000000  0.4283870000000  0.4899190000000 1.0
C      1  0.4514090000000  0.5546660000000  0.5405120000000 1.0
C      1  0.4731030000000  0.4568600000000  0.4353290000000 1.0
C      1  0.4243280000000  0.5089020000000  0.5348270000000 1.0
C      1  0.4188640000000  0.4839450000000  0.5228160000000 1.0
C      1  0.4920150000000  0.4901490000000  0.4806560000000 1.0
C      1  0.4473570000000  0.5063500000000  0.4587020000000 1.0
C      1  0.5693330000000  0.4598910000000  0.4922840000000 1.0
C      1  0.4617110000000  0.4307280000000  0.5210540000000 1.0
C      1  0.4645720000000  0.4408590000000  0.4559120000000 1.0
C      1  0.5341510000000  0.5282690000000  0.5717030000000 1.0
C      1  0.4797610000000  0.4532020000000  0.5114490000000 1.0
C      1  0.4419160000000  0.5279470000000  0.5000030000000 1.0
C      1  0.5247860000000  0.4793380000000  0.4429810000000 1.0
C      1  0.4700250000000  0.4763620000000  0.4945700000000 1.0
C      1  0.5550470000000  0.4369120000000  0.4934120000000 1.0
C      1  0.5189850000000  0.5532830000000  0.4397000000000 1.0
C      1  0.4257510000000  0.5585660000000  0.5345690000000 1.0
C      1  0.4925050000000  0.4804320000000  0.5574670000000 1.0
C      1  0.5523000000000  0.4831030000000  0.4448730000000 1.0
C      1  0.5151030000000  0.4746820000000  0.4712380000000 1.0
C      1  0.5058140000000  0.5236970000000  0.5793440000000 1.0
C      1  0.5480860000000  0.5699530000000  0.5108400000000 1.0
C      1  0.5071290000000  0.5163970000000  0.4150080000000 1.0
C      1  0.4867590000000  0.5128220000000  0.4636140000000 1.0
C      1  0.4858710000000  0.4302870000000  0.4722720000000 1.0
C      1  0.4234300000000  0.5350310000000  0.5207490000000 1.0
C      1  0.4653490000000  0.5191150000000  0.5168450000000 1.0
C      1  0.4497040000000  0.4603260000000  0.5545620000000 1.0
C      1  0.5561890000000  0.4809670000000  0.5620290000000 1.0
C      1  0.5818670000000  0.5274760000000  0.4656550000000 1.0
C      1  0.4941110000000  0.4509150000000  0.5508580000000 1.0
C      1  0.4245930000000  0.4481940000000  0.4907690000000 1.0
C      1  0.5227040000000  0.5787530000000  0.5214750000000 1.0
C      1  0.5419980000000  0.5494780000000  0.5537190000000 1.0
C      1  0.5356640000000  0.5688730000000  0.4835540000000 1.0
C      1  0.4979750000000  0.5437540000000  0.5391560000000 1.0
C      1  0.5617650000000  0.5230630000000  0.5159440000000 1.0
C      1  0.5079030000000  0.4888890000000  0.4223630000000 1.0
C      1  0.5283870000000  0.5339060000000  0.4207990000000 1.0
C      1  0.5350200000000  0.5156360000000  0.5045300000000 1.0
C      1  0.4344100000000  0.4399880000000  0.5159550000000 1.0
C      1  0.5409000000000  0.5581680000000  0.4581290000000 1.0
C      1  0.4201380000000  0.4771940000000  0.4946620000000 1.0
C      1  0.5182410000000  0.5637030000000  0.5445510000000 1.0
C      1  0.5153160000000  0.5188760000000  0.5257230000000 1.0
C      1  0.5348940000000  0.4867870000000  0.4917910000000 1.0
C      1  0.4686180000000  0.4390110000000  0.5483440000000 1.0
C      1  0.5094340000000  0.5731320000000  0.4960990000000 1.0
C      1  0.4438600000000  0.4822850000000  0.4763760000000 1.0
C      1  0.5548890000000  0.4726220000000  0.5360070000000 1.0
C      1  0.4587060000000  0.5344190000000  0.5602220000000 1.0
C      1  0.4862710000000  0.5363090000000  0.5643080000000 1.0
C      1  0.5812060000000  0.5048080000000  0.4803260000000 1.0
C      1  0.4851250000000  0.5583030000000  0.4942690000000 1.0
C      1  0.4752180000000  0.5480210000000  0.5208260000000 1.0
C      1  0.4778150000000  0.5428600000000  0.4701260000000 1.0
C      1  0.4679160000000  0.5060510000000  0.4378220000000 1.0
C      1  0.4283950000000  0.4599350000000  0.5357050000000 1.0
C      1  0.4629500000000  0.4847740000000  0.5585410000000 1.0
C      1  0.4843950000000  0.4977540000000  0.5091160000000 1.0
C      1  0.5757610000000  0.4760410000000  0.5164950000000 1.0
C      1  0.4800270000000  0.4808940000000  0.4273420000000 1.0
END
