TITL C-39547-5354-8 -0.302902790110425 125000 -771.316621849947 0 0 109 (C1) n - 1
REM
REM in /rds/project/t2_vol4/rds-t2-cs072/BORA/CARBON/from-Arr/AIRSS/Generating-Clusters/GAP-ML-2020/Only-C1/SD-CG/HFTN-CG
REM
REM
REM
REM
REM
REM ./C.cell (11c1c37f851c82e70ff6c80c92926a4b)
REM AIRSS Version 0.9.1 bugfix July 2018 build 013d7b7c2542+ Fri, 06 Jul 2018 19:26:36 +0100
REM compiler GCC version 9.3.0
REM options -cpp -mtune=generic -march=x86-64 -g -O0
REM seed 1839693899 -747217682 -418937617 -1215159893 -1241024293 2075861782 -1629796275 -954063167 -1389437023 860684045 1113140840 1940908371 -696044682 -2052679095 -1246249508 -1055483281 1050072694 -898137547 952454093 2038758833 -380545636 -1259995376 -1280345237 695169743 -1461158232 944244638 -61813938 2059613423 9521480 -802662421 419535042 -1234428892 1590458816
REM
CELL 1.54180   50.00000   50.00000   50.00000   90.00000   90.00000   90.00000
LATT -1
SFAC C  
C      1  0.4835840000000  0.4417140000000  0.5694200000000 1.0
C      1  0.4519420000000  0.4283350000000  0.5363680000000 1.0
C      1  0.4298290000000  0.4412840000000  0.4694760000000 1.0
C      1  0.4629990000000  0.4617510000000  0.5682660000000 1.0
C      1  0.5054820000000  0.5053930000000  0.4244330000000 1.0
C      1  0.5179650000000  0.5890280000000  0.4839640000000 1.0
C      1  0.5406720000000  0.4432510000000  0.4640390000000 1.0
C      1  0.4752140000000  0.4214250000000  0.5512230000000 1.0
C      1  0.4983730000000  0.4528550000000  0.4790720000000 1.0
C      1  0.5415910000000  0.5637740000000  0.4519630000000 1.0
C      1  0.5157020000000  0.4736620000000  0.5850220000000 1.0
C      1  0.5782070000000  0.4714960000000  0.4602190000000 1.0
C      1  0.5746130000000  0.4658270000000  0.5446480000000 1.0
C      1  0.4808150000000  0.5160580000000  0.4124500000000 1.0
C      1  0.4566890000000  0.5757390000000  0.4861130000000 1.0
C      1  0.5422010000000  0.5345240000000  0.4471520000000 1.0
C      1  0.5189350000000  0.4179990000000  0.5342550000000 1.0
C      1  0.4651030000000  0.5181350000000  0.5132700000000 1.0
C      1  0.6030390000000  0.4814200000000  0.4648270000000 1.0
C      1  0.4809490000000  0.5443540000000  0.4194940000000 1.0
C      1  0.4916860000000  0.4913620000000  0.4744780000000 1.0
C      1  0.5759450000000  0.5417340000000  0.4986030000000 1.0
C      1  0.4796730000000  0.4950860000000  0.5013880000000 1.0
C      1  0.5809180000000  0.5229080000000  0.4768290000000 1.0
C      1  0.4399210000000  0.5279110000000  0.4983690000000 1.0
C      1  0.4566000000000  0.5041020000000  0.4210360000000 1.0
C      1  0.4215510000000  0.5177460000000  0.4525150000000 1.0
C      1  0.5667290000000  0.4486630000000  0.4733300000000 1.0
C      1  0.4786840000000  0.5938040000000  0.4507160000000 1.0
C      1  0.5569090000000  0.5635400000000  0.4997320000000 1.0
C      1  0.5182540000000  0.5734810000000  0.5311710000000 1.0
C      1  0.5352430000000  0.4957870000000  0.5849760000000 1.0
C      1  0.5295980000000  0.4355600000000  0.5547330000000 1.0
C      1  0.5040800000000  0.5533120000000  0.5506000000000 1.0
C      1  0.5177780000000  0.5245490000000  0.4719630000000 1.0
C      1  0.5040620000000  0.5864040000000  0.5093760000000 1.0
C      1  0.4709890000000  0.5289810000000  0.4629360000000 1.0
C      1  0.5745530000000  0.4466380000000  0.5007530000000 1.0
C      1  0.5602660000000  0.5479290000000  0.5428400000000 1.0
C      1  0.4476160000000  0.4217960000000  0.4813890000000 1.0
C      1  0.4606860000000  0.5477480000000  0.4406500000000 1.0
C      1  0.5427320000000  0.5754650000000  0.4785550000000 1.0
C      1  0.4581010000000  0.4741470000000  0.5011090000000 1.0
C      1  0.4750980000000  0.5847570000000  0.5084080000000 1.0
C      1  0.4163170000000  0.4924990000000  0.5153800000000 1.0
C      1  0.5186840000000  0.5735480000000  0.4388290000000 1.0
C      1  0.4735410000000  0.5590520000000  0.5533850000000 1.0
C      1  0.5075110000000  0.5523750000000  0.4227700000000 1.0
C      1  0.5105620000000  0.4762630000000  0.4279370000000 1.0
C      1  0.5582030000000  0.4874970000000  0.4486950000000 1.0
C      1  0.4414030000000  0.4782640000000  0.5268480000000 1.0
C      1  0.5762440000000  0.4935540000000  0.5548640000000 1.0
C      1  0.5493040000000  0.5349550000000  0.5651730000000 1.0
C      1  0.5192320000000  0.4282700000000  0.4827000000000 1.0
C      1  0.5870870000000  0.4657830000000  0.5182350000000 1.0
C      1  0.5045380000000  0.5905440000000  0.4576870000000 1.0
C      1  0.5796290000000  0.5344630000000  0.5264720000000 1.0
C      1  0.5352340000000  0.4977660000000  0.5136450000000 1.0
C      1  0.5579440000000  0.5074610000000  0.5716800000000 1.0
C      1  0.5450670000000  0.5653450000000  0.5260770000000 1.0
C      1  0.5633740000000  0.5162650000000  0.4540820000000 1.0
C      1  0.5552000000000  0.4438870000000  0.5441340000000 1.0
C      1  0.4451080000000  0.5144050000000  0.4725850000000 1.0
C      1  0.4519080000000  0.5387820000000  0.5596430000000 1.0
C      1  0.5959620000000  0.4917970000000  0.5118910000000 1.0
C      1  0.4382240000000  0.5587090000000  0.4991350000000 1.0
C      1  0.4942060000000  0.4934340000000  0.5870150000000 1.0
C      1  0.4605210000000  0.4766500000000  0.4293810000000 1.0
C      1  0.4539730000000  0.4151240000000  0.5097140000000 1.0
C      1  0.4560660000000  0.5016160000000  0.5383850000000 1.0
C      1  0.4947470000000  0.5401490000000  0.4833290000000 1.0
C      1  0.5115100000000  0.4479960000000  0.5733640000000 1.0
C      1  0.4397180000000  0.5254910000000  0.4324040000000 1.0
C      1  0.5138180000000  0.5156000000000  0.5860540000000 1.0
C      1  0.5239210000000  0.5291640000000  0.4245970000000 1.0
C      1  0.4457060000000  0.4550380000000  0.5457680000000 1.0
C      1  0.5323070000000  0.4705430000000  0.4490890000000 1.0
C      1  0.4720350000000  0.4198620000000  0.4665430000000 1.0
C      1  0.4882300000000  0.5332370000000  0.5096820000000 1.0
C      1  0.5561910000000  0.4335090000000  0.5171490000000 1.0
C      1  0.5318630000000  0.4227490000000  0.5088590000000 1.0
C      1  0.5885300000000  0.5088280000000  0.5333650000000 1.0
C      1  0.4023510000000  0.5039590000000  0.4650060000000 1.0
C      1  0.4116630000000  0.4835800000000  0.4846080000000 1.0
C      1  0.4681040000000  0.4887330000000  0.5774940000000 1.0
C      1  0.5216900000000  0.5398300000000  0.5724550000000 1.0
C      1  0.4812920000000  0.4042110000000  0.5081440000000 1.0
C      1  0.4798390000000  0.4531840000000  0.5023180000000 1.0
C      1  0.5169480000000  0.5039590000000  0.5322220000000 1.0
C      1  0.5298310000000  0.5004590000000  0.4874930000000 1.0
C      1  0.5065340000000  0.5304300000000  0.5307000000000 1.0
C      1  0.4604500000000  0.5747860000000  0.4565800000000 1.0
C      1  0.4934760000000  0.4099510000000  0.4829550000000 1.0
C      1  0.4621800000000  0.5760450000000  0.5332580000000 1.0
C      1  0.4949420000000  0.4581070000000  0.5254670000000 1.0
C      1  0.4434150000000  0.4837650000000  0.4768700000000 1.0
C      1  0.4982240000000  0.4846650000000  0.5248180000000 1.0
C      1  0.4086930000000  0.4551940000000  0.4791320000000 1.0
C      1  0.4781560000000  0.4471270000000  0.4555960000000 1.0
C      1  0.4930960000000  0.4083090000000  0.5340790000000 1.0
C      1  0.4504050000000  0.4632220000000  0.4552500000000 1.0
C      1  0.5958570000000  0.4998240000000  0.4845820000000 1.0
C      1  0.4197290000000  0.5202260000000  0.5195120000000 1.0
C      1  0.4301170000000  0.5410580000000  0.5403570000000 1.0
C      1  0.4942520000000  0.5122240000000  0.4557190000000 1.0
C      1  0.4552390000000  0.5106310000000  0.5648580000000 1.0
C      1  0.4362910000000  0.5647690000000  0.5265480000000 1.0
C      1  0.4854770000000  0.4629660000000  0.4304860000000 1.0
C      1  0.5165630000000  0.4768830000000  0.4748160000000 1.0
END
