TITL C-39241-7582-7 -3.50386635456201 125000 -928.013489617363 0 0 133 (C1) n - 1
REM
REM in /rds/project/t2_vol4/rds-t2-cs072/BORA/CARBON/from-Arr/AIRSS/Generating-Clusters/GAP-ML-2020/Only-C1/SD-CG/HFTN-CG
REM
REM
REM
REM
REM
REM ./C.cell (11c1c37f851c82e70ff6c80c92926a4b)
REM AIRSS Version 0.9.1 bugfix July 2018 build 013d7b7c2542+ Fri, 06 Jul 2018 19:26:36 +0100
REM compiler GCC version 9.3.0
REM options -cpp -mtune=generic -march=x86-64 -g -O0
REM seed 199256353 -1559393617 -1008928943 -856154739 -1584729482 -156169683 -1153821450 1456775288 1070134552 -2080516190 -353535162 139715342 -709250694 -1859099257 349836261 -1283883965 1673758747 1132970778 1424641562 -402236877 -1125940498 -50321980 -2145150630 -351371951 -71584791 1462363703 498452524 -299940602 -2004066134 1883083868 720796841 -1391577555 1562970916
REM
CELL 1.54180   50.00000   50.00000   50.00000   90.00000   90.00000   90.00000
LATT -1
SFAC C  
C      1  0.5300530000000  0.4402360000000  0.5327560000000 1.0
C      1  0.5152100000000  0.4308070000000  0.5607220000000 1.0
C      1  0.5645700000000  0.5692450000000  0.5191780000000 1.0
C      1  0.5275090000000  0.5410760000000  0.5891560000000 1.0
C      1  0.5403290000000  0.5565780000000  0.5699690000000 1.0
C      1  0.4485410000000  0.5662340000000  0.4468520000000 1.0
C      1  0.4567720000000  0.5254450000000  0.4989440000000 1.0
C      1  0.4689590000000  0.5664650000000  0.5589080000000 1.0
C      1  0.5263160000000  0.4778610000000  0.5760670000000 1.0
C      1  0.5638230000000  0.5277990000000  0.4428890000000 1.0
C      1  0.4463750000000  0.5101840000000  0.5210900000000 1.0
C      1  0.5667100000000  0.5557470000000  0.4468860000000 1.0
C      1  0.5043520000000  0.4891540000000  0.4599440000000 1.0
C      1  0.5487260000000  0.4168440000000  0.5238780000000 1.0
C      1  0.4675320000000  0.4112720000000  0.4564630000000 1.0
C      1  0.4951790000000  0.5667030000000  0.4371150000000 1.0
C      1  0.4807250000000  0.5365530000000  0.5119180000000 1.0
C      1  0.4284670000000  0.5080510000000  0.5585940000000 1.0
C      1  0.5437150000000  0.5710300000000  0.4395590000000 1.0
C      1  0.5887810000000  0.4760030000000  0.5073390000000 1.0
C      1  0.4893560000000  0.4163130000000  0.4732680000000 1.0
C      1  0.5479100000000  0.4638660000000  0.5361860000000 1.0
C      1  0.4718230000000  0.5211890000000  0.5830320000000 1.0
C      1  0.5475020000000  0.5924800000000  0.4822310000000 1.0
C      1  0.5973710000000  0.5015430000000  0.5125070000000 1.0
C      1  0.4659120000000  0.4822100000000  0.4829270000000 1.0
C      1  0.5274330000000  0.5315820000000  0.4141100000000 1.0
C      1  0.4767350000000  0.4734300000000  0.5261860000000 1.0
C      1  0.5271970000000  0.5904820000000  0.5020510000000 1.0
C      1  0.4473130000000  0.4783910000000  0.4213360000000 1.0
C      1  0.5771510000000  0.4582340000000  0.5709980000000 1.0
C      1  0.4868530000000  0.4709440000000  0.4415550000000 1.0
C      1  0.4609920000000  0.5746020000000  0.4702060000000 1.0
C      1  0.4855430000000  0.5714940000000  0.5162710000000 1.0
C      1  0.5184490000000  0.4929010000000  0.5510640000000 1.0
C      1  0.5269280000000  0.4731470000000  0.4085980000000 1.0
C      1  0.5283480000000  0.4766680000000  0.4690100000000 1.0
C      1  0.5025880000000  0.5227920000000  0.5821370000000 1.0
C      1  0.5653690000000  0.4333240000000  0.5056360000000 1.0
C      1  0.4251760000000  0.5557410000000  0.5426590000000 1.0
C      1  0.4189900000000  0.4628350000000  0.4583500000000 1.0
C      1  0.4857770000000  0.5205560000000  0.5353420000000 1.0
C      1  0.4614110000000  0.4314270000000  0.4392700000000 1.0
C      1  0.4595940000000  0.5355480000000  0.4169880000000 1.0
C      1  0.4437780000000  0.5778000000000  0.4926740000000 1.0
C      1  0.5754340000000  0.4541650000000  0.5233020000000 1.0
C      1  0.5289040000000  0.5273700000000  0.5081120000000 1.0
C      1  0.5596580000000  0.5106300000000  0.5712500000000 1.0
C      1  0.4555130000000  0.4407780000000  0.5774020000000 1.0
C      1  0.5123420000000  0.4277420000000  0.4605490000000 1.0
C      1  0.4325500000000  0.5356640000000  0.5617670000000 1.0
C      1  0.3996580000000  0.4957740000000  0.4735970000000 1.0
C      1  0.5434960000000  0.5179180000000  0.5943160000000 1.0
C      1  0.4475090000000  0.5731400000000  0.5412850000000 1.0
C      1  0.4001250000000  0.5214430000000  0.4853450000000 1.0
C      1  0.5013240000000  0.5215320000000  0.4980580000000 1.0
C      1  0.4259660000000  0.5473550000000  0.4469650000000 1.0
C      1  0.5031740000000  0.4724660000000  0.5120060000000 1.0
C      1  0.4110850000000  0.4714950000000  0.4855130000000 1.0
C      1  0.4037000000000  0.5224800000000  0.5136920000000 1.0
C      1  0.4607650000000  0.4356890000000  0.5077260000000 1.0
C      1  0.4985480000000  0.4063130000000  0.5246530000000 1.0
C      1  0.4951270000000  0.4895100000000  0.4887330000000 1.0
C      1  0.5501370000000  0.4927320000000  0.4819330000000 1.0
C      1  0.4560210000000  0.4651180000000  0.5061830000000 1.0
C      1  0.4240580000000  0.4704430000000  0.5141410000000 1.0
C      1  0.4878990000000  0.4239350000000  0.5023180000000 1.0
C      1  0.5405180000000  0.4155800000000  0.5669340000000 1.0
C      1  0.5053020000000  0.5161250000000  0.4069840000000 1.0
C      1  0.5049990000000  0.5372610000000  0.4709380000000 1.0
C      1  0.4899970000000  0.4169440000000  0.5499700000000 1.0
C      1  0.5389930000000  0.5805840000000  0.5261540000000 1.0
C      1  0.4190110000000  0.5627890000000  0.4939080000000 1.0
C      1  0.4436180000000  0.4564390000000  0.4433240000000 1.0
C      1  0.5568190000000  0.4778720000000  0.5658920000000 1.0
C      1  0.5233900000000  0.5673150000000  0.5468310000000 1.0
C      1  0.5698250000000  0.5771410000000  0.4917520000000 1.0
C      1  0.4913000000000  0.5687470000000  0.4687600000000 1.0
C      1  0.4450960000000  0.4293540000000  0.5312770000000 1.0
C      1  0.4887240000000  0.5165330000000  0.4554260000000 1.0
C      1  0.5253760000000  0.4016600000000  0.5212260000000 1.0
C      1  0.5499050000000  0.4861750000000  0.4194810000000 1.0
C      1  0.5107790000000  0.4314880000000  0.4318670000000 1.0
C      1  0.4099200000000  0.4879600000000  0.4470830000000 1.0
C      1  0.4860980000000  0.4588100000000  0.5935710000000 1.0
C      1  0.5801990000000  0.4403260000000  0.5506740000000 1.0
C      1  0.5742760000000  0.4754220000000  0.4818890000000 1.0
C      1  0.4232550000000  0.4460420000000  0.5294440000000 1.0
C      1  0.5344670000000  0.5390430000000  0.4807170000000 1.0
C      1  0.4118650000000  0.5493520000000  0.5188570000000 1.0
C      1  0.4809470000000  0.5166430000000  0.4235030000000 1.0
C      1  0.4718460000000  0.4343790000000  0.6004580000000 1.0
C      1  0.5287880000000  0.5367670000000  0.5374970000000 1.0
C      1  0.4112850000000  0.5455450000000  0.4721050000000 1.0
C      1  0.5016080000000  0.5818870000000  0.4940610000000 1.0
C      1  0.4940960000000  0.5719480000000  0.5450120000000 1.0
C      1  0.4620020000000  0.5107010000000  0.4749070000000 1.0
C      1  0.5568920000000  0.5348000000000  0.5524610000000 1.0
C      1  0.5414540000000  0.5017950000000  0.5083690000000 1.0
C      1  0.5400780000000  0.5924080000000  0.4562790000000 1.0
C      1  0.4337130000000  0.5276280000000  0.4266820000000 1.0
C      1  0.5730920000000  0.4571010000000  0.4609370000000 1.0
C      1  0.5210990000000  0.5579390000000  0.4266800000000 1.0
C      1  0.4688820000000  0.5604560000000  0.4279050000000 1.0
C      1  0.5579090000000  0.4396380000000  0.4204460000000 1.0
C      1  0.5279890000000  0.4464200000000  0.4784970000000 1.0
C      1  0.5283340000000  0.4837130000000  0.5257290000000 1.0
C      1  0.5579170000000  0.4413180000000  0.4797750000000 1.0
C      1  0.5755900000000  0.5456010000000  0.5311540000000 1.0
C      1  0.4621330000000  0.4239440000000  0.5541490000000 1.0
C      1  0.5579240000000  0.5199010000000  0.4708120000000 1.0
C      1  0.5813710000000  0.5330760000000  0.4846360000000 1.0
C      1  0.5655900000000  0.4631000000000  0.4337500000000 1.0
C      1  0.4656950000000  0.4665680000000  0.4595090000000 1.0
C      1  0.4196210000000  0.5004220000000  0.5284450000000 1.0
C      1  0.5504040000000  0.5149400000000  0.4217550000000 1.0
C      1  0.5123860000000  0.4449660000000  0.5063480000000 1.0
C      1  0.4567490000000  0.4967290000000  0.5691320000000 1.0
C      1  0.5208060000000  0.5013430000000  0.5936850000000 1.0
C      1  0.4676630000000  0.4981670000000  0.5383480000000 1.0
C      1  0.5091290000000  0.5197200000000  0.5516680000000 1.0
C      1  0.5110910000000  0.4536710000000  0.5800620000000 1.0
C      1  0.4575550000000  0.5811690000000  0.5166410000000 1.0
C      1  0.5035040000000  0.4882050000000  0.4024750000000 1.0
C      1  0.4762310000000  0.4865960000000  0.4184000000000 1.0
C      1  0.5620530000000  0.4186650000000  0.5505470000000 1.0
C      1  0.4857390000000  0.4424060000000  0.4288280000000 1.0
C      1  0.4278590000000  0.4989880000000  0.4271270000000 1.0
C      1  0.5893220000000  0.5280000000000  0.5115090000000 1.0
C      1  0.5306160000000  0.4446640000000  0.4164300000000 1.0
C      1  0.4610740000000  0.4702330000000  0.5817000000000 1.0
C      1  0.5790840000000  0.5587290000000  0.4730650000000 1.0
C      1  0.4580120000000  0.5436700000000  0.5738990000000 1.0
END
