TITL C-39027-4652-10 -37.5557577911232 125000 -302.440334752153 0 0 46 (C1) n - 1
REM
REM in /rds/project/t2_vol4/rds-t2-cs072/BORA/CARBON/from-Arr/AIRSS/Generating-Clusters/GAP-ML-2020/Only-C1/SD-CG/HFTN-CG
REM
REM
REM
REM
REM
REM ./C.cell (11c1c37f851c82e70ff6c80c92926a4b)
REM AIRSS Version 0.9.1 bugfix July 2018 build 013d7b7c2542+ Fri, 06 Jul 2018 19:26:36 +0100
REM compiler GCC version 9.3.0
REM options -cpp -mtune=generic -march=x86-64 -g -O0
REM seed 1824412867 -777745868 -1069171591 1700256054 -1196646471 2042873246 704621333 311992592 541736992 2099994671 1818157277 1776670994 -1692675338 -867086732 -1862964117 1193746304 1134416020 -1812931266 2147019309 -1731594339 255078288 -1183640718 1584045143 1912606889 563301994 1899125548 -242530150 -1025283024 -334006249 1595215755 -2011919806 -1094758783 2041767431
REM
CELL 1.54180   50.00000   50.00000   50.00000   90.00000   90.00000   90.00000
LATT -1
SFAC C  
C      1  0.4903490000000  0.5564360000000  0.5464810000000 1.0
C      1  0.4754990000000  0.5016930000000  0.5453050000000 1.0
C      1  0.4518440000000  0.5329300000000  0.4669310000000 1.0
C      1  0.4874880000000  0.4940640000000  0.5169290000000 1.0
C      1  0.5353770000000  0.5178580000000  0.4807220000000 1.0
C      1  0.4503720000000  0.4811890000000  0.4808780000000 1.0
C      1  0.5311220000000  0.5359360000000  0.5248580000000 1.0
C      1  0.4824590000000  0.5442210000000  0.5011200000000 1.0
C      1  0.5067840000000  0.5580390000000  0.4904080000000 1.0
C      1  0.4764110000000  0.4902510000000  0.4393730000000 1.0
C      1  0.5546110000000  0.5048110000000  0.4997330000000 1.0
C      1  0.5068490000000  0.5037320000000  0.4760810000000 1.0
C      1  0.4677340000000  0.5528280000000  0.4762300000000 1.0
C      1  0.4858970000000  0.5125990000000  0.4949120000000 1.0
C      1  0.5381380000000  0.4848710000000  0.4500480000000 1.0
C      1  0.4498400000000  0.4642190000000  0.5312760000000 1.0
C      1  0.5178130000000  0.4746820000000  0.4730240000000 1.0
C      1  0.5204460000000  0.4914220000000  0.5605310000000 1.0
C      1  0.4662820000000  0.4731330000000  0.4603780000000 1.0
C      1  0.5286930000000  0.5427700000000  0.4971320000000 1.0
C      1  0.5495890000000  0.5081310000000  0.4574260000000 1.0
C      1  0.4937540000000  0.5582470000000  0.4635640000000 1.0
C      1  0.4542010000000  0.5114280000000  0.4843210000000 1.0
C      1  0.5008750000000  0.5392180000000  0.4456770000000 1.0
C      1  0.5461890000000  0.4940500000000  0.5470070000000 1.0
C      1  0.4728660000000  0.4535560000000  0.5456400000000 1.0
C      1  0.4991420000000  0.4528850000000  0.5379090000000 1.0
C      1  0.5652830000000  0.4798620000000  0.4973060000000 1.0
C      1  0.5040230000000  0.4714790000000  0.5164640000000 1.0
C      1  0.4959370000000  0.4566190000000  0.4576850000000 1.0
C      1  0.5178650000000  0.4923230000000  0.4317210000000 1.0
C      1  0.4435640000000  0.5096910000000  0.5121970000000 1.0
C      1  0.4572560000000  0.5215730000000  0.5334560000000 1.0
C      1  0.4628050000000  0.4778180000000  0.5537620000000 1.0
C      1  0.5464750000000  0.4664290000000  0.5393380000000 1.0
C      1  0.5500920000000  0.4614390000000  0.5118690000000 1.0
C      1  0.4993050000000  0.5113540000000  0.4473650000000 1.0
C      1  0.5204770000000  0.4627600000000  0.5524240000000 1.0
C      1  0.5092300000000  0.5364640000000  0.5443140000000 1.0
C      1  0.5246220000000  0.4649260000000  0.4986880000000 1.0
C      1  0.4975340000000  0.4733750000000  0.4299450000000 1.0
C      1  0.5478090000000  0.5132040000000  0.5262780000000 1.0
C      1  0.4447590000000  0.4800300000000  0.5097630000000 1.0
C      1  0.4984040000000  0.4292900000000  0.4587190000000 1.0
C      1  0.5010470000000  0.5108370000000  0.5568580000000 1.0
C      1  0.4728880000000  0.5453290000000  0.5279550000000 1.0
END
