TITL C-39240-7065-4 -3.3277998921382 125000 -124.906247447911 0 0 20 (C1) n - 1
REM
REM in /rds/project/t2_vol4/rds-t2-cs072/BORA/CARBON/from-Arr/AIRSS/Generating-Clusters/GAP-ML-2020/Only-C1/SD-CG/HFTN-CG
REM
REM
REM
REM
REM
REM ./C.cell (11c1c37f851c82e70ff6c80c92926a4b)
REM AIRSS Version 0.9.1 bugfix July 2018 build 013d7b7c2542+ Fri, 06 Jul 2018 19:26:36 +0100
REM compiler GCC version 9.3.0
REM options -cpp -mtune=generic -march=x86-64 -g -O0
REM seed 2147172657 -1136889370 -210977158 -1707653247 1771600341 333122927 -1236877033 -2090717304 1105566603 -1642902900 -856903447 231350324 -481044992 -1128531342 -462794405 471734118 215053629 299003391 -1389914835 -74997932 -726815999 458873259 1501856952 -918645929 -1618015627 -1402548515 -794278524 -1512141962 -1341163316 -1260295810 1069370590 -1661460531 -881050366
REM
CELL 1.54180   50.00000   50.00000   50.00000   90.00000   90.00000   90.00000
LATT -1
SFAC C  
C      1  0.4668040000000  0.4883250000000  0.5505050000000 1.0
C      1  0.4813340000000  0.4807400000000  0.5697320000000 1.0
C      1  0.5125950000000  0.4615060000000  0.4413190000000 1.0
C      1  0.5864510000000  0.4655500000000  0.5115930000000 1.0
C      1  0.5107160000000  0.4777130000000  0.4620870000000 1.0
C      1  0.4469300000000  0.4889430000000  0.5030660000000 1.0
C      1  0.4933800000000  0.5346470000000  0.4895030000000 1.0
C      1  0.4646310000000  0.4749040000000  0.4877830000000 1.0
C      1  0.4863480000000  0.5555130000000  0.5338090000000 1.0
C      1  0.5146750000000  0.5218450000000  0.4748290000000 1.0
C      1  0.4533860000000  0.4990890000000  0.5299230000000 1.0
C      1  0.5692900000000  0.4847450000000  0.5005680000000 1.0
C      1  0.5531760000000  0.4939750000000  0.4822870000000 1.0
C      1  0.4382060000000  0.5163220000000  0.4960560000000 1.0
C      1  0.5896480000000  0.4892890000000  0.5194980000000 1.0
C      1  0.4843080000000  0.4856980000000  0.4731520000000 1.0
C      1  0.4776320000000  0.5421520000000  0.5128700000000 1.0
C      1  0.4876560000000  0.5138250000000  0.4730430000000 1.0
C      1  0.4528850000000  0.5262270000000  0.5183330000000 1.0
C      1  0.5299490000000  0.4989920000000  0.4700440000000 1.0
END
