TITL C-39020-4853-5 0.171756486712511 125000 -857.101186888812 0 0 122 (C1) n - 1
REM
REM in /rds/project/t2_vol4/rds-t2-cs072/BORA/CARBON/from-Arr/AIRSS/Generating-Clusters/GAP-ML-2020/Only-C1/SD-CG/HFTN-CG
REM
REM
REM
REM
REM
REM ./C.cell (11c1c37f851c82e70ff6c80c92926a4b)
REM AIRSS Version 0.9.1 bugfix July 2018 build 013d7b7c2542+ Fri, 06 Jul 2018 19:26:36 +0100
REM compiler GCC version 9.3.0
REM options -cpp -mtune=generic -march=x86-64 -g -O0
REM seed -81765561 1726265455 612026562 2063548486 -520821252 1668989596 536314133 -957162688 1260493049 1246985796 -115534189 -805105127 -1766134094 -148076797 1818477011 -1408835257 869729591 -1596896007 16489892 -402207276 1015504482 -1657434735 2109818562 425372857 -280755648 1917639556 -1752336948 -1875905440 1566407594 -509065572 -821162340 -1620518253 1749024942
REM
CELL 1.54180   50.00000   50.00000   50.00000   90.00000   90.00000   90.00000
LATT -1
SFAC C  
C      1  0.5853850000000  0.5188860000000  0.4656940000000 1.0
C      1  0.5378480000000  0.4624730000000  0.4932950000000 1.0
C      1  0.5067930000000  0.5474080000000  0.4249430000000 1.0
C      1  0.5091410000000  0.5833070000000  0.4968190000000 1.0
C      1  0.4951300000000  0.4604360000000  0.5780590000000 1.0
C      1  0.5197250000000  0.4316580000000  0.4325830000000 1.0
C      1  0.5042650000000  0.4270510000000  0.5466930000000 1.0
C      1  0.4284950000000  0.5393340000000  0.5459550000000 1.0
C      1  0.4616990000000  0.5176390000000  0.5756740000000 1.0
C      1  0.5866470000000  0.4804590000000  0.5003720000000 1.0
C      1  0.4554670000000  0.5436000000000  0.4268440000000 1.0
C      1  0.4897000000000  0.4298290000000  0.5025040000000 1.0
C      1  0.5721000000000  0.5198290000000  0.5322280000000 1.0
C      1  0.5923650000000  0.4654430000000  0.4585580000000 1.0
C      1  0.4239360000000  0.5269950000000  0.4624620000000 1.0
C      1  0.5565670000000  0.4828990000000  0.4917110000000 1.0
C      1  0.4648240000000  0.4632870000000  0.5298270000000 1.0
C      1  0.4367910000000  0.5230690000000  0.4368810000000 1.0
C      1  0.5106750000000  0.5546930000000  0.5007170000000 1.0
C      1  0.4884370000000  0.4038960000000  0.4876370000000 1.0
C      1  0.4763580000000  0.4277830000000  0.5489260000000 1.0
C      1  0.4816800000000  0.5788250000000  0.4524210000000 1.0
C      1  0.5084350000000  0.5681110000000  0.4455120000000 1.0
C      1  0.5553460000000  0.5515380000000  0.4504490000000 1.0
C      1  0.4820960000000  0.5022520000000  0.5547460000000 1.0
C      1  0.4213290000000  0.5044960000000  0.4799490000000 1.0
C      1  0.5053390000000  0.5085660000000  0.5138100000000 1.0
C      1  0.4684160000000  0.4486720000000  0.5680350000000 1.0
C      1  0.5957270000000  0.4567670000000  0.4845810000000 1.0
C      1  0.4563000000000  0.4183060000000  0.4732470000000 1.0
C      1  0.4944730000000  0.5749790000000  0.5413750000000 1.0
C      1  0.5522700000000  0.5274720000000  0.4334030000000 1.0
C      1  0.5338900000000  0.5497250000000  0.5995710000000 1.0
C      1  0.4421080000000  0.4627270000000  0.5544580000000 1.0
C      1  0.5567430000000  0.5717990000000  0.5078640000000 1.0
C      1  0.4863170000000  0.4519030000000  0.4785810000000 1.0
C      1  0.4740720000000  0.4351930000000  0.4538360000000 1.0
C      1  0.4818410000000  0.5252240000000  0.4734980000000 1.0
C      1  0.5249610000000  0.5596850000000  0.5758360000000 1.0
C      1  0.5197850000000  0.4993730000000  0.6023320000000 1.0
C      1  0.4747920000000  0.5449180000000  0.5764260000000 1.0
C      1  0.5819170000000  0.4731450000000  0.5295330000000 1.0
C      1  0.4716710000000  0.4984040000000  0.5952590000000 1.0
C      1  0.4733320000000  0.4823440000000  0.5104150000000 1.0
C      1  0.4825850000000  0.4984430000000  0.4650390000000 1.0
C      1  0.5762310000000  0.5460190000000  0.4694260000000 1.0
C      1  0.4425760000000  0.4966460000000  0.4278390000000 1.0
C      1  0.4650910000000  0.4930440000000  0.4102440000000 1.0
C      1  0.4269970000000  0.4539170000000  0.4928650000000 1.0
C      1  0.5505240000000  0.4845640000000  0.5609790000000 1.0
C      1  0.5653040000000  0.4496570000000  0.5340650000000 1.0
C      1  0.4767660000000  0.5083460000000  0.5251120000000 1.0
C      1  0.5152050000000  0.4299840000000  0.5186580000000 1.0
C      1  0.4157830000000  0.4608200000000  0.5178600000000 1.0
C      1  0.5082980000000  0.4748660000000  0.4105980000000 1.0
C      1  0.4292200000000  0.4905090000000  0.5513530000000 1.0
C      1  0.4981050000000  0.4199340000000  0.4455180000000 1.0
C      1  0.4812710000000  0.4725910000000  0.5536100000000 1.0
C      1  0.5266530000000  0.5264000000000  0.4194960000000 1.0
C      1  0.4153210000000  0.4882960000000  0.5263340000000 1.0
C      1  0.5457970000000  0.5081630000000  0.4942380000000 1.0
C      1  0.4999230000000  0.5491840000000  0.5266010000000 1.0
C      1  0.5074890000000  0.5288880000000  0.4871750000000 1.0
C      1  0.4637550000000  0.5886160000000  0.5044050000000 1.0
C      1  0.4652520000000  0.5374090000000  0.4910000000000 1.0
C      1  0.5432860000000  0.4314580000000  0.4494880000000 1.0
C      1  0.4246720000000  0.4458480000000  0.5401170000000 1.0
C      1  0.5321290000000  0.5000640000000  0.5758450000000 1.0
C      1  0.4449620000000  0.4320110000000  0.4963730000000 1.0
C      1  0.5713460000000  0.5069380000000  0.4434970000000 1.0
C      1  0.5279780000000  0.4562920000000  0.4196570000000 1.0
C      1  0.5406050000000  0.4195160000000  0.5027290000000 1.0
C      1  0.4357240000000  0.4774740000000  0.4738700000000 1.0
C      1  0.5350780000000  0.4155350000000  0.4744300000000 1.0
C      1  0.5945690000000  0.5088330000000  0.4914460000000 1.0
C      1  0.5248820000000  0.4590170000000  0.5211550000000 1.0
C      1  0.5257170000000  0.5747360000000  0.5513280000000 1.0
C      1  0.5725010000000  0.4947650000000  0.5452130000000 1.0
C      1  0.5878660000000  0.5292280000000  0.5104310000000 1.0
C      1  0.4574560000000  0.5674860000000  0.4404910000000 1.0
C      1  0.5043730000000  0.4787600000000  0.5097800000000 1.0
C      1  0.5666520000000  0.4296890000000  0.5127040000000 1.0
C      1  0.4446390000000  0.5642210000000  0.5442180000000 1.0
C      1  0.5169470000000  0.4454670000000  0.5641470000000 1.0
C      1  0.5896280000000  0.4329350000000  0.4976560000000 1.0
C      1  0.4951040000000  0.4838140000000  0.5973030000000 1.0
C      1  0.5529250000000  0.4564400000000  0.4356310000000 1.0
C      1  0.5267720000000  0.5130800000000  0.4745100000000 1.0
C      1  0.4810570000000  0.5381180000000  0.4157540000000 1.0
C      1  0.5356350000000  0.5775280000000  0.4871360000000 1.0
C      1  0.5112510000000  0.5038430000000  0.4076090000000 1.0
C      1  0.5766960000000  0.5528970000000  0.4971810000000 1.0
C      1  0.5344870000000  0.5692000000000  0.4590150000000 1.0
C      1  0.5027270000000  0.5379270000000  0.5793490000000 1.0
C      1  0.4649740000000  0.3934080000000  0.4790750000000 1.0
C      1  0.4720920000000  0.5353990000000  0.5176490000000 1.0
C      1  0.5473030000000  0.5768360000000  0.5340750000000 1.0
C      1  0.4628490000000  0.4549660000000  0.4349540000000 1.0
C      1  0.5091710000000  0.4066540000000  0.4682280000000 1.0
C      1  0.4414670000000  0.5752630000000  0.5177440000000 1.0
C      1  0.4635590000000  0.5862780000000  0.4758100000000 1.0
C      1  0.4238080000000  0.5541630000000  0.4747930000000 1.0
C      1  0.5167980000000  0.5283600000000  0.6051590000000 1.0
C      1  0.4843230000000  0.5128460000000  0.4050230000000 1.0
C      1  0.5732870000000  0.4769700000000  0.4423860000000 1.0
C      1  0.4229930000000  0.5578300000000  0.5033520000000 1.0
C      1  0.4142610000000  0.5098010000000  0.5077820000000 1.0
C      1  0.4412990000000  0.4730950000000  0.4438090000000 1.0
C      1  0.5402720000000  0.4591510000000  0.5486830000000 1.0
C      1  0.4167710000000  0.5358440000000  0.5197900000000 1.0
C      1  0.4352170000000  0.5162290000000  0.5619340000000 1.0
C      1  0.4409930000000  0.5732470000000  0.4630480000000 1.0
C      1  0.4694290000000  0.5662130000000  0.5585490000000 1.0
C      1  0.5103430000000  0.5146180000000  0.5612980000000 1.0
C      1  0.5453010000000  0.5225120000000  0.5207500000000 1.0
C      1  0.5116900000000  0.4685290000000  0.4806190000000 1.0
C      1  0.5104600000000  0.4910970000000  0.4634900000000 1.0
C      1  0.4673220000000  0.4781230000000  0.4817770000000 1.0
C      1  0.5189450000000  0.5249300000000  0.5341780000000 1.0
C      1  0.4659580000000  0.4344420000000  0.5203290000000 1.0
C      1  0.4890500000000  0.5905380000000  0.5165040000000 1.0
C      1  0.4790660000000  0.4688440000000  0.4152150000000 1.0
END
