TITL C-39554-955-4 0.266977119869496 125000 -678.780694767005 0 0 97 (C1) n - 1
REM
REM in /rds/project/t2_vol4/rds-t2-cs072/BORA/CARBON/from-Arr/AIRSS/Generating-Clusters/GAP-ML-2020/Only-C1/SD-CG/HFTN-CG
REM
REM
REM
REM
REM
REM ./C.cell (11c1c37f851c82e70ff6c80c92926a4b)
REM AIRSS Version 0.9.1 bugfix July 2018 build 013d7b7c2542+ Fri, 06 Jul 2018 19:26:36 +0100
REM compiler GCC version 9.3.0
REM options -cpp -mtune=generic -march=x86-64 -g -O0
REM seed -771032907 -2004972367 -1744103192 -1467551985 1318161033 -1835853550 -1921530841 -1917031955 1063465219 388430648 -437813008 -1977182290 810060370 67062651 -486452769 -1993732659 -2061147195 -2046948049 891389168 -2138378182 -1837601656 -1913174549 616924485 1229595289 1040934452 -1905904644 -157433975 897565080 1431237552 -1897187456 1391304176 -1518408075 -768528722
REM
CELL 1.54180   50.00000   50.00000   50.00000   90.00000   90.00000   90.00000
LATT -1
SFAC C  
C      1  0.4733120000000  0.5623680000000  0.5513670000000 1.0
C      1  0.4908000000000  0.4304690000000  0.5475910000000 1.0
C      1  0.4716910000000  0.5296620000000  0.5107030000000 1.0
C      1  0.5638510000000  0.4422580000000  0.4852530000000 1.0
C      1  0.5278760000000  0.5640170000000  0.5383530000000 1.0
C      1  0.5317460000000  0.4723450000000  0.5436040000000 1.0
C      1  0.4486810000000  0.4372440000000  0.4735040000000 1.0
C      1  0.4616570000000  0.4821900000000  0.5017660000000 1.0
C      1  0.4980700000000  0.5731000000000  0.5034890000000 1.0
C      1  0.4153470000000  0.5004100000000  0.5028430000000 1.0
C      1  0.4671270000000  0.5165630000000  0.4233920000000 1.0
C      1  0.4284880000000  0.5528980000000  0.5034560000000 1.0
C      1  0.5282840000000  0.4781150000000  0.4355270000000 1.0
C      1  0.4991480000000  0.5499100000000  0.4794410000000 1.0
C      1  0.5354330000000  0.4509770000000  0.4438010000000 1.0
C      1  0.5814430000000  0.4928000000000  0.5396670000000 1.0
C      1  0.5042030000000  0.4070110000000  0.5093720000000 1.0
C      1  0.5122540000000  0.4364230000000  0.4498250000000 1.0
C      1  0.5407060000000  0.4296990000000  0.5259040000000 1.0
C      1  0.4987060000000  0.5627120000000  0.5318460000000 1.0
C      1  0.5167720000000  0.5192440000000  0.5160470000000 1.0
C      1  0.5693550000000  0.5323620000000  0.4884060000000 1.0
C      1  0.5004160000000  0.4595890000000  0.4892270000000 1.0
C      1  0.5655390000000  0.4813600000000  0.4597410000000 1.0
C      1  0.5151410000000  0.5256400000000  0.4868600000000 1.0
C      1  0.5923460000000  0.5137220000000  0.5229170000000 1.0
C      1  0.4911900000000  0.4826570000000  0.5302200000000 1.0
C      1  0.4920170000000  0.4568860000000  0.4589490000000 1.0
C      1  0.5139320000000  0.4197650000000  0.5325350000000 1.0
C      1  0.4947950000000  0.5322780000000  0.5294260000000 1.0
C      1  0.4570660000000  0.5563870000000  0.4954670000000 1.0
C      1  0.5399710000000  0.5015240000000  0.5719700000000 1.0
C      1  0.4618000000000  0.4549720000000  0.4544240000000 1.0
C      1  0.4695060000000  0.5978290000000  0.4714520000000 1.0
C      1  0.4793360000000  0.4909900000000  0.4278380000000 1.0
C      1  0.5522390000000  0.4530910000000  0.5375700000000 1.0
C      1  0.4654120000000  0.5599270000000  0.4436170000000 1.0
C      1  0.4429530000000  0.5041450000000  0.4378420000000 1.0
C      1  0.5045400000000  0.5540400000000  0.4262040000000 1.0
C      1  0.4537570000000  0.5019100000000  0.5622840000000 1.0
C      1  0.5592580000000  0.4530570000000  0.4590170000000 1.0
C      1  0.4070550000000  0.5452750000000  0.4881880000000 1.0
C      1  0.5007490000000  0.4838320000000  0.4470110000000 1.0
C      1  0.5805900000000  0.5398110000000  0.5312480000000 1.0
C      1  0.4280620000000  0.5399720000000  0.5294240000000 1.0
C      1  0.4666580000000  0.4141620000000  0.4792220000000 1.0
C      1  0.5428060000000  0.5678720000000  0.5132760000000 1.0
C      1  0.5816310000000  0.4857350000000  0.4840010000000 1.0
C      1  0.4407280000000  0.4415670000000  0.5245570000000 1.0
C      1  0.4688470000000  0.5469700000000  0.4692130000000 1.0
C      1  0.5496660000000  0.4965710000000  0.4388920000000 1.0
C      1  0.4311390000000  0.4754030000000  0.5020450000000 1.0
C      1  0.4773360000000  0.5432250000000  0.4233770000000 1.0
C      1  0.4960800000000  0.5221090000000  0.5600710000000 1.0
C      1  0.5455400000000  0.4922140000000  0.4814000000000 1.0
C      1  0.5793700000000  0.4618570000000  0.5001820000000 1.0
C      1  0.4758520000000  0.5861380000000  0.4474160000000 1.0
C      1  0.5392290000000  0.5464030000000  0.5578400000000 1.0
C      1  0.5193280000000  0.5674770000000  0.4631800000000 1.0
C      1  0.5441000000000  0.5214860000000  0.4758770000000 1.0
C      1  0.5457980000000  0.4239260000000  0.4980850000000 1.0
C      1  0.4726610000000  0.5061380000000  0.4909050000000 1.0
C      1  0.4205070000000  0.5119120000000  0.5285130000000 1.0
C      1  0.5253540000000  0.5772080000000  0.4931930000000 1.0
C      1  0.5668170000000  0.5519500000000  0.5094380000000 1.0
C      1  0.4721990000000  0.5829520000000  0.4934500000000 1.0
C      1  0.4457810000000  0.5494930000000  0.5493850000000 1.0
C      1  0.4806220000000  0.4628590000000  0.5113400000000 1.0
C      1  0.4928230000000  0.4453880000000  0.5700240000000 1.0
C      1  0.4587500000000  0.5204360000000  0.4699130000000 1.0
C      1  0.4776620000000  0.5420290000000  0.5714710000000 1.0
C      1  0.4835840000000  0.4018010000000  0.4613400000000 1.0
C      1  0.4339360000000  0.4459000000000  0.4956060000000 1.0
C      1  0.5237800000000  0.5250130000000  0.5685450000000 1.0
C      1  0.5194740000000  0.4809000000000  0.4924080000000 1.0
C      1  0.5436900000000  0.5237740000000  0.4460240000000 1.0
C      1  0.4554710000000  0.4771590000000  0.4379650000000 1.0
C      1  0.5028380000000  0.5794780000000  0.4426550000000 1.0
C      1  0.5655240000000  0.5069120000000  0.5596690000000 1.0
C      1  0.5286140000000  0.5462100000000  0.4403310000000 1.0
C      1  0.4766800000000  0.4131180000000  0.5060420000000 1.0
C      1  0.4309530000000  0.4674980000000  0.5317480000000 1.0
C      1  0.5878660000000  0.5112090000000  0.4953730000000 1.0
C      1  0.4122540000000  0.5188390000000  0.4806150000000 1.0
C      1  0.5097530000000  0.4107940000000  0.4620930000000 1.0
C      1  0.5755060000000  0.4664620000000  0.5280860000000 1.0
C      1  0.4521230000000  0.5296240000000  0.5691040000000 1.0
C      1  0.4829590000000  0.4933580000000  0.5587600000000 1.0
C      1  0.4979880000000  0.4716300000000  0.5752800000000 1.0
C      1  0.4694610000000  0.4340240000000  0.5253170000000 1.0
C      1  0.4323050000000  0.5161910000000  0.4607600000000 1.0
C      1  0.5010820000000  0.5007580000000  0.4777240000000 1.0
C      1  0.5254030000000  0.4778160000000  0.5704010000000 1.0
C      1  0.5228450000000  0.4092030000000  0.4879560000000 1.0
C      1  0.4323330000000  0.4917770000000  0.5461100000000 1.0
C      1  0.5182080000000  0.4901690000000  0.5211260000000 1.0
C      1  0.5654640000000  0.5354680000000  0.5541040000000 1.0
END
