TITL C-39043-4939-12 0.084509640046678 125000 -257.674347289607 0 0 37 (C1) n - 1
REM
REM in /rds/project/t2_vol4/rds-t2-cs072/BORA/CARBON/from-Arr/AIRSS/Generating-Clusters/GAP-ML-2020/Only-C1/SD-CG/HFTN-CG
REM
REM
REM
REM
REM
REM ./C.cell (11c1c37f851c82e70ff6c80c92926a4b)
REM AIRSS Version 0.9.1 bugfix July 2018 build 013d7b7c2542+ Fri, 06 Jul 2018 19:26:36 +0100
REM compiler GCC version 9.3.0
REM options -cpp -mtune=generic -march=x86-64 -g -O0
REM seed -1380675552 449505130 -45737023 1772743501 -1428996345 -1746774788 -415418933 -816257656 887885125 302592042 107296942 730884324 -217036102 -1567459054 -936128116 160168023 1264833456 109941710 1152407014 1099490703 1023309572 -1979846163 570637993 431739657 -808116187 2068476018 -1970508902 -1087109643 -1515394274 790742732 -492052003 540688372 1351366277
REM
CELL 1.54180   50.00000   50.00000   50.00000   90.00000   90.00000   90.00000
LATT -1
SFAC C  
C      1  0.5427120000000  0.5328660000000  0.4864420000000 1.0
C      1  0.4921650000000  0.5577400000000  0.5022390000000 1.0
C      1  0.4668260000000  0.4723160000000  0.5396740000000 1.0
C      1  0.5530420000000  0.4941710000000  0.5095530000000 1.0
C      1  0.4868300000000  0.4827330000000  0.5565320000000 1.0
C      1  0.5509210000000  0.5054360000000  0.4829870000000 1.0
C      1  0.5096340000000  0.4463190000000  0.4838480000000 1.0
C      1  0.5247480000000  0.5425810000000  0.4676730000000 1.0
C      1  0.5070400000000  0.5225810000000  0.5605690000000 1.0
C      1  0.5109600000000  0.5247170000000  0.4493990000000 1.0
C      1  0.5274770000000  0.5042560000000  0.5500270000000 1.0
C      1  0.5001150000000  0.4479600000000  0.5116210000000 1.0
C      1  0.4642230000000  0.5201480000000  0.4673860000000 1.0
C      1  0.4666410000000  0.4916040000000  0.4598900000000 1.0
C      1  0.4434500000000  0.5116390000000  0.5129160000000 1.0
C      1  0.4942250000000  0.4429650000000  0.4613460000000 1.0
C      1  0.5124400000000  0.5514570000000  0.5231760000000 1.0
C      1  0.4536010000000  0.4715090000000  0.4744350000000 1.0
C      1  0.5421350000000  0.4681870000000  0.5089860000000 1.0
C      1  0.4535840000000  0.5293140000000  0.4937130000000 1.0
C      1  0.5439480000000  0.5134890000000  0.5289600000000 1.0
C      1  0.4909880000000  0.4549190000000  0.4387960000000 1.0
C      1  0.4853830000000  0.5071180000000  0.5710120000000 1.0
C      1  0.5366150000000  0.4864440000000  0.4658220000000 1.0
C      1  0.4537720000000  0.4660130000000  0.5000720000000 1.0
C      1  0.4646250000000  0.5530980000000  0.5046310000000 1.0
C      1  0.5371440000000  0.5380420000000  0.5150180000000 1.0
C      1  0.4902310000000  0.4826820000000  0.4449340000000 1.0
C      1  0.5333100000000  0.4625790000000  0.4819730000000 1.0
C      1  0.5150860000000  0.4970590000000  0.4486720000000 1.0
C      1  0.5042730000000  0.5472350000000  0.5493660000000 1.0
C      1  0.4734220000000  0.4534770000000  0.5184100000000 1.0
C      1  0.4994640000000  0.5549330000000  0.4754430000000 1.0
C      1  0.4477300000000  0.4867440000000  0.5212060000000 1.0
C      1  0.5149180000000  0.4785460000000  0.5482240000000 1.0
C      1  0.4850210000000  0.5365770000000  0.4577100000000 1.0
C      1  0.5213000000000  0.4605460000000  0.5273390000000 1.0
END
