TITL C-39045-4804-7 -2.8845876077505 125000 -689.278166818726 0 0 100 (C1) n - 1
REM
REM in /rds/project/t2_vol4/rds-t2-cs072/BORA/CARBON/from-Arr/AIRSS/Generating-Clusters/GAP-ML-2020/Only-C1/SD-CG/HFTN-CG
REM
REM
REM
REM
REM
REM ./C.cell (11c1c37f851c82e70ff6c80c92926a4b)
REM AIRSS Version 0.9.1 bugfix July 2018 build 013d7b7c2542+ Fri, 06 Jul 2018 19:26:36 +0100
REM compiler GCC version 9.3.0
REM options -cpp -mtune=generic -march=x86-64 -g -O0
REM seed -1653084584 -1984783891 1081227240 -1173410177 -1264958519 -592432026 -595156233 1213328608 240864660 -2076805623 -1485872034 -2009997035 1729386105 602855631 -415736238 876067686 1849456623 509048139 1475141506 -1593778525 1715308874 1475914621 2117690393 -992933528 1841286981 -1963669208 350109134 1254495207 -322531164 555655077 -739997785 -1155360498 -1647687052
REM
CELL 1.54180   50.00000   50.00000   50.00000   90.00000   90.00000   90.00000
LATT -1
SFAC C  
C      1  0.4472600000000  0.5201150000000  0.5006450000000 1.0
C      1  0.5634030000000  0.5285810000000  0.4423020000000 1.0
C      1  0.5102780000000  0.4841850000000  0.4698340000000 1.0
C      1  0.5789420000000  0.4813760000000  0.4605430000000 1.0
C      1  0.4586990000000  0.5571110000000  0.5615330000000 1.0
C      1  0.4954560000000  0.5461180000000  0.5853380000000 1.0
C      1  0.5015140000000  0.4110210000000  0.5090610000000 1.0
C      1  0.5470260000000  0.4497140000000  0.5490670000000 1.0
C      1  0.4778920000000  0.5893650000000  0.4989190000000 1.0
C      1  0.5477380000000  0.5066150000000  0.4332180000000 1.0
C      1  0.4601110000000  0.4654550000000  0.5447740000000 1.0
C      1  0.4400770000000  0.4366910000000  0.4650290000000 1.0
C      1  0.4774280000000  0.5235690000000  0.5866430000000 1.0
C      1  0.4413030000000  0.4583030000000  0.5230390000000 1.0
C      1  0.5571990000000  0.5020740000000  0.5561600000000 1.0
C      1  0.4714120000000  0.4923990000000  0.5309990000000 1.0
C      1  0.5734140000000  0.4570240000000  0.5521780000000 1.0
C      1  0.4869430000000  0.5008430000000  0.4799830000000 1.0
C      1  0.5035630000000  0.5516060000000  0.4656940000000 1.0
C      1  0.5776230000000  0.5360460000000  0.4664750000000 1.0
C      1  0.5060210000000  0.5257730000000  0.5353910000000 1.0
C      1  0.5281500000000  0.5058380000000  0.4823630000000 1.0
C      1  0.4586990000000  0.4752050000000  0.5721200000000 1.0
C      1  0.5277040000000  0.5695220000000  0.5447580000000 1.0
C      1  0.5457590000000  0.4540180000000  0.4474340000000 1.0
C      1  0.5565120000000  0.4511220000000  0.5004260000000 1.0
C      1  0.5665730000000  0.4772920000000  0.5070930000000 1.0
C      1  0.4465180000000  0.4923800000000  0.4218910000000 1.0
C      1  0.4558390000000  0.4777910000000  0.4457590000000 1.0
C      1  0.4674600000000  0.4969220000000  0.5004900000000 1.0
C      1  0.5425350000000  0.4978830000000  0.5065560000000 1.0
C      1  0.5219050000000  0.5366420000000  0.5842310000000 1.0
C      1  0.4823160000000  0.4380700000000  0.4233300000000 1.0
C      1  0.5007880000000  0.5971640000000  0.4857440000000 1.0
C      1  0.5453430000000  0.5661360000000  0.5213350000000 1.0
C      1  0.4909120000000  0.4171960000000  0.4585900000000 1.0
C      1  0.5425790000000  0.4435400000000  0.4756840000000 1.0
C      1  0.5337830000000  0.4154880000000  0.4829400000000 1.0
C      1  0.4894130000000  0.4458940000000  0.4664890000000 1.0
C      1  0.4677790000000  0.5036660000000  0.4599560000000 1.0
C      1  0.4340610000000  0.5617540000000  0.4890720000000 1.0
C      1  0.5581840000000  0.4796930000000  0.4430920000000 1.0
C      1  0.4206040000000  0.5090400000000  0.4638290000000 1.0
C      1  0.4217420000000  0.4834070000000  0.4793900000000 1.0
C      1  0.4775680000000  0.5834280000000  0.5272990000000 1.0
C      1  0.4933830000000  0.5001700000000  0.5914350000000 1.0
C      1  0.5123310000000  0.4572590000000  0.4813990000000 1.0
C      1  0.5700260000000  0.4806150000000  0.5387930000000 1.0
C      1  0.4611690000000  0.4178130000000  0.4629610000000 1.0
C      1  0.5204810000000  0.5448320000000  0.4411880000000 1.0
C      1  0.4855310000000  0.4344350000000  0.5210850000000 1.0
C      1  0.4847800000000  0.5664940000000  0.5690290000000 1.0
C      1  0.4793070000000  0.4607660000000  0.4421980000000 1.0
C      1  0.4260840000000  0.4810110000000  0.5096770000000 1.0
C      1  0.4543140000000  0.5650260000000  0.5332850000000 1.0
C      1  0.5609560000000  0.5426870000000  0.5273480000000 1.0
C      1  0.5062760000000  0.4066390000000  0.4804360000000 1.0
C      1  0.4742030000000  0.5560290000000  0.4640660000000 1.0
C      1  0.5643340000000  0.5219800000000  0.5093450000000 1.0
C      1  0.5211340000000  0.5078270000000  0.5878390000000 1.0
C      1  0.5206540000000  0.5185680000000  0.4274260000000 1.0
C      1  0.4492320000000  0.4237330000000  0.4878450000000 1.0
C      1  0.5299470000000  0.4149500000000  0.5114140000000 1.0
C      1  0.4992400000000  0.5788610000000  0.5470520000000 1.0
C      1  0.5051320000000  0.4266070000000  0.4322600000000 1.0
C      1  0.5471230000000  0.5524150000000  0.4453570000000 1.0
C      1  0.4349350000000  0.5325300000000  0.4764860000000 1.0
C      1  0.5814330000000  0.5182950000000  0.4875000000000 1.0
C      1  0.4308530000000  0.5657790000000  0.5156740000000 1.0
C      1  0.4833530000000  0.4457420000000  0.5477310000000 1.0
C      1  0.5285810000000  0.4628040000000  0.5671630000000 1.0
C      1  0.4560840000000  0.5286700000000  0.5677850000000 1.0
C      1  0.5378350000000  0.5491010000000  0.5646630000000 1.0
C      1  0.4698690000000  0.5097020000000  0.4147760000000 1.0
C      1  0.4277280000000  0.5097250000000  0.4343910000000 1.0
C      1  0.5591390000000  0.5597290000000  0.4707610000000 1.0
C      1  0.5381070000000  0.4901500000000  0.5741500000000 1.0
C      1  0.4627520000000  0.5362350000000  0.5203070000000 1.0
C      1  0.5118770000000  0.4573850000000  0.5111240000000 1.0
C      1  0.4524700000000  0.5141630000000  0.5414610000000 1.0
C      1  0.5834050000000  0.4898160000000  0.4852070000000 1.0
C      1  0.5377680000000  0.4410520000000  0.5213400000000 1.0
C      1  0.4606700000000  0.5725950000000  0.4819400000000 1.0
C      1  0.4347910000000  0.4642590000000  0.4619660000000 1.0
C      1  0.5032810000000  0.4771800000000  0.4379250000000 1.0
C      1  0.5195850000000  0.4844910000000  0.5202960000000 1.0
C      1  0.5213970000000  0.4509790000000  0.4341660000000 1.0
C      1  0.5433270000000  0.5710150000000  0.4916570000000 1.0
C      1  0.5049940000000  0.5263870000000  0.4865610000000 1.0
C      1  0.4837360000000  0.4748760000000  0.5829760000000 1.0
C      1  0.4500390000000  0.5277810000000  0.4276120000000 1.0
C      1  0.4929920000000  0.5343250000000  0.5133190000000 1.0
C      1  0.5562650000000  0.5308310000000  0.5527980000000 1.0
C      1  0.5000320000000  0.4996220000000  0.5334560000000 1.0
C      1  0.4975600000000  0.5022970000000  0.4210470000000 1.0
C      1  0.4568980000000  0.4368230000000  0.5115670000000 1.0
C      1  0.5174270000000  0.5771910000000  0.4791120000000 1.0
C      1  0.5009400000000  0.4562510000000  0.5678600000000 1.0
C      1  0.4575470000000  0.5339820000000  0.4555430000000 1.0
C      1  0.4306630000000  0.5064390000000  0.5215450000000 1.0
END
