TITL C-39043-4939-6 137.396474454279 125000 -632.164858458126 0 0 91 (C1) n - 1
REM
REM in /rds/project/t2_vol4/rds-t2-cs072/BORA/CARBON/from-Arr/AIRSS/Generating-Clusters/GAP-ML-2020/Only-C1/SD-CG/HFTN-CG
REM
REM
REM
REM
REM
REM ./C.cell (11c1c37f851c82e70ff6c80c92926a4b)
REM AIRSS Version 0.9.1 bugfix July 2018 build 013d7b7c2542+ Fri, 06 Jul 2018 19:26:36 +0100
REM compiler GCC version 9.3.0
REM options -cpp -mtune=generic -march=x86-64 -g -O0
REM seed -344538117 1762377418 1826631264 1852286138 59525181 -1679334736 -75173022 -2115475288 -1239779912 -1228581854 294552215 2122374004 1201289742 903954022 -1682710503 -1037121696 -246161722 981062596 586215672 -440247685 415531656 -1208503274 -1199019389 1879680124 -770338708 1621882853 -1976514754 -622692830 -1927705148 651453784 -888750696 1944588277 -450534287
REM
CELL 1.54180   50.00000   50.00000   50.00000   90.00000   90.00000   90.00000
LATT -1
SFAC C  
C      1  0.5793990000000  0.5035260000000  0.4522010000000 1.0
C      1  0.4743120000000  0.5568810000000  0.4426110000000 1.0
C      1  0.5372350000000  0.5472620000000  0.4698950000000 1.0
C      1  0.4475730000000  0.4656890000000  0.5089700000000 1.0
C      1  0.4675280000000  0.4584410000000  0.5321330000000 1.0
C      1  0.5013430000000  0.5253360000000  0.5738190000000 1.0
C      1  0.4833480000000  0.4342140000000  0.5221610000000 1.0
C      1  0.4764730000000  0.4298870000000  0.4951600000000 1.0
C      1  0.5256540000000  0.4843400000000  0.4157670000000 1.0
C      1  0.5127100000000  0.5315850000000  0.4348550000000 1.0
C      1  0.5678080000000  0.4790760000000  0.4411560000000 1.0
C      1  0.5292460000000  0.4880230000000  0.5648770000000 1.0
C      1  0.5798800000000  0.5360170000000  0.4909730000000 1.0
C      1  0.4535390000000  0.5100420000000  0.5755400000000 1.0
C      1  0.5347060000000  0.5165770000000  0.5402320000000 1.0
C      1  0.5166370000000  0.5680790000000  0.4635850000000 1.0
C      1  0.4132110000000  0.4836930000000  0.4842500000000 1.0
C      1  0.4737270000000  0.5312550000000  0.5748460000000 1.0
C      1  0.5517340000000  0.4670960000000  0.4619490000000 1.0
C      1  0.5059030000000  0.4933130000000  0.4786490000000 1.0
C      1  0.4645600000000  0.5512610000000  0.5574460000000 1.0
C      1  0.4448460000000  0.5251410000000  0.4518970000000 1.0
C      1  0.5048750000000  0.4424430000000  0.4522420000000 1.0
C      1  0.4387100000000  0.5533580000000  0.5185210000000 1.0
C      1  0.5598730000000  0.5154570000000  0.4350060000000 1.0
C      1  0.5614020000000  0.5573600000000  0.4834750000000 1.0
C      1  0.4234240000000  0.5100100000000  0.4992140000000 1.0
C      1  0.4449760000000  0.4830750000000  0.4460150000000 1.0
C      1  0.4771860000000  0.5090840000000  0.5319930000000 1.0
C      1  0.5394050000000  0.4619140000000  0.5598590000000 1.0
C      1  0.4925660000000  0.4534010000000  0.5714430000000 1.0
C      1  0.4431390000000  0.4492630000000  0.4636850000000 1.0
C      1  0.4881110000000  0.4592800000000  0.4354970000000 1.0
C      1  0.5515430000000  0.5638100000000  0.5099610000000 1.0
C      1  0.4576230000000  0.5012130000000  0.4650800000000 1.0
C      1  0.4902440000000  0.4849350000000  0.5272740000000 1.0
C      1  0.4739430000000  0.5149830000000  0.5064970000000 1.0
C      1  0.5078160000000  0.5591500000000  0.5369750000000 1.0
C      1  0.5855050000000  0.5105620000000  0.4791130000000 1.0
C      1  0.4272840000000  0.5396160000000  0.4958650000000 1.0
C      1  0.4859260000000  0.5061510000000  0.4618370000000 1.0
C      1  0.5365780000000  0.5235650000000  0.4511460000000 1.0
C      1  0.5457860000000  0.4963440000000  0.4974870000000 1.0
C      1  0.5658240000000  0.5373840000000  0.5167910000000 1.0
C      1  0.4633490000000  0.5695330000000  0.5152530000000 1.0
C      1  0.5661930000000  0.5144240000000  0.5376100000000 1.0
C      1  0.4800390000000  0.5650400000000  0.5386960000000 1.0
C      1  0.5024140000000  0.5574170000000  0.4420690000000 1.0
C      1  0.4995850000000  0.4845910000000  0.4232150000000 1.0
C      1  0.4976840000000  0.4276870000000  0.4763910000000 1.0
C      1  0.5328180000000  0.4445230000000  0.4608190000000 1.0
C      1  0.5171060000000  0.5371670000000  0.5529330000000 1.0
C      1  0.4400030000000  0.5437780000000  0.5455550000000 1.0
C      1  0.5207390000000  0.5641650000000  0.5108600000000 1.0
C      1  0.5115450000000  0.4346620000000  0.5298970000000 1.0
C      1  0.4244530000000  0.4717510000000  0.4623070000000 1.0
C      1  0.5716770000000  0.4628580000000  0.4844620000000 1.0
C      1  0.4958440000000  0.5202700000000  0.4879130000000 1.0
C      1  0.5395920000000  0.5216130000000  0.5102840000000 1.0
C      1  0.5359440000000  0.4752360000000  0.5169250000000 1.0
C      1  0.4653300000000  0.4581490000000  0.5620190000000 1.0
C      1  0.4529970000000  0.4445230000000  0.4893870000000 1.0
C      1  0.5505710000000  0.4916460000000  0.4209430000000 1.0
C      1  0.5194470000000  0.4905720000000  0.5365670000000 1.0
C      1  0.5748440000000  0.4890210000000  0.5281570000000 1.0
C      1  0.5177960000000  0.4554390000000  0.5062530000000 1.0
C      1  0.4312050000000  0.5196630000000  0.5585670000000 1.0
C      1  0.5599800000000  0.4367350000000  0.5209710000000 1.0
C      1  0.5043580000000  0.5770560000000  0.4880780000000 1.0
C      1  0.4904940000000  0.5127050000000  0.4329380000000 1.0
C      1  0.4522950000000  0.4971490000000  0.4948950000000 1.0
C      1  0.4609640000000  0.4590130000000  0.4423690000000 1.0
C      1  0.4653490000000  0.5322260000000  0.4330560000000 1.0
C      1  0.4391180000000  0.5464100000000  0.4708830000000 1.0
C      1  0.4624020000000  0.4830310000000  0.5786830000000 1.0
C      1  0.4087730000000  0.5061970000000  0.5489860000000 1.0
C      1  0.5352330000000  0.4228170000000  0.5146910000000 1.0
C      1  0.4180210000000  0.4714190000000  0.5106590000000 1.0
C      1  0.4131330000000  0.4969020000000  0.5241790000000 1.0
C      1  0.5758150000000  0.4893910000000  0.4973860000000 1.0
C      1  0.4967970000000  0.4743140000000  0.4986460000000 1.0
C      1  0.5573960000000  0.4636490000000  0.5354670000000 1.0
C      1  0.5158080000000  0.4451120000000  0.5570980000000 1.0
C      1  0.4898710000000  0.4788040000000  0.5862600000000 1.0
C      1  0.5341740000000  0.4953490000000  0.4703780000000 1.0
C      1  0.5204180000000  0.5369840000000  0.4946470000000 1.0
C      1  0.4756800000000  0.5752970000000  0.4899850000000 1.0
C      1  0.4608680000000  0.5649160000000  0.4670950000000 1.0
C      1  0.5749150000000  0.4407940000000  0.4988980000000 1.0
C      1  0.5090910000000  0.4988200000000  0.5814050000000 1.0
C      1  0.5247630000000  0.4320850000000  0.4873150000000 1.0
END
