TITL C-39236-6426-10 -0.124818620510502 125000 -420.218723023658 0 0 62 (C1) n - 1
REM
REM in /rds/project/t2_vol4/rds-t2-cs072/BORA/CARBON/from-Arr/AIRSS/Generating-Clusters/GAP-ML-2020/Only-C1/SD-CG/HFTN-CG
REM
REM
REM
REM
REM
REM ./C.cell (11c1c37f851c82e70ff6c80c92926a4b)
REM AIRSS Version 0.9.1 bugfix July 2018 build 013d7b7c2542+ Fri, 06 Jul 2018 19:26:36 +0100
REM compiler GCC version 9.3.0
REM options -cpp -mtune=generic -march=x86-64 -g -O0
REM seed -687672744 125815588 1765895404 80742746 -1990754970 -1899133484 -678226525 -138343391 1395625087 1567034687 971734024 1238559868 1076599199 1211344160 -1684423153 1494156811 718942085 -436659912 -544426197 400824848 -1423403536 -1050850037 884138861 220142595 1883168903 -2032698753 2140952915 -442922513 -255934385 -867658826 -589388221 910670643 -803010832
REM
CELL 1.54180   50.00000   50.00000   50.00000   90.00000   90.00000   90.00000
LATT -1
SFAC C  
C      1  0.5150150000000  0.5141890000000  0.5284760000000 1.0
C      1  0.4961820000000  0.4905810000000  0.5845870000000 1.0
C      1  0.5135450000000  0.4514230000000  0.4603320000000 1.0
C      1  0.5775230000000  0.5261760000000  0.5114920000000 1.0
C      1  0.4945130000000  0.5744350000000  0.4871850000000 1.0
C      1  0.5232950000000  0.4990400000000  0.5757350000000 1.0
C      1  0.4586450000000  0.5258260000000  0.4456380000000 1.0
C      1  0.5041140000000  0.5424500000000  0.4348230000000 1.0
C      1  0.5465480000000  0.4534990000000  0.5037720000000 1.0
C      1  0.5354660000000  0.5439410000000  0.4917550000000 1.0
C      1  0.4627460000000  0.5409340000000  0.4686190000000 1.0
C      1  0.4829250000000  0.5595050000000  0.5080530000000 1.0
C      1  0.5145790000000  0.4545410000000  0.5593100000000 1.0
C      1  0.5434940000000  0.5362860000000  0.4636410000000 1.0
C      1  0.4871980000000  0.4982770000000  0.4169690000000 1.0
C      1  0.5182290000000  0.5404280000000  0.5457840000000 1.0
C      1  0.4732040000000  0.4377550000000  0.5042070000000 1.0
C      1  0.4681210000000  0.5512060000000  0.5494790000000 1.0
C      1  0.5487780000000  0.4836690000000  0.5071330000000 1.0
C      1  0.4584510000000  0.4754840000000  0.4458900000000 1.0
C      1  0.4479230000000  0.5339360000000  0.5425840000000 1.0
C      1  0.4590370000000  0.4706760000000  0.4749850000000 1.0
C      1  0.4867830000000  0.4841150000000  0.4928220000000 1.0
C      1  0.4535360000000  0.4753030000000  0.5329580000000 1.0
C      1  0.4394120000000  0.4735130000000  0.4968000000000 1.0
C      1  0.5179320000000  0.5655290000000  0.4774980000000 1.0
C      1  0.4870630000000  0.5124320000000  0.5017330000000 1.0
C      1  0.4669740000000  0.5350320000000  0.4972860000000 1.0
C      1  0.4694450000000  0.4415000000000  0.4767080000000 1.0
C      1  0.4959750000000  0.4707550000000  0.4209620000000 1.0
C      1  0.4515740000000  0.4539290000000  0.5151440000000 1.0
C      1  0.5713640000000  0.5014410000000  0.5091670000000 1.0
C      1  0.4702860000000  0.5212280000000  0.5564760000000 1.0
C      1  0.5001880000000  0.4719590000000  0.5179210000000 1.0
C      1  0.5016740000000  0.4428620000000  0.5116250000000 1.0
C      1  0.5218910000000  0.4483910000000  0.4890830000000 1.0
C      1  0.4631810000000  0.5009660000000  0.4327680000000 1.0
C      1  0.5186550000000  0.4712560000000  0.4377810000000 1.0
C      1  0.5411500000000  0.5090290000000  0.4595040000000 1.0
C      1  0.5167570000000  0.5191510000000  0.4984720000000 1.0
C      1  0.5140860000000  0.5262030000000  0.5715080000000 1.0
C      1  0.4756100000000  0.4556120000000  0.4336850000000 1.0
C      1  0.4870620000000  0.4391580000000  0.4546060000000 1.0
C      1  0.4911080000000  0.5563970000000  0.5351080000000 1.0
C      1  0.5238260000000  0.5529630000000  0.4519740000000 1.0
C      1  0.4864800000000  0.5082820000000  0.5339530000000 1.0
C      1  0.5437800000000  0.4380760000000  0.5260040000000 1.0
C      1  0.5256880000000  0.4868450000000  0.5281830000000 1.0
C      1  0.4812620000000  0.4798070000000  0.5397950000000 1.0
C      1  0.5108520000000  0.4760900000000  0.4775460000000 1.0
C      1  0.4443810000000  0.5234330000000  0.5162580000000 1.0
C      1  0.5558270000000  0.5455560000000  0.5148010000000 1.0
C      1  0.5286410000000  0.4988990000000  0.4366310000000 1.0
C      1  0.4775310000000  0.5464080000000  0.4455310000000 1.0
C      1  0.4405250000000  0.4955190000000  0.5158240000000 1.0
C      1  0.4910600000000  0.4702450000000  0.5653220000000 1.0
C      1  0.5289840000000  0.4789920000000  0.5562840000000 1.0
C      1  0.5183330000000  0.4375970000000  0.5360610000000 1.0
C      1  0.4871620000000  0.5181990000000  0.5788640000000 1.0
C      1  0.5438960000000  0.5510380000000  0.5387160000000 1.0
C      1  0.5313980000000  0.4961840000000  0.4842750000000 1.0
C      1  0.5091340000000  0.5158490000000  0.4239150000000 1.0
END
