TITL C-39533-2252-8 273.50369566353 125000 -132.13958054664 0 0 21 (C1) n - 1
REM
REM in /rds/project/t2_vol4/rds-t2-cs072/BORA/CARBON/from-Arr/AIRSS/Generating-Clusters/GAP-ML-2020/Only-C1/SD-CG/HFTN-CG
REM
REM
REM
REM
REM
REM ./C.cell (11c1c37f851c82e70ff6c80c92926a4b)
REM AIRSS Version 0.9.1 bugfix July 2018 build 013d7b7c2542+ Fri, 06 Jul 2018 19:26:36 +0100
REM compiler GCC version 9.3.0
REM options -cpp -mtune=generic -march=x86-64 -g -O0
REM seed -112584401 1496751441 1397478329 -1338204495 -519246700 -896840067 -2092714535 906212726 711961604 547219173 1037704345 1530641196 1806842812 1001835052 -1482317065 -1734599593 217036556 -271108927 -1380256578 66587198 -1495046978 -1019855593 985787165 -1514592142 463368525 -328563429 -665304428 121967441 2070028877 -1106336222 -493471809 -1032303459 -267157511
REM
CELL 1.54180   50.00000   50.00000   50.00000   90.00000   90.00000   90.00000
LATT -1
SFAC C  
C      1  0.4512600000000  0.4693210000000  0.5204710000000 1.0
C      1  0.4553210000000  0.5179050000000  0.5204490000000 1.0
C      1  0.5044140000000  0.5042250000000  0.4929250000000 1.0
C      1  0.4498680000000  0.4945860000000  0.5068890000000 1.0
C      1  0.5426260000000  0.4487550000000  0.4973370000000 1.0
C      1  0.4552340000000  0.4947470000000  0.4795510000000 1.0
C      1  0.5342880000000  0.4725170000000  0.4856160000000 1.0
C      1  0.5337390000000  0.5548300000000  0.5093240000000 1.0
C      1  0.5214210000000  0.4434050000000  0.5129860000000 1.0
C      1  0.5259310000000  0.5066850000000  0.5132590000000 1.0
C      1  0.5096240000000  0.5515150000000  0.4920380000000 1.0
C      1  0.4611400000000  0.4970810000000  0.4552760000000 1.0
C      1  0.4726060000000  0.4560540000000  0.5193750000000 1.0
C      1  0.5223610000000  0.5331640000000  0.5249660000000 1.0
C      1  0.4703500000000  0.5381430000000  0.5235950000000 1.0
C      1  0.4971680000000  0.4577920000000  0.5066990000000 1.0
C      1  0.5363180000000  0.5155380000000  0.4706160000000 1.0
C      1  0.5118230000000  0.5267190000000  0.4751790000000 1.0
C      1  0.4952100000000  0.5419590000000  0.5153960000000 1.0
C      1  0.5446420000000  0.4986950000000  0.4922970000000 1.0
C      1  0.5046550000000  0.4763650000000  0.4857560000000 1.0
END
