TITL C-39030-4522-8 -0.119899606780065 125000 -426.125151928982 0 0 62 (C1) n - 1
REM
REM in /rds/project/t2_vol4/rds-t2-cs072/BORA/CARBON/from-Arr/AIRSS/Generating-Clusters/GAP-ML-2020/Only-C1/SD-CG/HFTN-CG
REM
REM
REM
REM
REM
REM ./C.cell (11c1c37f851c82e70ff6c80c92926a4b)
REM AIRSS Version 0.9.1 bugfix July 2018 build 013d7b7c2542+ Fri, 06 Jul 2018 19:26:36 +0100
REM compiler GCC version 9.3.0
REM options -cpp -mtune=generic -march=x86-64 -g -O0
REM seed -26059036 427970549 710224074 685591685 1734723390 -191730921 -1401244701 1637170592 1472628715 277109747 -1244708400 1172324100 1273948147 -915649684 295498918 -1022654295 1749849241 -1823184460 1387509330 -1191432330 -396934476 1577113023 -627905778 1810100002 1620610767 455342452 1450883986 1037004563 1076346937 1795864671 -1091290172 -321832305 2000577328
REM
CELL 1.54180   50.00000   50.00000   50.00000   90.00000   90.00000   90.00000
LATT -1
SFAC C  
C      1  0.5505230000000  0.4904950000000  0.5209400000000 1.0
C      1  0.5283100000000  0.5077920000000  0.5602890000000 1.0
C      1  0.4368760000000  0.4918640000000  0.5180300000000 1.0
C      1  0.4861120000000  0.4902520000000  0.5691070000000 1.0
C      1  0.5450610000000  0.5147690000000  0.5377390000000 1.0
C      1  0.5156670000000  0.4817060000000  0.4792930000000 1.0
C      1  0.5077530000000  0.5628800000000  0.4683280000000 1.0
C      1  0.4539300000000  0.5497630000000  0.5214450000000 1.0
C      1  0.5313570000000  0.4815880000000  0.5702080000000 1.0
C      1  0.4475890000000  0.5049610000000  0.5430930000000 1.0
C      1  0.4613230000000  0.4846770000000  0.5571100000000 1.0
C      1  0.5047140000000  0.4692410000000  0.5730360000000 1.0
C      1  0.4993380000000  0.5510330000000  0.4436480000000 1.0
C      1  0.5425910000000  0.5260260000000  0.4664900000000 1.0
C      1  0.4580530000000  0.4663990000000  0.4361020000000 1.0
C      1  0.4573920000000  0.4591350000000  0.5446590000000 1.0
C      1  0.4864920000000  0.4786460000000  0.4859150000000 1.0
C      1  0.5180710000000  0.5077060000000  0.4247590000000 1.0
C      1  0.5001290000000  0.5148660000000  0.5638890000000 1.0
C      1  0.5415440000000  0.4345000000000  0.5008230000000 1.0
C      1  0.5166350000000  0.5366850000000  0.4268020000000 1.0
C      1  0.4588440000000  0.4454770000000  0.5047630000000 1.0
C      1  0.5332580000000  0.5542810000000  0.4778000000000 1.0
C      1  0.4857950000000  0.5363500000000  0.5516670000000 1.0
C      1  0.5372840000000  0.5571210000000  0.5049300000000 1.0
C      1  0.4421480000000  0.4642460000000  0.5199480000000 1.0
C      1  0.4790020000000  0.5055110000000  0.4986200000000 1.0
C      1  0.4753200000000  0.4526500000000  0.4529810000000 1.0
C      1  0.4450520000000  0.5086570000000  0.4961580000000 1.0
C      1  0.4740410000000  0.4403890000000  0.5303750000000 1.0
C      1  0.4965680000000  0.5565050000000  0.5336840000000 1.0
C      1  0.4698340000000  0.4926280000000  0.4335550000000 1.0
C      1  0.5261780000000  0.4615810000000  0.4612170000000 1.0
C      1  0.5017740000000  0.4380800000000  0.5335950000000 1.0
C      1  0.5241640000000  0.5603410000000  0.5290410000000 1.0
C      1  0.4978270000000  0.5233940000000  0.4882000000000 1.0
C      1  0.4780450000000  0.5631490000000  0.5130410000000 1.0
C      1  0.4589040000000  0.5313690000000  0.5430690000000 1.0
C      1  0.5448430000000  0.5412300000000  0.5279250000000 1.0
C      1  0.4718390000000  0.4543580000000  0.4815850000000 1.0
C      1  0.5662890000000  0.4902210000000  0.4946280000000 1.0
C      1  0.4386840000000  0.5456650000000  0.4760140000000 1.0
C      1  0.4932370000000  0.4860980000000  0.5144020000000 1.0
C      1  0.5043740000000  0.4620200000000  0.4433330000000 1.0
C      1  0.4400640000000  0.5173470000000  0.4667510000000 1.0
C      1  0.5674360000000  0.4623310000000  0.4883890000000 1.0
C      1  0.5384420000000  0.5238950000000  0.4374610000000 1.0
C      1  0.5421690000000  0.4591680000000  0.5564500000000 1.0
C      1  0.5587530000000  0.4654080000000  0.5348080000000 1.0
C      1  0.5182310000000  0.4452420000000  0.5117150000000 1.0
C      1  0.5178900000000  0.5105890000000  0.4753970000000 1.0
C      1  0.5142650000000  0.4465470000000  0.5577220000000 1.0
C      1  0.4835180000000  0.5673920000000  0.4847630000000 1.0
C      1  0.5638660000000  0.4476560000000  0.5130260000000 1.0
C      1  0.4590210000000  0.5170020000000  0.4449520000000 1.0
C      1  0.4722410000000  0.5431970000000  0.4457540000000 1.0
C      1  0.5208730000000  0.4765630000000  0.5089140000000 1.0
C      1  0.4375810000000  0.5377980000000  0.5029770000000 1.0
C      1  0.4995230000000  0.4873020000000  0.4304770000000 1.0
C      1  0.4622640000000  0.5582930000000  0.4679780000000 1.0
C      1  0.5473580000000  0.4480210000000  0.4732250000000 1.0
C      1  0.5637430000000  0.5099420000000  0.4770010000000 1.0
END
