TITL C-39552-907-7 603.274453943178 125000 -606.335078649678 0 0 88 (C1) n - 1
REM
REM in /rds/project/t2_vol4/rds-t2-cs072/BORA/CARBON/from-Arr/AIRSS/Generating-Clusters/GAP-ML-2020/Only-C1/SD-CG/HFTN-CG
REM
REM
REM
REM
REM
REM ./C.cell (11c1c37f851c82e70ff6c80c92926a4b)
REM AIRSS Version 0.9.1 bugfix July 2018 build 013d7b7c2542+ Fri, 06 Jul 2018 19:26:36 +0100
REM compiler GCC version 9.3.0
REM options -cpp -mtune=generic -march=x86-64 -g -O0
REM seed 562834888 2040837781 1701985038 1882803333 -256588131 -208030552 908706788 -1280993555 1624477145 1088653760 473330164 -1548160891 2007944515 -1822525916 408119137 -1532525717 -1780231482 -1979256327 -533805592 -2052328659 212212909 898011445 -1508029815 -1950076418 613356351 -1107190202 -2089932423 -1210051082 -362458489 1486962944 -1500621879 692318160 -1411295966
REM
CELL 1.54180   50.00000   50.00000   50.00000   90.00000   90.00000   90.00000
LATT -1
SFAC C  
C      1  0.5028910000000  0.5651500000000  0.4535550000000 1.0
C      1  0.4756490000000  0.4704200000000  0.4215280000000 1.0
C      1  0.4768130000000  0.5040850000000  0.4956200000000 1.0
C      1  0.4461020000000  0.4411640000000  0.4931630000000 1.0
C      1  0.4927370000000  0.5264180000000  0.4865750000000 1.0
C      1  0.5493530000000  0.5260100000000  0.5528360000000 1.0
C      1  0.4418460000000  0.5303060000000  0.5682210000000 1.0
C      1  0.4261230000000  0.4840580000000  0.4810220000000 1.0
C      1  0.5251480000000  0.4546960000000  0.4326200000000 1.0
C      1  0.5223740000000  0.5431700000000  0.5563610000000 1.0
C      1  0.5201630000000  0.5213380000000  0.4843330000000 1.0
C      1  0.5051000000000  0.4259050000000  0.4702720000000 1.0
C      1  0.5058820000000  0.5688480000000  0.5509790000000 1.0
C      1  0.5668980000000  0.4584460000000  0.5201170000000 1.0
C      1  0.5137700000000  0.5791010000000  0.5256300000000 1.0
C      1  0.5391820000000  0.5064810000000  0.5712960000000 1.0
C      1  0.4364800000000  0.4686100000000  0.5286750000000 1.0
C      1  0.5577160000000  0.4353830000000  0.5047950000000 1.0
C      1  0.4927090000000  0.5203030000000  0.4281260000000 1.0
C      1  0.4518710000000  0.4452770000000  0.5366480000000 1.0
C      1  0.4267510000000  0.5374920000000  0.4794830000000 1.0
C      1  0.5317100000000  0.4963480000000  0.4913110000000 1.0
C      1  0.4871460000000  0.5475380000000  0.4367000000000 1.0
C      1  0.5381710000000  0.5493270000000  0.4869420000000 1.0
C      1  0.5464660000000  0.5366520000000  0.4433800000000 1.0
C      1  0.5372710000000  0.4957690000000  0.5223570000000 1.0
C      1  0.4454790000000  0.5525150000000  0.4631440000000 1.0
C      1  0.4465960000000  0.4745640000000  0.4604830000000 1.0
C      1  0.4300330000000  0.4642920000000  0.5012830000000 1.0
C      1  0.5028230000000  0.4636660000000  0.5062240000000 1.0
C      1  0.5040430000000  0.4753120000000  0.4314710000000 1.0
C      1  0.4950360000000  0.4730900000000  0.4610400000000 1.0
C      1  0.5746750000000  0.5200380000000  0.5053400000000 1.0
C      1  0.5082490000000  0.4176750000000  0.4978990000000 1.0
C      1  0.4458500000000  0.5720260000000  0.5072760000000 1.0
C      1  0.4808530000000  0.5498960000000  0.4999550000000 1.0
C      1  0.4566030000000  0.4473490000000  0.4680850000000 1.0
C      1  0.5695920000000  0.5313920000000  0.4598890000000 1.0
C      1  0.5139620000000  0.5028260000000  0.4249960000000 1.0
C      1  0.5799690000000  0.4701390000000  0.4969100000000 1.0
C      1  0.4702500000000  0.4802200000000  0.5581930000000 1.0
C      1  0.4546370000000  0.4835700000000  0.4318650000000 1.0
C      1  0.4565320000000  0.5747920000000  0.5328210000000 1.0
C      1  0.5203910000000  0.4503850000000  0.5272690000000 1.0
C      1  0.5405430000000  0.5109140000000  0.4307150000000 1.0
C      1  0.4990410000000  0.5741060000000  0.5020180000000 1.0
C      1  0.5598870000000  0.4911650000000  0.4399100000000 1.0
C      1  0.5519550000000  0.4640420000000  0.4375000000000 1.0
C      1  0.5315920000000  0.4284210000000  0.5108230000000 1.0
C      1  0.4681000000000  0.5393060000000  0.5711120000000 1.0
C      1  0.5769020000000  0.5038840000000  0.4602320000000 1.0
C      1  0.4483980000000  0.4922090000000  0.5414560000000 1.0
C      1  0.5090430000000  0.5025180000000  0.5324610000000 1.0
C      1  0.4987260000000  0.4377030000000  0.5450190000000 1.0
C      1  0.4790020000000  0.5385580000000  0.5271570000000 1.0
C      1  0.5554780000000  0.4431370000000  0.4579180000000 1.0
C      1  0.4839640000000  0.4440370000000  0.4621480000000 1.0
C      1  0.4923300000000  0.4973860000000  0.5606090000000 1.0
C      1  0.5662750000000  0.5404810000000  0.4864510000000 1.0
C      1  0.5822130000000  0.4969010000000  0.4886840000000 1.0
C      1  0.5425830000000  0.4777300000000  0.5662600000000 1.0
C      1  0.4733590000000  0.4526930000000  0.5522610000000 1.0
C      1  0.5165900000000  0.5247570000000  0.5782970000000 1.0
C      1  0.4891560000000  0.5793980000000  0.4746760000000 1.0
C      1  0.5705910000000  0.4466190000000  0.4809550000000 1.0
C      1  0.5437980000000  0.4696900000000  0.5354540000000 1.0
C      1  0.5078740000000  0.5326290000000  0.5299570000000 1.0
C      1  0.4304920000000  0.5157200000000  0.5486640000000 1.0
C      1  0.4922020000000  0.4876370000000  0.5136400000000 1.0
C      1  0.5295200000000  0.5552480000000  0.4578790000000 1.0
C      1  0.4757690000000  0.5604890000000  0.5492700000000 1.0
C      1  0.4218290000000  0.5106460000000  0.4902860000000 1.0
C      1  0.4603340000000  0.4285320000000  0.5151440000000 1.0
C      1  0.5275490000000  0.4343290000000  0.4541270000000 1.0
C      1  0.4276880000000  0.5496600000000  0.5055150000000 1.0
C      1  0.4726260000000  0.4916330000000  0.4673880000000 1.0
C      1  0.4303390000000  0.5231980000000  0.5176550000000 1.0
C      1  0.4610230000000  0.5698040000000  0.4812770000000 1.0
C      1  0.5158130000000  0.4744710000000  0.4834070000000 1.0
C      1  0.4673320000000  0.5103190000000  0.4405460000000 1.0
C      1  0.4878680000000  0.4215890000000  0.5184590000000 1.0
C      1  0.4602280000000  0.5394910000000  0.4434370000000 1.0
C      1  0.5243970000000  0.5565300000000  0.5117750000000 1.0
C      1  0.5587210000000  0.5151650000000  0.5286090000000 1.0
C      1  0.5163600000000  0.4353640000000  0.5694520000000 1.0
C      1  0.5312330000000  0.4547100000000  0.5783720000000 1.0
C      1  0.4890050000000  0.5203200000000  0.5765020000000 1.0
C      1  0.4603780000000  0.5148190000000  0.5198320000000 1.0
END
