TITL C-39558-2773-8 17.8283179804924 125000 -932.283042643353 0 0 134 (C1) n - 1
REM
REM in /rds/project/t2_vol4/rds-t2-cs072/BORA/CARBON/from-Arr/AIRSS/Generating-Clusters/GAP-ML-2020/Only-C1/SD-CG/HFTN-CG
REM
REM
REM
REM
REM
REM ./C.cell (11c1c37f851c82e70ff6c80c92926a4b)
REM AIRSS Version 0.9.1 bugfix July 2018 build 013d7b7c2542+ Fri, 06 Jul 2018 19:26:36 +0100
REM compiler GCC version 9.3.0
REM options -cpp -mtune=generic -march=x86-64 -g -O0
REM seed -2018379782 669742127 -1309284025 -2014528058 -395428180 964563749 1336810657 973203583 437083974 -11507157 1481982647 1369677379 848909255 1195108484 -92451640 162320653 15264110 -446550262 1906142218 -1583264569 -1411781007 747398704 1164483941 -1252841134 1899482963 -2088758775 1120135117 -1885867080 1703299570 -1695196760 758719900 224478594 1546386294
REM
CELL 1.54180   50.00000   50.00000   50.00000   90.00000   90.00000   90.00000
LATT -1
SFAC C  
C      1  0.5731480000000  0.4910210000000  0.5514770000000 1.0
C      1  0.4333230000000  0.5515980000000  0.4543150000000 1.0
C      1  0.4173920000000  0.4810040000000  0.4627490000000 1.0
C      1  0.4537270000000  0.4131780000000  0.5097380000000 1.0
C      1  0.4960250000000  0.4634690000000  0.5900830000000 1.0
C      1  0.4283380000000  0.5718640000000  0.5210990000000 1.0
C      1  0.4795450000000  0.4452180000000  0.5728950000000 1.0
C      1  0.4195570000000  0.5563730000000  0.4779130000000 1.0
C      1  0.5182110000000  0.4615240000000  0.4774200000000 1.0
C      1  0.4544900000000  0.5351550000000  0.4990880000000 1.0
C      1  0.4161310000000  0.5482590000000  0.5318550000000 1.0
C      1  0.4977950000000  0.5695530000000  0.5234510000000 1.0
C      1  0.5496810000000  0.4173650000000  0.5129660000000 1.0
C      1  0.5099720000000  0.5139860000000  0.5335990000000 1.0
C      1  0.4720210000000  0.4782840000000  0.5962130000000 1.0
C      1  0.4189540000000  0.5111480000000  0.4665680000000 1.0
C      1  0.4309980000000  0.4725660000000  0.4388260000000 1.0
C      1  0.6112750000000  0.4650330000000  0.4650800000000 1.0
C      1  0.5245590000000  0.5736590000000  0.5631930000000 1.0
C      1  0.4752710000000  0.4744460000000  0.4866580000000 1.0
C      1  0.4811590000000  0.5990940000000  0.4946180000000 1.0
C      1  0.5320800000000  0.4357270000000  0.4300720000000 1.0
C      1  0.5496920000000  0.5578840000000  0.4345150000000 1.0
C      1  0.5403310000000  0.4603120000000  0.5728530000000 1.0
C      1  0.5127110000000  0.4255150000000  0.5429010000000 1.0
C      1  0.5114450000000  0.4167090000000  0.4329470000000 1.0
C      1  0.4848910000000  0.4305420000000  0.5496950000000 1.0
C      1  0.4195260000000  0.4634400000000  0.4857170000000 1.0
C      1  0.5530800000000  0.5312160000000  0.4282910000000 1.0
C      1  0.4684260000000  0.5172480000000  0.4583150000000 1.0
C      1  0.4750310000000  0.5057380000000  0.5941470000000 1.0
C      1  0.4658530000000  0.5150670000000  0.5173610000000 1.0
C      1  0.4370700000000  0.5186230000000  0.5650120000000 1.0
C      1  0.5021050000000  0.4098030000000  0.4957140000000 1.0
C      1  0.4282080000000  0.4159520000000  0.5006890000000 1.0
C      1  0.4601880000000  0.5824870000000  0.4873690000000 1.0
C      1  0.5283850000000  0.5838020000000  0.4710420000000 1.0
C      1  0.5105300000000  0.5959590000000  0.4907320000000 1.0
C      1  0.5237360000000  0.5559030000000  0.5880630000000 1.0
C      1  0.5938150000000  0.5052520000000  0.5130930000000 1.0
C      1  0.4864590000000  0.4208940000000  0.4419620000000 1.0
C      1  0.4083310000000  0.5306820000000  0.4873820000000 1.0
C      1  0.5237380000000  0.4608730000000  0.4163670000000 1.0
C      1  0.4962610000000  0.4992250000000  0.4904210000000 1.0
C      1  0.4090230000000  0.5250830000000  0.5157060000000 1.0
C      1  0.5823360000000  0.4462020000000  0.5535520000000 1.0
C      1  0.4980320000000  0.4676690000000  0.5211750000000 1.0
C      1  0.5205630000000  0.4140170000000  0.5168790000000 1.0
C      1  0.5862360000000  0.5286500000000  0.5275770000000 1.0
C      1  0.4970690000000  0.5116890000000  0.4642160000000 1.0
C      1  0.5185030000000  0.5898360000000  0.5186240000000 1.0
C      1  0.5068240000000  0.5509160000000  0.4332940000000 1.0
C      1  0.4894560000000  0.4683780000000  0.4599250000000 1.0
C      1  0.4374260000000  0.4693590000000  0.5586270000000 1.0
C      1  0.5193410000000  0.5303230000000  0.4596000000000 1.0
C      1  0.4823320000000  0.4505880000000  0.5036430000000 1.0
C      1  0.5929030000000  0.4802040000000  0.5281670000000 1.0
C      1  0.5477870000000  0.4883990000000  0.4461830000000 1.0
C      1  0.5489020000000  0.5166020000000  0.4538490000000 1.0
C      1  0.5696580000000  0.4698690000000  0.4858640000000 1.0
C      1  0.5246980000000  0.5428250000000  0.4867910000000 1.0
C      1  0.5276540000000  0.5718620000000  0.4434310000000 1.0
C      1  0.5382050000000  0.5300710000000  0.5867930000000 1.0
C      1  0.4556520000000  0.4615360000000  0.5785230000000 1.0
C      1  0.6044560000000  0.4569630000000  0.5401570000000 1.0
C      1  0.4489470000000  0.4497870000000  0.4403510000000 1.0
C      1  0.4928820000000  0.5216700000000  0.5096760000000 1.0
C      1  0.5323360000000  0.5000520000000  0.5172060000000 1.0
C      1  0.5847010000000  0.4991950000000  0.4856120000000 1.0
C      1  0.4982760000000  0.5190140000000  0.6028380000000 1.0
C      1  0.4959820000000  0.4634190000000  0.4145130000000 1.0
C      1  0.5585390000000  0.4388620000000  0.5327050000000 1.0
C      1  0.5048050000000  0.4372870000000  0.4895950000000 1.0
C      1  0.4535680000000  0.5622530000000  0.5586760000000 1.0
C      1  0.5113700000000  0.5303130000000  0.4117160000000 1.0
C      1  0.4162390000000  0.4986210000000  0.5267380000000 1.0
C      1  0.5160450000000  0.4808270000000  0.5018710000000 1.0
C      1  0.4674600000000  0.4123200000000  0.4625640000000 1.0
C      1  0.4311630000000  0.4763520000000  0.5112350000000 1.0
C      1  0.5413900000000  0.5208230000000  0.4983380000000 1.0
C      1  0.5708930000000  0.5492110000000  0.4849190000000 1.0
C      1  0.5645220000000  0.5210610000000  0.4787250000000 1.0
C      1  0.5667510000000  0.4651210000000  0.5156560000000 1.0
C      1  0.5894260000000  0.4507700000000  0.4743280000000 1.0
C      1  0.4770530000000  0.5541640000000  0.4304570000000 1.0
C      1  0.4789780000000  0.4493080000000  0.4364680000000 1.0
C      1  0.4784570000000  0.4780030000000  0.5387220000000 1.0
C      1  0.4712450000000  0.5551900000000  0.4832330000000 1.0
C      1  0.4651340000000  0.5343910000000  0.4122360000000 1.0
C      1  0.4674800000000  0.5195160000000  0.5688230000000 1.0
C      1  0.5497660000000  0.5317430000000  0.5613790000000 1.0
C      1  0.4316780000000  0.5764770000000  0.4936770000000 1.0
C      1  0.4974810000000  0.5474690000000  0.5942380000000 1.0
C      1  0.5721570000000  0.4277540000000  0.4674810000000 1.0
C      1  0.5677720000000  0.4671800000000  0.5677190000000 1.0
C      1  0.4810550000000  0.5055560000000  0.5436410000000 1.0
C      1  0.4541160000000  0.4913400000000  0.4981980000000 1.0
C      1  0.5525530000000  0.4400580000000  0.4495720000000 1.0
C      1  0.4239810000000  0.5286330000000  0.4418850000000 1.0
C      1  0.4480670000000  0.5120200000000  0.4787290000000 1.0
C      1  0.5464930000000  0.4653020000000  0.4650460000000 1.0
C      1  0.4440660000000  0.4292880000000  0.4589500000000 1.0
C      1  0.5217250000000  0.4766650000000  0.5880520000000 1.0
C      1  0.4308490000000  0.5441030000000  0.5557780000000 1.0
C      1  0.4484620000000  0.4613580000000  0.5330700000000 1.0
C      1  0.4263380000000  0.4356080000000  0.4811910000000 1.0
C      1  0.4867620000000  0.5182360000000  0.4037400000000 1.0
C      1  0.5634710000000  0.4140180000000  0.4896350000000 1.0
C      1  0.4255310000000  0.4954530000000  0.5534230000000 1.0
C      1  0.5386900000000  0.5833920000000  0.5376540000000 1.0
C      1  0.4627400000000  0.5491100000000  0.4550560000000 1.0
C      1  0.5370340000000  0.4866290000000  0.4209790000000 1.0
C      1  0.4392090000000  0.5202350000000  0.4200670000000 1.0
C      1  0.4577770000000  0.4837370000000  0.4027030000000 1.0
C      1  0.4370920000000  0.4914740000000  0.4176300000000 1.0
C      1  0.5457480000000  0.5653360000000  0.4875280000000 1.0
C      1  0.5737910000000  0.5201700000000  0.5522360000000 1.0
C      1  0.4979340000000  0.5488170000000  0.4995010000000 1.0
C      1  0.5353360000000  0.4402240000000  0.5524610000000 1.0
C      1  0.5028960000000  0.5577910000000  0.5506750000000 1.0
C      1  0.4784300000000  0.5494680000000  0.5698230000000 1.0
C      1  0.5769570000000  0.5520390000000  0.5130420000000 1.0
C      1  0.4740560000000  0.4048280000000  0.4895220000000 1.0
C      1  0.5514520000000  0.4842090000000  0.5306620000000 1.0
C      1  0.4746320000000  0.5873980000000  0.5206180000000 1.0
C      1  0.4520600000000  0.5793200000000  0.5359330000000 1.0
C      1  0.4833300000000  0.4897360000000  0.4118700000000 1.0
C      1  0.6079530000000  0.4904980000000  0.4690830000000 1.0
C      1  0.4856170000000  0.4935270000000  0.4452770000000 1.0
C      1  0.4650130000000  0.4356870000000  0.5266120000000 1.0
C      1  0.5547540000000  0.5709960000000  0.5167930000000 1.0
C      1  0.5226970000000  0.5060820000000  0.5959910000000 1.0
C      1  0.5231140000000  0.5350210000000  0.5461470000000 1.0
C      1  0.5352040000000  0.5147970000000  0.4124950000000 1.0
END
