TITL C-3993-1205-2 -14.826065126715 125000 -312.147118471562 0 0 47 (C1) n - 1
REM
REM in /rds/project/t2_vol4/rds-t2-cs072/BORA/CARBON/from-Arr/AIRSS/Generating-Clusters/GAP-ML-2020/Only-C1/SD-CG/HFTN-CG
REM
REM
REM
REM
REM
REM ./C.cell (11c1c37f851c82e70ff6c80c92926a4b)
REM AIRSS Version 0.9.1 bugfix July 2018 build 013d7b7c2542+ Fri, 06 Jul 2018 19:26:36 +0100
REM compiler GCC version 9.3.0
REM options -cpp -mtune=generic -march=x86-64 -g -O0
REM seed -778585325 309845500 -211957792 1468891935 948249004 -765402983 -2027653981 -951356321 -2098715302 -2106188591 974062676 -524154036 645881996 492752555 -23101533 608974419 -604739105 -53635952 1024117456 963617245 2052244792 -926340480 -911072028 712151624 287280088 -243680499 1276878571 370345509 -593274722 -1211794137 1932735069 -1164452643 888556874
REM
CELL 1.54180   50.00000   50.00000   50.00000   90.00000   90.00000   90.00000
LATT -1
SFAC C  
C      1  0.4992640000000  0.5644330000000  0.5163740000000 1.0
C      1  0.5102880000000  0.4996370000000  0.4666470000000 1.0
C      1  0.5201110000000  0.5582100000000  0.5297110000000 1.0
C      1  0.4718200000000  0.5315290000000  0.5207640000000 1.0
C      1  0.4907470000000  0.5232600000000  0.5720340000000 1.0
C      1  0.4612620000000  0.4979780000000  0.4902560000000 1.0
C      1  0.4912730000000  0.4606790000000  0.5037840000000 1.0
C      1  0.5746930000000  0.4937710000000  0.4847790000000 1.0
C      1  0.4891520000000  0.4929920000000  0.4459910000000 1.0
C      1  0.5146160000000  0.5198730000000  0.5583350000000 1.0
C      1  0.4456210000000  0.4446760000000  0.5095490000000 1.0
C      1  0.4958170000000  0.5503070000000  0.4381640000000 1.0
C      1  0.4870810000000  0.5151700000000  0.5021930000000 1.0
C      1  0.4793230000000  0.4585010000000  0.5432450000000 1.0
C      1  0.5348350000000  0.5216230000000  0.4295780000000 1.0
C      1  0.5557020000000  0.4914050000000  0.5272510000000 1.0
C      1  0.5368500000000  0.4762570000000  0.5416410000000 1.0
C      1  0.5534900000000  0.5102940000000  0.4783480000000 1.0
C      1  0.4663400000000  0.4459180000000  0.4933090000000 1.0
C      1  0.5611540000000  0.4773640000000  0.5025580000000 1.0
C      1  0.5376740000000  0.5178780000000  0.5025920000000 1.0
C      1  0.4632980000000  0.5532300000000  0.4819060000000 1.0
C      1  0.5035790000000  0.4421060000000  0.4661670000000 1.0
C      1  0.5323860000000  0.5359300000000  0.5423890000000 1.0
C      1  0.5115660000000  0.5018020000000  0.5120630000000 1.0
C      1  0.4365050000000  0.5442440000000  0.4781480000000 1.0
C      1  0.4529760000000  0.4898850000000  0.5194480000000 1.0
C      1  0.4590920000000  0.5111240000000  0.5371370000000 1.0
C      1  0.5008320000000  0.4487920000000  0.5269000000000 1.0
C      1  0.4860120000000  0.5454610000000  0.4634400000000 1.0
C      1  0.5123560000000  0.4801730000000  0.4922660000000 1.0
C      1  0.5361550000000  0.4611350000000  0.4974670000000 1.0
C      1  0.4723900000000  0.5578610000000  0.5089840000000 1.0
C      1  0.5128600000000  0.4933870000000  0.5447000000000 1.0
C      1  0.5361610000000  0.5099520000000  0.4548730000000 1.0
C      1  0.4533410000000  0.4628910000000  0.5291540000000 1.0
C      1  0.5514310000000  0.5199250000000  0.5272150000000 1.0
C      1  0.5271950000000  0.4418540000000  0.4755040000000 1.0
C      1  0.4883840000000  0.4810460000000  0.5563250000000 1.0
C      1  0.4715250000000  0.5048390000000  0.5620800000000 1.0
C      1  0.4702510000000  0.4796620000000  0.4637470000000 1.0
C      1  0.5070190000000  0.5272940000000  0.4274300000000 1.0
C      1  0.4430700000000  0.5196780000000  0.4830350000000 1.0
C      1  0.4986090000000  0.5250470000000  0.4778200000000 1.0
C      1  0.4916040000000  0.5043650000000  0.4210770000000 1.0
C      1  0.5283520000000  0.4546210000000  0.5262830000000 1.0
C      1  0.4759350000000  0.4519400000000  0.4673380000000 1.0
END
