TITL C-39041-1123-2 37.0614700287792 125000 -680.347039132219 0 0 96 (C1) n - 1
REM
REM in /rds/project/t2_vol4/rds-t2-cs072/BORA/CARBON/from-Arr/AIRSS/Generating-Clusters/GAP-ML-2020/Only-C1/SD-CG/HFTN-CG
REM
REM
REM
REM
REM
REM ./C.cell (11c1c37f851c82e70ff6c80c92926a4b)
REM AIRSS Version 0.9.1 bugfix July 2018 build 013d7b7c2542+ Fri, 06 Jul 2018 19:26:36 +0100
REM compiler GCC version 9.3.0
REM options -cpp -mtune=generic -march=x86-64 -g -O0
REM seed 376771612 -63849269 -1939747511 -371426595 1072904428 -1440207854 -1622613002 -1302492948 564224659 -1595545314 -1857565565 453260304 1126335215 -998756212 -486155032 1133946520 602936000 -1982529790 1721632165 -187563922 2024915782 2009277447 1214495515 1042649172 1122906109 -585280779 1103634429 -728563530 -1377367344 -1729780300 -1028689606 711004248 1979211619
REM
CELL 1.54180   50.00000   50.00000   50.00000   90.00000   90.00000   90.00000
LATT -1
SFAC C  
C      1  0.4743550000000  0.5247230000000  0.4629780000000 1.0
C      1  0.5487630000000  0.4200580000000  0.5361320000000 1.0
C      1  0.5806600000000  0.5133610000000  0.4718910000000 1.0
C      1  0.4371920000000  0.4910060000000  0.4377770000000 1.0
C      1  0.5534620000000  0.5029500000000  0.5375280000000 1.0
C      1  0.4224520000000  0.5338730000000  0.4516310000000 1.0
C      1  0.5647690000000  0.4430740000000  0.5294130000000 1.0
C      1  0.5404360000000  0.4835320000000  0.5568970000000 1.0
C      1  0.5488490000000  0.5746450000000  0.5092770000000 1.0
C      1  0.4174740000000  0.5474360000000  0.4770780000000 1.0
C      1  0.4195190000000  0.5017010000000  0.4859400000000 1.0
C      1  0.4568770000000  0.5036440000000  0.4199330000000 1.0
C      1  0.5050960000000  0.4839230000000  0.4240910000000 1.0
C      1  0.4853350000000  0.4737400000000  0.5721150000000 1.0
C      1  0.4786650000000  0.5080420000000  0.5075670000000 1.0
C      1  0.4525060000000  0.4640670000000  0.4965500000000 1.0
C      1  0.5234050000000  0.5611430000000  0.4826010000000 1.0
C      1  0.4761030000000  0.4823670000000  0.4229400000000 1.0
C      1  0.4519990000000  0.5682010000000  0.4551980000000 1.0
C      1  0.5213690000000  0.4619790000000  0.4246700000000 1.0
C      1  0.5795060000000  0.5080970000000  0.5190320000000 1.0
C      1  0.4706100000000  0.5281700000000  0.5602350000000 1.0
C      1  0.4743840000000  0.4823270000000  0.5179700000000 1.0
C      1  0.5273750000000  0.5859990000000  0.4939100000000 1.0
C      1  0.5205800000000  0.4714740000000  0.5097400000000 1.0
C      1  0.5146600000000  0.5079940000000  0.4401950000000 1.0
C      1  0.5680930000000  0.5539430000000  0.4998350000000 1.0
C      1  0.4665120000000  0.5485410000000  0.4754450000000 1.0
C      1  0.4943770000000  0.4136250000000  0.5471020000000 1.0
C      1  0.5076600000000  0.4898590000000  0.5571690000000 1.0
C      1  0.5023660000000  0.5638580000000  0.5771740000000 1.0
C      1  0.4521900000000  0.5726760000000  0.5023420000000 1.0
C      1  0.5159240000000  0.5429610000000  0.5658500000000 1.0
C      1  0.5715910000000  0.4462230000000  0.5015220000000 1.0
C      1  0.5018680000000  0.5583970000000  0.4473060000000 1.0
C      1  0.5136060000000  0.4705380000000  0.4817860000000 1.0
C      1  0.4808100000000  0.5023450000000  0.4785720000000 1.0
C      1  0.4649380000000  0.5304260000000  0.4260640000000 1.0
C      1  0.4877320000000  0.4458310000000  0.5722870000000 1.0
C      1  0.4901490000000  0.5703670000000  0.5531810000000 1.0
C      1  0.5107860000000  0.4284350000000  0.5663340000000 1.0
C      1  0.5575950000000  0.5324070000000  0.5437730000000 1.0
C      1  0.4996570000000  0.4750800000000  0.5284820000000 1.0
C      1  0.5403060000000  0.5518350000000  0.5528950000000 1.0
C      1  0.4507340000000  0.5086620000000  0.5608840000000 1.0
C      1  0.5568510000000  0.4303590000000  0.4818710000000 1.0
C      1  0.5292720000000  0.4425150000000  0.4421680000000 1.0
C      1  0.4932750000000  0.4547660000000  0.4701900000000 1.0
C      1  0.5452450000000  0.5145490000000  0.4408180000000 1.0
C      1  0.4265430000000  0.4842090000000  0.5308350000000 1.0
C      1  0.5540850000000  0.4446340000000  0.4571280000000 1.0
C      1  0.5374980000000  0.4950190000000  0.5122480000000 1.0
C      1  0.4182500000000  0.5279550000000  0.4978580000000 1.0
C      1  0.5327550000000  0.4065510000000  0.5178870000000 1.0
C      1  0.5870560000000  0.4965500000000  0.4944490000000 1.0
C      1  0.4968740000000  0.5275550000000  0.5190430000000 1.0
C      1  0.4709930000000  0.4296640000000  0.5542040000000 1.0
C      1  0.4296530000000  0.5334450000000  0.5235900000000 1.0
C      1  0.5661240000000  0.4977210000000  0.4522260000000 1.0
C      1  0.5064600000000  0.4321130000000  0.4582160000000 1.0
C      1  0.4304420000000  0.5107260000000  0.5407170000000 1.0
C      1  0.5289320000000  0.5583440000000  0.4553920000000 1.0
C      1  0.5018960000000  0.5906140000000  0.5071600000000 1.0
C      1  0.5293750000000  0.5129610000000  0.4922920000000 1.0
C      1  0.4580980000000  0.4815790000000  0.5658900000000 1.0
C      1  0.4800560000000  0.5728860000000  0.4635620000000 1.0
C      1  0.5371410000000  0.4331300000000  0.5595470000000 1.0
C      1  0.5803340000000  0.4695310000000  0.4867510000000 1.0
C      1  0.5514590000000  0.4579860000000  0.5530180000000 1.0
C      1  0.4904310000000  0.4064180000000  0.4978580000000 1.0
C      1  0.5695330000000  0.5399000000000  0.4737880000000 1.0
C      1  0.5000020000000  0.5196270000000  0.5546540000000 1.0
C      1  0.4931040000000  0.5319820000000  0.4397080000000 1.0
C      1  0.4507210000000  0.4407440000000  0.5383950000000 1.0
C      1  0.5108610000000  0.4121980000000  0.4773940000000 1.0
C      1  0.5502890000000  0.5406450000000  0.4513000000000 1.0
C      1  0.4437960000000  0.5473770000000  0.4368370000000 1.0
C      1  0.4349610000000  0.5695960000000  0.4789710000000 1.0
C      1  0.5047540000000  0.4032370000000  0.5231520000000 1.0
C      1  0.4643560000000  0.4147750000000  0.4982470000000 1.0
C      1  0.5751380000000  0.5362710000000  0.5211440000000 1.0
C      1  0.5084680000000  0.5830610000000  0.5337290000000 1.0
C      1  0.5363250000000  0.5738500000000  0.5349400000000 1.0
C      1  0.4660660000000  0.5543380000000  0.5480050000000 1.0
C      1  0.4277910000000  0.4802140000000  0.5023950000000 1.0
C      1  0.5367370000000  0.4119520000000  0.4899840000000 1.0
C      1  0.4467770000000  0.5567190000000  0.5268540000000 1.0
C      1  0.4779790000000  0.5847710000000  0.4924230000000 1.0
C      1  0.4414110000000  0.4659790000000  0.5476410000000 1.0
C      1  0.4575290000000  0.4708600000000  0.4429050000000 1.0
C      1  0.4522090000000  0.4366250000000  0.5091830000000 1.0
C      1  0.4223140000000  0.5056550000000  0.4565430000000 1.0
C      1  0.5687770000000  0.4696530000000  0.4604430000000 1.0
C      1  0.4682890000000  0.4702570000000  0.4707570000000 1.0
C      1  0.5179710000000  0.5361100000000  0.5020740000000 1.0
C      1  0.5114520000000  0.4982850000000  0.4723210000000 1.0
END
