TITL C-39246-6517-5 -0.214752925824462 125000 -481.311865475443 0 0 71 (C1) n - 1
REM
REM in /rds/project/t2_vol4/rds-t2-cs072/BORA/CARBON/from-Arr/AIRSS/Generating-Clusters/GAP-ML-2020/Only-C1/SD-CG/HFTN-CG
REM
REM
REM
REM
REM
REM ./C.cell (11c1c37f851c82e70ff6c80c92926a4b)
REM AIRSS Version 0.9.1 bugfix July 2018 build 013d7b7c2542+ Fri, 06 Jul 2018 19:26:36 +0100
REM compiler GCC version 9.3.0
REM options -cpp -mtune=generic -march=x86-64 -g -O0
REM seed -1277516003 -1715507545 608272362 1813824666 -700682310 1515616522 -1182719510 -1075328410 -1789573536 -1829026177 -1831479025 -1934650712 759863031 -404652045 403498128 1706801422 1531856883 -515995940 2061427784 1512486257 1949453310 -1040694299 -1367571337 534935015 1253954662 695030012 1763202575 1064135894 609264193 -2073268643 1007554937 235782478 277557550
REM
CELL 1.54180   50.00000   50.00000   50.00000   90.00000   90.00000   90.00000
LATT -1
SFAC C  
C      1  0.5593280000000  0.5042350000000  0.5216140000000 1.0
C      1  0.5233850000000  0.4769040000000  0.5202660000000 1.0
C      1  0.4490530000000  0.4413480000000  0.5046980000000 1.0
C      1  0.5061130000000  0.4709420000000  0.4824950000000 1.0
C      1  0.4940370000000  0.4306880000000  0.5223560000000 1.0
C      1  0.5478910000000  0.5041670000000  0.4915290000000 1.0
C      1  0.4656090000000  0.5127990000000  0.5336920000000 1.0
C      1  0.4527890000000  0.5617320000000  0.4909430000000 1.0
C      1  0.5056040000000  0.4977480000000  0.5243660000000 1.0
C      1  0.5410610000000  0.5510720000000  0.4509820000000 1.0
C      1  0.4270610000000  0.4605290000000  0.5113320000000 1.0
C      1  0.5281650000000  0.5349050000000  0.4312110000000 1.0
C      1  0.5732620000000  0.4630960000000  0.5032490000000 1.0
C      1  0.4298940000000  0.4733330000000  0.4858570000000 1.0
C      1  0.4768630000000  0.5006120000000  0.5682020000000 1.0
C      1  0.5467700000000  0.4654320000000  0.5425930000000 1.0
C      1  0.4357250000000  0.5050370000000  0.5340970000000 1.0
C      1  0.4632920000000  0.4601260000000  0.4539260000000 1.0
C      1  0.4786260000000  0.4873550000000  0.5218420000000 1.0
C      1  0.4639390000000  0.4650290000000  0.5407440000000 1.0
C      1  0.5324560000000  0.4775050000000  0.4940060000000 1.0
C      1  0.4384880000000  0.5467480000000  0.4706810000000 1.0
C      1  0.5019930000000  0.5099300000000  0.4587680000000 1.0
C      1  0.5101730000000  0.4422830000000  0.4710470000000 1.0
C      1  0.4521900000000  0.5108550000000  0.5590840000000 1.0
C      1  0.4370880000000  0.4759340000000  0.5325710000000 1.0
C      1  0.5114300000000  0.4288450000000  0.4983780000000 1.0
C      1  0.5007240000000  0.5176720000000  0.5687990000000 1.0
C      1  0.5683120000000  0.4769520000000  0.5261870000000 1.0
C      1  0.4841700000000  0.5085490000000  0.4828340000000 1.0
C      1  0.5106230000000  0.4381220000000  0.5451230000000 1.0
C      1  0.4326920000000  0.5244860000000  0.5113420000000 1.0
C      1  0.4732350000000  0.5703080000000  0.4507990000000 1.0
C      1  0.5374590000000  0.4388160000000  0.5354510000000 1.0
C      1  0.5641060000000  0.5413590000000  0.4655050000000 1.0
C      1  0.4784690000000  0.5476620000000  0.4352510000000 1.0
C      1  0.5259780000000  0.5530380000000  0.4772300000000 1.0
C      1  0.4956210000000  0.5421730000000  0.5550540000000 1.0
C      1  0.5462630000000  0.5177480000000  0.5442680000000 1.0
C      1  0.5081870000000  0.4807240000000  0.4509470000000 1.0
C      1  0.5445390000000  0.5140310000000  0.4240410000000 1.0
C      1  0.5540500000000  0.5544170000000  0.4905650000000 1.0
C      1  0.4499930000000  0.5476460000000  0.5155290000000 1.0
C      1  0.5016720000000  0.5645730000000  0.4900790000000 1.0
C      1  0.4676080000000  0.4391900000000  0.5256490000000 1.0
C      1  0.4805490000000  0.4721520000000  0.5647670000000 1.0
C      1  0.5582460000000  0.5550450000000  0.5161350000000 1.0
C      1  0.4297650000000  0.4953050000000  0.4679810000000 1.0
C      1  0.5387840000000  0.4491410000000  0.4626390000000 1.0
C      1  0.4998560000000  0.5302440000000  0.4369670000000 1.0
C      1  0.4795440000000  0.4810360000000  0.4928620000000 1.0
C      1  0.4283550000000  0.5218840000000  0.4818840000000 1.0
C      1  0.5299480000000  0.4766650000000  0.5641910000000 1.0
C      1  0.5366400000000  0.4730960000000  0.4476340000000 1.0
C      1  0.5377430000000  0.4321650000000  0.5077820000000 1.0
C      1  0.5531340000000  0.4969170000000  0.4439090000000 1.0
C      1  0.4773720000000  0.5722120000000  0.4793440000000 1.0
C      1  0.5627740000000  0.5127650000000  0.4675200000000 1.0
C      1  0.5243250000000  0.5216220000000  0.4819130000000 1.0
C      1  0.5156380000000  0.5526350000000  0.5388790000000 1.0
C      1  0.4576220000000  0.4600740000000  0.4832360000000 1.0
C      1  0.5045810000000  0.5194560000000  0.5035510000000 1.0
C      1  0.5510670000000  0.4514560000000  0.4899530000000 1.0
C      1  0.4740420000000  0.5416690000000  0.5311510000000 1.0
C      1  0.5431640000000  0.5454650000000  0.5380730000000 1.0
C      1  0.4993080000000  0.5480830000000  0.5144300000000 1.0
C      1  0.4443830000000  0.4801570000000  0.4470920000000 1.0
C      1  0.5061340000000  0.4603880000000  0.5632820000000 1.0
C      1  0.5276290000000  0.5050550000000  0.5638010000000 1.0
C      1  0.4519340000000  0.5525770000000  0.4458050000000 1.0
C      1  0.4914740000000  0.4560800000000  0.4500400000000 1.0
END
