TITL C-39039-4552-11 -140.654922863482 125000 -682.81269815616 0 0 98 (C1) n - 1
REM
REM in /rds/project/t2_vol4/rds-t2-cs072/BORA/CARBON/from-Arr/AIRSS/Generating-Clusters/GAP-ML-2020/Only-C1/SD-CG/HFTN-CG
REM
REM
REM
REM
REM
REM ./C.cell (11c1c37f851c82e70ff6c80c92926a4b)
REM AIRSS Version 0.9.1 bugfix July 2018 build 013d7b7c2542+ Fri, 06 Jul 2018 19:26:36 +0100
REM compiler GCC version 9.3.0
REM options -cpp -mtune=generic -march=x86-64 -g -O0
REM seed -261633044 1623234484 -350257065 203904480 -1610773332 -1331777342 -1938724355 -2093544919 -2090588566 -1008741780 -1645215745 -1947732643 1900125855 1522693146 -1335290860 626208590 -1724760563 668142965 586171225 473943985 775613869 -355127933 -803438300 552763769 -221400696 -865349375 879039270 -121515377 -41673382 -2038883565 -2033433646 1500263635 -121973519
REM
CELL 1.54180   50.00000   50.00000   50.00000   90.00000   90.00000   90.00000
LATT -1
SFAC C  
C      1  0.5751240000000  0.4789540000000  0.5511160000000 1.0
C      1  0.5148100000000  0.4212590000000  0.4774370000000 1.0
C      1  0.5123070000000  0.5041400000000  0.4247300000000 1.0
C      1  0.4755230000000  0.4424810000000  0.5097750000000 1.0
C      1  0.4746610000000  0.5327000000000  0.4797180000000 1.0
C      1  0.5394260000000  0.4380370000000  0.4838460000000 1.0
C      1  0.4949000000000  0.5171580000000  0.4657070000000 1.0
C      1  0.4833520000000  0.5805310000000  0.4777050000000 1.0
C      1  0.5151970000000  0.5279700000000  0.5059430000000 1.0
C      1  0.4684240000000  0.5288230000000  0.4301950000000 1.0
C      1  0.5333140000000  0.5733370000000  0.4956690000000 1.0
C      1  0.5236380000000  0.4642930000000  0.4781260000000 1.0
C      1  0.4808280000000  0.4820320000000  0.4877310000000 1.0
C      1  0.5369390000000  0.5093390000000  0.5590580000000 1.0
C      1  0.4869410000000  0.4827120000000  0.5855090000000 1.0
C      1  0.4120210000000  0.4722370000000  0.4949760000000 1.0
C      1  0.4739090000000  0.4378720000000  0.4521370000000 1.0
C      1  0.4537700000000  0.5032600000000  0.4449500000000 1.0
C      1  0.5309490000000  0.5582450000000  0.5453480000000 1.0
C      1  0.4343160000000  0.4572010000000  0.5310830000000 1.0
C      1  0.5441660000000  0.4504580000000  0.4397260000000 1.0
C      1  0.5218360000000  0.4416830000000  0.5611960000000 1.0
C      1  0.5477620000000  0.5623380000000  0.4729260000000 1.0
C      1  0.4384680000000  0.4757530000000  0.4530420000000 1.0
C      1  0.5356770000000  0.5561750000000  0.4465730000000 1.0
C      1  0.5642150000000  0.5137990000000  0.5216870000000 1.0
C      1  0.5001120000000  0.4341260000000  0.4562190000000 1.0
C      1  0.4389840000000  0.5511700000000  0.4569720000000 1.0
C      1  0.4893100000000  0.4191690000000  0.5217700000000 1.0
C      1  0.4828490000000  0.5555800000000  0.5591490000000 1.0
C      1  0.4849390000000  0.5694340000000  0.4505890000000 1.0
C      1  0.4238400000000  0.4822240000000  0.5392880000000 1.0
C      1  0.4516350000000  0.4499870000000  0.4614020000000 1.0
C      1  0.4639060000000  0.4569440000000  0.5332980000000 1.0
C      1  0.4356700000000  0.5627480000000  0.4826650000000 1.0
C      1  0.5016270000000  0.4649780000000  0.4993960000000 1.0
C      1  0.5381660000000  0.4467750000000  0.5357140000000 1.0
C      1  0.5046270000000  0.5694170000000  0.5463200000000 1.0
C      1  0.4624520000000  0.4729320000000  0.5747900000000 1.0
C      1  0.4677670000000  0.4879320000000  0.5335290000000 1.0
C      1  0.5652760000000  0.4538360000000  0.5446420000000 1.0
C      1  0.4661980000000  0.5773720000000  0.5210170000000 1.0
C      1  0.5372050000000  0.4279580000000  0.5122440000000 1.0
C      1  0.4761640000000  0.4511880000000  0.5586760000000 1.0
C      1  0.5860190000000  0.4646550000000  0.5290350000000 1.0
C      1  0.5793460000000  0.4593520000000  0.4586430000000 1.0
C      1  0.5823760000000  0.5246790000000  0.4681440000000 1.0
C      1  0.5635930000000  0.5407340000000  0.5116210000000 1.0
C      1  0.5012500000000  0.4808770000000  0.4375810000000 1.0
C      1  0.4394360000000  0.5359770000000  0.5206260000000 1.0
C      1  0.5684710000000  0.5451340000000  0.4839390000000 1.0
C      1  0.5628370000000  0.4962720000000  0.4289500000000 1.0
C      1  0.4279160000000  0.4510560000000  0.5041810000000 1.0
C      1  0.4464520000000  0.4923000000000  0.5574970000000 1.0
C      1  0.4900420000000  0.4221250000000  0.5506570000000 1.0
C      1  0.5653750000000  0.4693550000000  0.4346450000000 1.0
C      1  0.4668980000000  0.5243000000000  0.5051310000000 1.0
C      1  0.4915080000000  0.5057360000000  0.5419980000000 1.0
C      1  0.4969110000000  0.5281030000000  0.4325630000000 1.0
C      1  0.4147580000000  0.5113550000000  0.4725420000000 1.0
C      1  0.5057080000000  0.5828060000000  0.4966670000000 1.0
C      1  0.5111440000000  0.4163470000000  0.5670860000000 1.0
C      1  0.4116250000000  0.4934650000000  0.5151310000000 1.0
C      1  0.4943130000000  0.5820340000000  0.5228330000000 1.0
C      1  0.4633510000000  0.4952950000000  0.5052810000000 1.0
C      1  0.5636250000000  0.5042240000000  0.5487320000000 1.0
C      1  0.4414480000000  0.5406640000000  0.5477110000000 1.0
C      1  0.5043050000000  0.4661370000000  0.5662850000000 1.0
C      1  0.5257370000000  0.4737020000000  0.5235310000000 1.0
C      1  0.5494790000000  0.5357460000000  0.4328370000000 1.0
C      1  0.5450700000000  0.5612880000000  0.5198960000000 1.0
C      1  0.4615470000000  0.5550410000000  0.4406770000000 1.0
C      1  0.5187320000000  0.5135650000000  0.4825090000000 1.0
C      1  0.4118740000000  0.5193260000000  0.4997650000000 1.0
C      1  0.5365810000000  0.4916770000000  0.4822880000000 1.0
C      1  0.5125750000000  0.4146920000000  0.5057370000000 1.0
C      1  0.5514650000000  0.4888880000000  0.5077620000000 1.0
C      1  0.5157150000000  0.4886660000000  0.5481400000000 1.0
C      1  0.4926530000000  0.5254320000000  0.5205100000000 1.0
C      1  0.5772400000000  0.4729000000000  0.5040750000000 1.0
C      1  0.4808610000000  0.5252660000000  0.5676870000000 1.0
C      1  0.4505180000000  0.4424370000000  0.4897370000000 1.0
C      1  0.4512930000000  0.5202760000000  0.5645860000000 1.0
C      1  0.5968760000000  0.5026680000000  0.4751160000000 1.0
C      1  0.4817010000000  0.4916830000000  0.4579750000000 1.0
C      1  0.5591250000000  0.4386440000000  0.4623890000000 1.0
C      1  0.5390750000000  0.5106110000000  0.4207890000000 1.0
C      1  0.5900660000000  0.4764780000000  0.4787750000000 1.0
C      1  0.4918360000000  0.5091390000000  0.5886740000000 1.0
C      1  0.5165440000000  0.4578830000000  0.4482060000000 1.0
C      1  0.4587890000000  0.5770650000000  0.4931940000000 1.0
C      1  0.5718590000000  0.5207420000000  0.4421210000000 1.0
C      1  0.4592530000000  0.5628500000000  0.5451590000000 1.0
C      1  0.5320200000000  0.5356550000000  0.5602320000000 1.0
C      1  0.5077820000000  0.5556620000000  0.4398280000000 1.0
C      1  0.4218740000000  0.5466280000000  0.5023820000000 1.0
C      1  0.4171130000000  0.4829770000000  0.4695380000000 1.0
C      1  0.4328360000000  0.5228650000000  0.4548170000000 1.0
END
