TITL C-39021-4578-1 -140.916938180495 125000 -892.174824551712 0 0 125 (C1) n - 1
REM
REM in /rds/project/t2_vol4/rds-t2-cs072/BORA/CARBON/from-Arr/AIRSS/Generating-Clusters/GAP-ML-2020/Only-C1/SD-CG/HFTN-CG
REM
REM
REM
REM
REM
REM ./C.cell (11c1c37f851c82e70ff6c80c92926a4b)
REM AIRSS Version 0.9.1 bugfix July 2018 build 013d7b7c2542+ Fri, 06 Jul 2018 19:26:36 +0100
REM compiler GCC version 9.3.0
REM options -cpp -mtune=generic -march=x86-64 -g -O0
REM seed -1808625760 -949577898 2101643304 -11935361 -1064022228 998456224 -1391285775 -1361979423 -1945305027 1444993015 1799912819 -1878675957 -166938762 -53698947 -578989293 -1513578404 -901944356 -181089081 -1073533596 -2026425036 -1775636293 482563999 1091645959 1641654141 675093190 255208138 -386487931 -316594152 2051477890 -686831361 174380655 1541444574 -216140856
REM
CELL 1.54180   50.00000   50.00000   50.00000   90.00000   90.00000   90.00000
LATT -1
SFAC C  
C      1  0.5686570000000  0.4375800000000  0.4906330000000 1.0
C      1  0.5608780000000  0.4308000000000  0.4642190000000 1.0
C      1  0.4092280000000  0.5067880000000  0.4711350000000 1.0
C      1  0.4629630000000  0.4182210000000  0.4827220000000 1.0
C      1  0.4980110000000  0.5348340000000  0.4370000000000 1.0
C      1  0.4441640000000  0.4914670000000  0.4399300000000 1.0
C      1  0.4286520000000  0.5605120000000  0.5176360000000 1.0
C      1  0.5045260000000  0.4959810000000  0.5378940000000 1.0
C      1  0.5203450000000  0.4296460000000  0.4361220000000 1.0
C      1  0.5101290000000  0.5815870000000  0.5350270000000 1.0
C      1  0.5942700000000  0.4885310000000  0.5173780000000 1.0
C      1  0.5379290000000  0.5124880000000  0.5015330000000 1.0
C      1  0.4256590000000  0.5137080000000  0.4488220000000 1.0
C      1  0.4607030000000  0.5196860000000  0.4742190000000 1.0
C      1  0.4312040000000  0.5357000000000  0.5596120000000 1.0
C      1  0.4917080000000  0.4346890000000  0.4402490000000 1.0
C      1  0.4402930000000  0.5095790000000  0.5674760000000 1.0
C      1  0.5566320000000  0.4904620000000  0.4235480000000 1.0
C      1  0.5999370000000  0.5154030000000  0.5228650000000 1.0
C      1  0.4606400000000  0.5793860000000  0.4754210000000 1.0
C      1  0.4532030000000  0.4652780000000  0.4529500000000 1.0
C      1  0.5163910000000  0.5883540000000  0.4870500000000 1.0
C      1  0.5115090000000  0.5090470000000  0.5955070000000 1.0
C      1  0.4694680000000  0.5852520000000  0.5029730000000 1.0
C      1  0.5547410000000  0.5097020000000  0.5770950000000 1.0
C      1  0.4119070000000  0.4907960000000  0.5295280000000 1.0
C      1  0.4524020000000  0.4596380000000  0.5485030000000 1.0
C      1  0.4148680000000  0.4258490000000  0.5308880000000 1.0
C      1  0.5194350000000  0.4449860000000  0.4912710000000 1.0
C      1  0.5423440000000  0.4852370000000  0.5104270000000 1.0
C      1  0.4641640000000  0.5136240000000  0.5837000000000 1.0
C      1  0.5751310000000  0.4227130000000  0.5125940000000 1.0
C      1  0.5033040000000  0.4585310000000  0.5099030000000 1.0
C      1  0.4948190000000  0.4872910000000  0.4461800000000 1.0
C      1  0.4557730000000  0.4808550000000  0.5279630000000 1.0
C      1  0.5428410000000  0.5374230000000  0.4255680000000 1.0
C      1  0.4857530000000  0.4212560000000  0.4650460000000 1.0
C      1  0.5046080000000  0.5328760000000  0.4701200000000 1.0
C      1  0.5934950000000  0.5346300000000  0.5028170000000 1.0
C      1  0.4430330000000  0.4809890000000  0.5009100000000 1.0
C      1  0.4824500000000  0.5255220000000  0.5169440000000 1.0
C      1  0.5331540000000  0.4929370000000  0.5875660000000 1.0
C      1  0.4632560000000  0.5171880000000  0.4062630000000 1.0
C      1  0.5705690000000  0.4527880000000  0.4479570000000 1.0
C      1  0.4686360000000  0.5424800000000  0.5833820000000 1.0
C      1  0.4515810000000  0.5771620000000  0.5234440000000 1.0
C      1  0.5436750000000  0.5791230000000  0.4863550000000 1.0
C      1  0.5225450000000  0.5127850000000  0.4773620000000 1.0
C      1  0.5812250000000  0.4787490000000  0.5430280000000 1.0
C      1  0.5105640000000  0.4866800000000  0.4721390000000 1.0
C      1  0.4303770000000  0.4469640000000  0.4603470000000 1.0
C      1  0.5027500000000  0.4083200000000  0.5084100000000 1.0
C      1  0.5345020000000  0.4281890000000  0.5451870000000 1.0
C      1  0.5084410000000  0.5397960000000  0.5617280000000 1.0
C      1  0.4931230000000  0.4689680000000  0.5801830000000 1.0
C      1  0.4772270000000  0.4515930000000  0.5633410000000 1.0
C      1  0.5618380000000  0.5459890000000  0.4453590000000 1.0
C      1  0.4087700000000  0.5173590000000  0.5213530000000 1.0
C      1  0.4804530000000  0.4954900000000  0.5206140000000 1.0
C      1  0.5226100000000  0.4678000000000  0.5791370000000 1.0
C      1  0.5837480000000  0.4764820000000  0.4587490000000 1.0
C      1  0.5763810000000  0.5020510000000  0.5596920000000 1.0
C      1  0.4902540000000  0.5751020000000  0.5553000000000 1.0
C      1  0.4366530000000  0.4307040000000  0.4827730000000 1.0
C      1  0.5190720000000  0.5536580000000  0.4277820000000 1.0
C      1  0.4695410000000  0.5045010000000  0.4494740000000 1.0
C      1  0.5191040000000  0.5354530000000  0.5875540000000 1.0
C      1  0.5339490000000  0.4198900000000  0.4592420000000 1.0
C      1  0.5556050000000  0.5729670000000  0.5115300000000 1.0
C      1  0.5081280000000  0.5252450000000  0.5350180000000 1.0
C      1  0.4721610000000  0.4755880000000  0.4081240000000 1.0
C      1  0.4385630000000  0.5606880000000  0.4692930000000 1.0
C      1  0.4745920000000  0.4100910000000  0.5076180000000 1.0
C      1  0.5259460000000  0.5758710000000  0.4438150000000 1.0
C      1  0.4234410000000  0.5519740000000  0.4913610000000 1.0
C      1  0.4632630000000  0.4708580000000  0.4820780000000 1.0
C      1  0.4883880000000  0.4784820000000  0.4948410000000 1.0
C      1  0.5791810000000  0.5567940000000  0.5167180000000 1.0
C      1  0.4409610000000  0.4350160000000  0.5369550000000 1.0
C      1  0.4681490000000  0.5311230000000  0.4323820000000 1.0
C      1  0.4344170000000  0.4880490000000  0.5483840000000 1.0
C      1  0.5548360000000  0.4612990000000  0.4255470000000 1.0
C      1  0.5780390000000  0.5496570000000  0.5441830000000 1.0
C      1  0.5368300000000  0.5101990000000  0.4190700000000 1.0
C      1  0.5350850000000  0.4571020000000  0.5541360000000 1.0
C      1  0.5787900000000  0.5243380000000  0.4542750000000 1.0
C      1  0.4186440000000  0.5398810000000  0.5351900000000 1.0
C      1  0.4500490000000  0.5551640000000  0.5671150000000 1.0
C      1  0.4060570000000  0.4596590000000  0.4609880000000 1.0
C      1  0.5358910000000  0.4432120000000  0.4182750000000 1.0
C      1  0.5117320000000  0.4189060000000  0.4806200000000 1.0
C      1  0.4020690000000  0.4796190000000  0.4784560000000 1.0
C      1  0.4927850000000  0.5562660000000  0.5775970000000 1.0
C      1  0.5623220000000  0.4302960000000  0.5359750000000 1.0
C      1  0.4862710000000  0.4960130000000  0.5897960000000 1.0
C      1  0.5892250000000  0.5239980000000  0.5476420000000 1.0
C      1  0.4144670000000  0.5238570000000  0.4935340000000 1.0
C      1  0.5104880000000  0.4170040000000  0.5363330000000 1.0
C      1  0.4650690000000  0.4200860000000  0.5323680000000 1.0
C      1  0.4833390000000  0.5309690000000  0.4885060000000 1.0
C      1  0.5589190000000  0.4698610000000  0.4921000000000 1.0
C      1  0.4869010000000  0.4997030000000  0.4026070000000 1.0
C      1  0.4984970000000  0.5877870000000  0.5091900000000 1.0
C      1  0.5323280000000  0.4667640000000  0.4771420000000 1.0
C      1  0.5453110000000  0.5369930000000  0.5761800000000 1.0
C      1  0.4147700000000  0.4714140000000  0.5053140000000 1.0
C      1  0.5492090000000  0.5696030000000  0.4588540000000 1.0
C      1  0.5385750000000  0.5730470000000  0.5358880000000 1.0
C      1  0.5766520000000  0.4984020000000  0.4421120000000 1.0
C      1  0.4798120000000  0.5830590000000  0.4567290000000 1.0
C      1  0.4623950000000  0.5743080000000  0.5495970000000 1.0
C      1  0.4787750000000  0.4614690000000  0.4350990000000 1.0
C      1  0.5218750000000  0.4741550000000  0.5290600000000 1.0
C      1  0.5060960000000  0.5880560000000  0.4603360000000 1.0
C      1  0.4862760000000  0.4279660000000  0.5490090000000 1.0
C      1  0.5317920000000  0.5296560000000  0.5211920000000 1.0
C      1  0.4404650000000  0.5077810000000  0.4906630000000 1.0
C      1  0.5072530000000  0.5067510000000  0.4236580000000 1.0
C      1  0.4210040000000  0.4403430000000  0.5070780000000 1.0
C      1  0.5537260000000  0.5571130000000  0.5564440000000 1.0
C      1  0.4441900000000  0.5372270000000  0.4523860000000 1.0
C      1  0.4491170000000  0.4918520000000  0.4108660000000 1.0
C      1  0.5652980000000  0.4560280000000  0.5487880000000 1.0
C      1  0.5852300000000  0.4873610000000  0.4867940000000 1.0
C      1  0.5885820000000  0.5179270000000  0.4800940000000 1.0
END
