TITL C-39215-6485-5 -0.0210340428148386 125000 -121.724886288524 0 0 19 (C1) n - 1
REM
REM in /rds/project/t2_vol4/rds-t2-cs072/BORA/CARBON/from-Arr/AIRSS/Generating-Clusters/GAP-ML-2020/Only-C1/SD-CG/HFTN-CG
REM
REM
REM
REM
REM
REM ./C.cell (11c1c37f851c82e70ff6c80c92926a4b)
REM AIRSS Version 0.9.1 bugfix July 2018 build 013d7b7c2542+ Fri, 06 Jul 2018 19:26:36 +0100
REM compiler GCC version 9.3.0
REM options -cpp -mtune=generic -march=x86-64 -g -O0
REM seed 360113219 -109658872 1561465786 -1043270325 -239401183 1649193294 1134597680 -1303022343 -2076771110 1374020260 -188193287 -1619952272 -398113661 -987083070 -401975861 1747932662 1662689274 699949900 -2013532577 658144571 -437685233 -1335231164 -1300734119 -1082905297 -1501408325 474191321 -1659091567 -350431835 -309933824 -1004989401 553657976 1921741192 -643636689
REM
CELL 1.54180   50.00000   50.00000   50.00000   90.00000   90.00000   90.00000
LATT -1
SFAC C  
C      1  0.4712910000000  0.4766060000000  0.4743820000000 1.0
C      1  0.4469450000000  0.4834060000000  0.4417040000000 1.0
C      1  0.4898910000000  0.4868280000000  0.5183640000000 1.0
C      1  0.5185770000000  0.5425770000000  0.5501230000000 1.0
C      1  0.5383550000000  0.4875500000000  0.5316510000000 1.0
C      1  0.4302730000000  0.4943200000000  0.4587420000000 1.0
C      1  0.4461940000000  0.4905840000000  0.4823720000000 1.0
C      1  0.5410130000000  0.4829930000000  0.4751830000000 1.0
C      1  0.5403910000000  0.5499260000000  0.5368960000000 1.0
C      1  0.4934140000000  0.4758920000000  0.4918150000000 1.0
C      1  0.5117760000000  0.4955880000000  0.5343400000000 1.0
C      1  0.5180390000000  0.4746580000000  0.4803740000000 1.0
C      1  0.5076560000000  0.5200300000000  0.5469220000000 1.0
C      1  0.5535750000000  0.5409570000000  0.5171300000000 1.0
C      1  0.4451690000000  0.5005010000000  0.5081410000000 1.0
C      1  0.5586010000000  0.5247670000000  0.4975640000000 1.0
C      1  0.5536440000000  0.5045620000000  0.4833450000000 1.0
C      1  0.4705350000000  0.4719570000000  0.4466050000000 1.0
C      1  0.4646610000000  0.4962980000000  0.5243470000000 1.0
END
