TITL C-39538-3005-1 0.126433236412654 125000 -473.908690873673 0 0 69 (C1) n - 1
REM
REM in /rds/project/t2_vol4/rds-t2-cs072/BORA/CARBON/from-Arr/AIRSS/Generating-Clusters/GAP-ML-2020/Only-C1/SD-CG/HFTN-CG
REM
REM
REM
REM
REM
REM ./C.cell (11c1c37f851c82e70ff6c80c92926a4b)
REM AIRSS Version 0.9.1 bugfix July 2018 build 013d7b7c2542+ Fri, 06 Jul 2018 19:26:36 +0100
REM compiler GCC version 9.3.0
REM options -cpp -mtune=generic -march=x86-64 -g -O0
REM seed 1115396355 -376124620 -1980521580 -791912860 -766307728 1774808881 -378910320 -1424837184 661683651 2021437110 -1977684952 -271773947 -2026286720 55860732 -1133964164 1514334667 653105217 1265826101 -1710472342 -1569389182 -714752883 103378779 630404632 424912999 -2055330852 438058524 -296660973 1901791395 -1072562157 -1905141418 1425431448 -1545037820 -168163809
REM
CELL 1.54180   50.00000   50.00000   50.00000   90.00000   90.00000   90.00000
LATT -1
SFAC C  
C      1  0.5497950000000  0.4541060000000  0.4935160000000 1.0
C      1  0.4798380000000  0.5222310000000  0.4841160000000 1.0
C      1  0.4602780000000  0.5212560000000  0.4421210000000 1.0
C      1  0.5404610000000  0.5329450000000  0.4491460000000 1.0
C      1  0.4403100000000  0.4622500000000  0.5033600000000 1.0
C      1  0.4652800000000  0.5023080000000  0.5014100000000 1.0
C      1  0.4478450000000  0.5119210000000  0.5246570000000 1.0
C      1  0.5053910000000  0.4209490000000  0.4814820000000 1.0
C      1  0.4817490000000  0.5558780000000  0.4510090000000 1.0
C      1  0.4542040000000  0.4404600000000  0.4900820000000 1.0
C      1  0.5069400000000  0.5281380000000  0.4995000000000 1.0
C      1  0.4605950000000  0.5384230000000  0.4673630000000 1.0
C      1  0.4577560000000  0.4741350000000  0.4600240000000 1.0
C      1  0.4441490000000  0.4862760000000  0.4849720000000 1.0
C      1  0.5146740000000  0.5496750000000  0.5769090000000 1.0
C      1  0.5432200000000  0.4607450000000  0.4656450000000 1.0
C      1  0.5191830000000  0.4552890000000  0.4507850000000 1.0
C      1  0.5009860000000  0.5184360000000  0.4197350000000 1.0
C      1  0.5038160000000  0.5665270000000  0.4651580000000 1.0
C      1  0.4924050000000  0.5367900000000  0.5673930000000 1.0
C      1  0.4819410000000  0.4622200000000  0.5589680000000 1.0
C      1  0.4722960000000  0.4230610000000  0.5284200000000 1.0
C      1  0.5597950000000  0.5243370000000  0.5190930000000 1.0
C      1  0.4679530000000  0.5550620000000  0.5216840000000 1.0
C      1  0.5345380000000  0.4427390000000  0.5147760000000 1.0
C      1  0.4917540000000  0.5439490000000  0.5380650000000 1.0
C      1  0.4366300000000  0.5357790000000  0.4862820000000 1.0
C      1  0.5248880000000  0.5700530000000  0.5075900000000 1.0
C      1  0.5427300000000  0.5314160000000  0.5413820000000 1.0
C      1  0.4898480000000  0.4900200000000  0.5120120000000 1.0
C      1  0.5142080000000  0.4229550000000  0.5078510000000 1.0
C      1  0.4694910000000  0.4938590000000  0.4428580000000 1.0
C      1  0.4699610000000  0.4888850000000  0.5630070000000 1.0
C      1  0.5268610000000  0.5071740000000  0.5460360000000 1.0
C      1  0.5309020000000  0.5562710000000  0.4631390000000 1.0
C      1  0.5431980000000  0.5581850000000  0.4889700000000 1.0
C      1  0.5293080000000  0.5197010000000  0.4261620000000 1.0
C      1  0.5021320000000  0.5144500000000  0.5261230000000 1.0
C      1  0.4273510000000  0.5101320000000  0.4821760000000 1.0
C      1  0.5650800000000  0.4784650000000  0.4963670000000 1.0
C      1  0.4688380000000  0.4488220000000  0.4662640000000 1.0
C      1  0.5593540000000  0.4868640000000  0.4692540000000 1.0
C      1  0.5059150000000  0.4861260000000  0.4878370000000 1.0
C      1  0.5441110000000  0.4850830000000  0.5370010000000 1.0
C      1  0.5118940000000  0.4605370000000  0.5601960000000 1.0
C      1  0.5188930000000  0.5583350000000  0.5329700000000 1.0
C      1  0.5505430000000  0.5153800000000  0.4710980000000 1.0
C      1  0.4594250000000  0.4175180000000  0.5036980000000 1.0
C      1  0.4918300000000  0.4912450000000  0.4240800000000 1.0
C      1  0.5321410000000  0.4593590000000  0.5380580000000 1.0
C      1  0.5008200000000  0.5760100000000  0.4922670000000 1.0
C      1  0.4643300000000  0.4467690000000  0.5429600000000 1.0
C      1  0.4482050000000  0.4912110000000  0.5437560000000 1.0
C      1  0.5148180000000  0.4980290000000  0.5721360000000 1.0
C      1  0.5621220000000  0.4952440000000  0.5184050000000 1.0
C      1  0.4981580000000  0.4127220000000  0.5288990000000 1.0
C      1  0.5247260000000  0.5076700000000  0.4883090000000 1.0
C      1  0.4450890000000  0.5386120000000  0.5147870000000 1.0
C      1  0.5342030000000  0.5543620000000  0.5569310000000 1.0
C      1  0.4943070000000  0.5034810000000  0.4663480000000 1.0
C      1  0.4451420000000  0.4647760000000  0.5313020000000 1.0
C      1  0.5217160000000  0.4737010000000  0.5829530000000 1.0
C      1  0.5153010000000  0.4748010000000  0.4300800000000 1.0
C      1  0.4768930000000  0.5738930000000  0.5044540000000 1.0
C      1  0.5585580000000  0.5349990000000  0.4933380000000 1.0
C      1  0.4973750000000  0.4394040000000  0.4630790000000 1.0
C      1  0.5358610000000  0.4926300000000  0.4260570000000 1.0
C      1  0.4876550000000  0.5086590000000  0.5733680000000 1.0
C      1  0.4820310000000  0.5363060000000  0.4307760000000 1.0
END
