TITL C-39543-981-3 -2.75790300212382 125000 -400.694776649273 0 0 58 (C1) n - 1
REM
REM in /rds/project/t2_vol4/rds-t2-cs072/BORA/CARBON/from-Arr/AIRSS/Generating-Clusters/GAP-ML-2020/Only-C1/SD-CG/HFTN-CG
REM
REM
REM
REM
REM
REM ./C.cell (11c1c37f851c82e70ff6c80c92926a4b)
REM AIRSS Version 0.9.1 bugfix July 2018 build 013d7b7c2542+ Fri, 06 Jul 2018 19:26:36 +0100
REM compiler GCC version 9.3.0
REM options -cpp -mtune=generic -march=x86-64 -g -O0
REM seed 143981338 97951597 -1562191741 -1315194347 -1551839411 1229978636 1212301170 2067758847 1622837907 -621501569 -775193782 -1362208566 -330453783 -1674652073 1016764107 -2080412679 -476948914 808588587 2077504330 -314094545 739555349 -915459693 -772327592 -465367047 65493540 -946674009 1529619897 1477970464 1064731679 -225361650 704825875 1589519298 -980969315
REM
CELL 1.54180   50.00000   50.00000   50.00000   90.00000   90.00000   90.00000
LATT -1
SFAC C  
C      1  0.4816400000000  0.4727980000000  0.5599160000000 1.0
C      1  0.5511490000000  0.5081840000000  0.4472570000000 1.0
C      1  0.5250520000000  0.4683490000000  0.4365190000000 1.0
C      1  0.4658070000000  0.5253040000000  0.5593910000000 1.0
C      1  0.5154780000000  0.5121940000000  0.4170260000000 1.0
C      1  0.5015220000000  0.5453360000000  0.5601710000000 1.0
C      1  0.5114110000000  0.4361590000000  0.5178840000000 1.0
C      1  0.4697580000000  0.5541940000000  0.5204900000000 1.0
C      1  0.4607400000000  0.4421760000000  0.5147880000000 1.0
C      1  0.5561780000000  0.5178910000000  0.5407810000000 1.0
C      1  0.5016690000000  0.4372000000000  0.4697030000000 1.0
C      1  0.5311670000000  0.5248820000000  0.4367010000000 1.0
C      1  0.5463350000000  0.4662690000000  0.5249130000000 1.0
C      1  0.4944050000000  0.4502460000000  0.5492910000000 1.0
C      1  0.5559190000000  0.4793090000000  0.4770470000000 1.0
C      1  0.5037160000000  0.4995030000000  0.5007950000000 1.0
C      1  0.5074300000000  0.4877550000000  0.4233870000000 1.0
C      1  0.4434440000000  0.5111970000000  0.5175270000000 1.0
C      1  0.5151320000000  0.4502450000000  0.4930490000000 1.0
C      1  0.5467360000000  0.4793180000000  0.4493610000000 1.0
C      1  0.5235500000000  0.4541220000000  0.5413590000000 1.0
C      1  0.5172120000000  0.5615130000000  0.5010630000000 1.0
C      1  0.4761620000000  0.5499370000000  0.5474080000000 1.0
C      1  0.5270080000000  0.5520520000000  0.5521290000000 1.0
C      1  0.5605980000000  0.5094100000000  0.4742010000000 1.0
C      1  0.4629370000000  0.4747030000000  0.4817800000000 1.0
C      1  0.5088320000000  0.5000910000000  0.4717570000000 1.0
C      1  0.4410230000000  0.5059840000000  0.4467420000000 1.0
C      1  0.5433340000000  0.4626920000000  0.4962390000000 1.0
C      1  0.4841750000000  0.4739270000000  0.4370160000000 1.0
C      1  0.4977730000000  0.5144880000000  0.5210930000000 1.0
C      1  0.5191270000000  0.5443160000000  0.4543270000000 1.0
C      1  0.4564900000000  0.4792910000000  0.5486500000000 1.0
C      1  0.4376170000000  0.5272210000000  0.4605400000000 1.0
C      1  0.4496080000000  0.5374290000000  0.5076090000000 1.0
C      1  0.5459770000000  0.5329800000000  0.5624150000000 1.0
C      1  0.4662100000000  0.4899860000000  0.4548840000000 1.0
C      1  0.4614160000000  0.4442970000000  0.4863590000000 1.0
C      1  0.4884070000000  0.5628490000000  0.4997160000000 1.0
C      1  0.4922980000000  0.5189690000000  0.5699440000000 1.0
C      1  0.4843950000000  0.4348320000000  0.5277200000000 1.0
C      1  0.4501980000000  0.5427160000000  0.4799060000000 1.0
C      1  0.5023100000000  0.4537780000000  0.4471770000000 1.0
C      1  0.5014230000000  0.4923250000000  0.5671900000000 1.0
C      1  0.5499760000000  0.4891720000000  0.5432070000000 1.0
C      1  0.4905700000000  0.5399780000000  0.4570730000000 1.0
C      1  0.5336480000000  0.5563810000000  0.5239800000000 1.0
C      1  0.5536500000000  0.5368910000000  0.5172130000000 1.0
C      1  0.4760930000000  0.5551800000000  0.4750690000000 1.0
C      1  0.4454890000000  0.4853100000000  0.5040840000000 1.0
C      1  0.4510480000000  0.5070920000000  0.5448740000000 1.0
C      1  0.4492670000000  0.4659670000000  0.5245720000000 1.0
C      1  0.4922810000000  0.4738130000000  0.4961620000000 1.0
C      1  0.5320480000000  0.5505500000000  0.4784300000000 1.0
C      1  0.4767260000000  0.4259690000000  0.4743130000000 1.0
C      1  0.4857900000000  0.5119530000000  0.4607470000000 1.0
C      1  0.5539870000000  0.5331820000000  0.4887150000000 1.0
C      1  0.5266590000000  0.4801430000000  0.5583390000000 1.0
END
