TITL C-39034-4558-8 24.027509561017 125000 -350.66363745809 0 0 52 (C1) n - 1
REM
REM in /rds/project/t2_vol4/rds-t2-cs072/BORA/CARBON/from-Arr/AIRSS/Generating-Clusters/GAP-ML-2020/Only-C1/SD-CG/HFTN-CG
REM
REM
REM
REM
REM
REM ./C.cell (11c1c37f851c82e70ff6c80c92926a4b)
REM AIRSS Version 0.9.1 bugfix July 2018 build 013d7b7c2542+ Fri, 06 Jul 2018 19:26:36 +0100
REM compiler GCC version 9.3.0
REM options -cpp -mtune=generic -march=x86-64 -g -O0
REM seed 1704716489 470152691 1034301570 1819511204 -489493554 2111533797 891597797 1277264620 -1457548012 -454942441 -879904293 1392218219 1667802914 -1338116959 2000870190 1852319971 283250290 1307974062 -603848973 -1132414741 1131878050 -515207079 -1743117785 -1678381973 -1262045555 414667476 -1214640206 -1679509435 -517771182 1934755134 1581700201 212629563 603232887
REM
CELL 1.54180   50.00000   50.00000   50.00000   90.00000   90.00000   90.00000
LATT -1
SFAC C  
C      1  0.5609130000000  0.4648920000000  0.4636560000000 1.0
C      1  0.5651850000000  0.4897470000000  0.4646470000000 1.0
C      1  0.5506370000000  0.4708710000000  0.5372350000000 1.0
C      1  0.5141810000000  0.5587410000000  0.5396290000000 1.0
C      1  0.5283520000000  0.4599330000000  0.5222680000000 1.0
C      1  0.4439830000000  0.4906310000000  0.4952770000000 1.0
C      1  0.4875490000000  0.5273710000000  0.4511830000000 1.0
C      1  0.4892070000000  0.4492850000000  0.5497320000000 1.0
C      1  0.5090180000000  0.4818980000000  0.5286690000000 1.0
C      1  0.4725120000000  0.4467360000000  0.4909740000000 1.0
C      1  0.4968260000000  0.4527590000000  0.4463660000000 1.0
C      1  0.4537630000000  0.4634300000000  0.5354140000000 1.0
C      1  0.4730290000000  0.4516820000000  0.4639760000000 1.0
C      1  0.4529070000000  0.4884060000000  0.5499830000000 1.0
C      1  0.5354450000000  0.5453260000000  0.5263620000000 1.0
C      1  0.4977800000000  0.4391780000000  0.5015400000000 1.0
C      1  0.5057180000000  0.4823110000000  0.4852480000000 1.0
C      1  0.4982990000000  0.5055650000000  0.4339130000000 1.0
C      1  0.5570060000000  0.5383710000000  0.4825350000000 1.0
C      1  0.4664660000000  0.5322770000000  0.4972550000000 1.0
C      1  0.5393970000000  0.5518630000000  0.4974640000000 1.0
C      1  0.5147610000000  0.5577760000000  0.4823900000000 1.0
C      1  0.4693160000000  0.5600820000000  0.5047170000000 1.0
C      1  0.5416810000000  0.5186700000000  0.5334500000000 1.0
C      1  0.5060930000000  0.4404410000000  0.5287190000000 1.0
C      1  0.5241270000000  0.5141360000000  0.4264140000000 1.0
C      1  0.5190080000000  0.5108160000000  0.5170800000000 1.0
C      1  0.5003240000000  0.5786970000000  0.5245100000000 1.0
C      1  0.4954290000000  0.5713330000000  0.4972460000000 1.0
C      1  0.4736540000000  0.5675510000000  0.5324100000000 1.0
C      1  0.5478370000000  0.5132450000000  0.4716670000000 1.0
C      1  0.4868370000000  0.4859430000000  0.5088540000000 1.0
C      1  0.4875890000000  0.5485130000000  0.5495440000000 1.0
C      1  0.5543710000000  0.4959720000000  0.5422030000000 1.0
C      1  0.4887860000000  0.5160490000000  0.5164270000000 1.0
C      1  0.5106270000000  0.5424050000000  0.4595530000000 1.0
C      1  0.4872430000000  0.4797070000000  0.4369420000000 1.0
C      1  0.4537010000000  0.4972240000000  0.4695450000000 1.0
C      1  0.4982230000000  0.4770670000000  0.5550970000000 1.0
C      1  0.5334200000000  0.5279410000000  0.4485990000000 1.0
C      1  0.4788790000000  0.5217650000000  0.5446420000000 1.0
C      1  0.4501250000000  0.5141050000000  0.5373010000000 1.0
C      1  0.5197220000000  0.4389020000000  0.4479640000000 1.0
C      1  0.4599370000000  0.4683090000000  0.5074650000000 1.0
C      1  0.5213140000000  0.4560810000000  0.4915970000000 1.0
C      1  0.5377440000000  0.4488110000000  0.4680950000000 1.0
C      1  0.5231560000000  0.5042340000000  0.4891820000000 1.0
C      1  0.4666600000000  0.5227600000000  0.4691940000000 1.0
C      1  0.4786040000000  0.4964710000000  0.5609980000000 1.0
C      1  0.4630580000000  0.4419180000000  0.5509210000000 1.0
C      1  0.4456380000000  0.5146930000000  0.5101430000000 1.0
C      1  0.4639620000000  0.4771060000000  0.4538050000000 1.0
END
