TITL C-39037-1878-5 -0.0845394936130089 125000 -172.938280622966 0 0 27 (C1) n - 1
REM
REM in /rds/project/t2_vol4/rds-t2-cs072/BORA/CARBON/from-Arr/AIRSS/Generating-Clusters/GAP-ML-2020/Only-C1/SD-CG/HFTN-CG
REM
REM
REM
REM
REM
REM ./C.cell (11c1c37f851c82e70ff6c80c92926a4b)
REM AIRSS Version 0.9.1 bugfix July 2018 build 013d7b7c2542+ Fri, 06 Jul 2018 19:26:36 +0100
REM compiler GCC version 9.3.0
REM options -cpp -mtune=generic -march=x86-64 -g -O0
REM seed 2076789331 1263512989 -1091663219 -279514598 -1394905673 -2134114489 25242911 -527915324 -325111827 -403411709 1206079735 -1790624715 2073097743 -1366990866 -1468020832 2126901046 -720944155 -2012363380 394661728 1911374062 -1649958790 373335085 -533242966 -315224558 926512207 -918787967 -1469332984 -1534581771 666871225 -1156939923 1201476843 39152209 1094665135
REM
CELL 1.54180   50.00000   50.00000   50.00000   90.00000   90.00000   90.00000
LATT -1
SFAC C  
C      1  0.4746530000000  0.5346590000000  0.4923770000000 1.0
C      1  0.5247660000000  0.4720910000000  0.5232830000000 1.0
C      1  0.4969520000000  0.5521900000000  0.4948400000000 1.0
C      1  0.5263710000000  0.4993340000000  0.5401460000000 1.0
C      1  0.5005660000000  0.5430320000000  0.5197840000000 1.0
C      1  0.5323970000000  0.4936990000000  0.4750920000000 1.0
C      1  0.5327770000000  0.5027070000000  0.5654190000000 1.0
C      1  0.5102680000000  0.5163330000000  0.5211150000000 1.0
C      1  0.4875640000000  0.4596660000000  0.4908760000000 1.0
C      1  0.5193780000000  0.5195900000000  0.4370450000000 1.0
C      1  0.5174880000000  0.5401170000000  0.4784260000000 1.0
C      1  0.4846790000000  0.5076080000000  0.4885780000000 1.0
C      1  0.5330360000000  0.4659920000000  0.4827970000000 1.0
C      1  0.4505310000000  0.5372180000000  0.5046890000000 1.0
C      1  0.4604130000000  0.4780120000000  0.5497910000000 1.0
C      1  0.5423290000000  0.4586870000000  0.5076710000000 1.0
C      1  0.5175700000000  0.4957160000000  0.4497850000000 1.0
C      1  0.5089020000000  0.4550130000000  0.4720030000000 1.0
C      1  0.4980620000000  0.4762100000000  0.4534380000000 1.0
C      1  0.4615170000000  0.5027160000000  0.5343340000000 1.0
C      1  0.4449580000000  0.5226960000000  0.5258200000000 1.0
C      1  0.5217310000000  0.5410050000000  0.4518930000000 1.0
C      1  0.4779050000000  0.4610300000000  0.5417230000000 1.0
C      1  0.4855420000000  0.4990430000000  0.5174740000000 1.0
C      1  0.4948390000000  0.4707860000000  0.5178670000000 1.0
C      1  0.5162980000000  0.5128810000000  0.4901410000000 1.0
C      1  0.4785090000000  0.4819710000000  0.4735900000000 1.0
END
