TITL C-39028-1124-8 488.176832494307 125000 -865.495850955247 0 0 123 (C1) n - 1
REM
REM in /rds/project/t2_vol4/rds-t2-cs072/BORA/CARBON/from-Arr/AIRSS/Generating-Clusters/GAP-ML-2020/Only-C1/SD-CG/HFTN-CG
REM
REM
REM
REM
REM
REM ./C.cell (11c1c37f851c82e70ff6c80c92926a4b)
REM AIRSS Version 0.9.1 bugfix July 2018 build 013d7b7c2542+ Fri, 06 Jul 2018 19:26:36 +0100
REM compiler GCC version 9.3.0
REM options -cpp -mtune=generic -march=x86-64 -g -O0
REM seed 935100042 1517334730 -1939342078 2076906750 -630277635 -45001004 233248933 -2118324700 -1386584544 824729926 1599585048 318306985 235639007 1889289754 -2030711377 305349648 2001340476 -38826828 -456063120 -1875374102 652649665 -1136954695 -1906258742 905700487 -763908231 -594627042 1319010170 1205921300 -321280291 890081884 1023052796 1593775937 -2026195130
REM
CELL 1.54180   50.00000   50.00000   50.00000   90.00000   90.00000   90.00000
LATT -1
SFAC C  
C      1  0.4760160000000  0.5863690000000  0.4940350000000 1.0
C      1  0.4939790000000  0.4671540000000  0.5832780000000 1.0
C      1  0.5528630000000  0.4483160000000  0.5514070000000 1.0
C      1  0.5330690000000  0.5041640000000  0.5161440000000 1.0
C      1  0.5757440000000  0.5337080000000  0.5040690000000 1.0
C      1  0.4530970000000  0.4987020000000  0.5810690000000 1.0
C      1  0.5467130000000  0.4299230000000  0.4930280000000 1.0
C      1  0.5799180000000  0.4575010000000  0.4854120000000 1.0
C      1  0.5909850000000  0.5265180000000  0.4779190000000 1.0
C      1  0.4637520000000  0.5192780000000  0.5059190000000 1.0
C      1  0.5909200000000  0.4637400000000  0.5379040000000 1.0
C      1  0.5386660000000  0.5134230000000  0.4187500000000 1.0
C      1  0.5464060000000  0.5212380000000  0.4962200000000 1.0
C      1  0.5461480000000  0.5622390000000  0.4360160000000 1.0
C      1  0.5263900000000  0.5234040000000  0.5382890000000 1.0
C      1  0.5750070000000  0.4408500000000  0.5317500000000 1.0
C      1  0.6086460000000  0.5059610000000  0.5286670000000 1.0
C      1  0.5317310000000  0.4410530000000  0.5703040000000 1.0
C      1  0.5393310000000  0.5082160000000  0.4568800000000 1.0
C      1  0.5660030000000  0.5637670000000  0.4567960000000 1.0
C      1  0.4440760000000  0.4271500000000  0.4933870000000 1.0
C      1  0.5452220000000  0.4360730000000  0.4656410000000 1.0
C      1  0.4735660000000  0.4371620000000  0.4546430000000 1.0
C      1  0.4215310000000  0.5248230000000  0.5594370000000 1.0
C      1  0.5229410000000  0.4666700000000  0.5828050000000 1.0
C      1  0.5846120000000  0.5439160000000  0.4585810000000 1.0
C      1  0.4541350000000  0.4703500000000  0.4922140000000 1.0
C      1  0.4846760000000  0.4923520000000  0.4684130000000 1.0
C      1  0.4753970000000  0.5733430000000  0.5404880000000 1.0
C      1  0.5008180000000  0.4515670000000  0.4933990000000 1.0
C      1  0.4465990000000  0.5041580000000  0.4259920000000 1.0
C      1  0.4425720000000  0.5458170000000  0.5012510000000 1.0
C      1  0.5210830000000  0.5759090000000  0.4385120000000 1.0
C      1  0.5659400000000  0.5621330000000  0.5071750000000 1.0
C      1  0.5930320000000  0.4980080000000  0.4712980000000 1.0
C      1  0.4903700000000  0.5839290000000  0.5178990000000 1.0
C      1  0.5870740000000  0.5225420000000  0.5301850000000 1.0
C      1  0.4726630000000  0.4131450000000  0.5319000000000 1.0
C      1  0.4953280000000  0.5567960000000  0.5506890000000 1.0
C      1  0.4996870000000  0.4081040000000  0.5413030000000 1.0
C      1  0.4499500000000  0.4469440000000  0.4687680000000 1.0
C      1  0.5724630000000  0.4718560000000  0.5579650000000 1.0
C      1  0.4260890000000  0.4774710000000  0.5590140000000 1.0
C      1  0.4347010000000  0.4631470000000  0.4473030000000 1.0
C      1  0.4847780000000  0.4471590000000  0.4304830000000 1.0
C      1  0.4191490000000  0.5343710000000  0.4860530000000 1.0
C      1  0.4490300000000  0.5633650000000  0.5456270000000 1.0
C      1  0.4628100000000  0.5015990000000  0.5320440000000 1.0
C      1  0.5056130000000  0.4986060000000  0.5063400000000 1.0
C      1  0.5074380000000  0.5430990000000  0.5260170000000 1.0
C      1  0.4071080000000  0.5177030000000  0.5061080000000 1.0
C      1  0.5232530000000  0.4365820000000  0.5093840000000 1.0
C      1  0.4057160000000  0.4889410000000  0.4991090000000 1.0
C      1  0.4258620000000  0.5001220000000  0.5757130000000 1.0
C      1  0.4462400000000  0.5398870000000  0.5617800000000 1.0
C      1  0.4867600000000  0.5176110000000  0.4565340000000 1.0
C      1  0.4872470000000  0.5906320000000  0.4679470000000 1.0
C      1  0.4611280000000  0.5621280000000  0.4301950000000 1.0
C      1  0.5202500000000  0.5724540000000  0.5141050000000 1.0
C      1  0.5465280000000  0.5653510000000  0.5278950000000 1.0
C      1  0.4765780000000  0.4593190000000  0.5113880000000 1.0
C      1  0.4518280000000  0.5717110000000  0.4897280000000 1.0
C      1  0.4294240000000  0.4411690000000  0.5137170000000 1.0
C      1  0.5609180000000  0.4631070000000  0.4634780000000 1.0
C      1  0.4489070000000  0.4758750000000  0.4258690000000 1.0
C      1  0.4677720000000  0.5836230000000  0.4486390000000 1.0
C      1  0.5302190000000  0.5422810000000  0.5744060000000 1.0
C      1  0.4664240000000  0.4403860000000  0.5383960000000 1.0
C      1  0.4643890000000  0.4100480000000  0.5033070000000 1.0
C      1  0.5708850000000  0.4381610000000  0.5044090000000 1.0
C      1  0.4657260000000  0.5165340000000  0.5593500000000 1.0
C      1  0.4365160000000  0.4371060000000  0.5409820000000 1.0
C      1  0.4902700000000  0.4079470000000  0.4926890000000 1.0
C      1  0.5306030000000  0.5284280000000  0.4745160000000 1.0
C      1  0.4752580000000  0.5165770000000  0.4254410000000 1.0
C      1  0.6050850000000  0.4804700000000  0.5193930000000 1.0
C      1  0.5016890000000  0.5337210000000  0.4755160000000 1.0
C      1  0.5692040000000  0.5225740000000  0.5524080000000 1.0
C      1  0.5305330000000  0.4580860000000  0.5310800000000 1.0
C      1  0.4228640000000  0.4505000000000  0.5604520000000 1.0
C      1  0.4749780000000  0.4697360000000  0.4168910000000 1.0
C      1  0.5128610000000  0.4456550000000  0.4319320000000 1.0
C      1  0.5334330000000  0.5421220000000  0.4186880000000 1.0
C      1  0.4122930000000  0.5313750000000  0.5328440000000 1.0
C      1  0.5474480000000  0.5437660000000  0.5502720000000 1.0
C      1  0.5365270000000  0.4920480000000  0.5767610000000 1.0
C      1  0.5977770000000  0.4780150000000  0.4912280000000 1.0
C      1  0.5202570000000  0.5137600000000  0.5670700000000 1.0
C      1  0.5147490000000  0.5879640000000  0.4639260000000 1.0
C      1  0.5626420000000  0.4966310000000  0.5655530000000 1.0
C      1  0.4441050000000  0.5757500000000  0.4637200000000 1.0
C      1  0.5765520000000  0.4875980000000  0.4502590000000 1.0
C      1  0.5323360000000  0.4802980000000  0.4613050000000 1.0
C      1  0.5606440000000  0.5073170000000  0.4367850000000 1.0
C      1  0.5457490000000  0.4796080000000  0.5190480000000 1.0
C      1  0.4368700000000  0.5549630000000  0.4459790000000 1.0
C      1  0.5077560000000  0.5561120000000  0.4202150000000 1.0
C      1  0.5187880000000  0.4921340000000  0.4143200000000 1.0
C      1  0.4152220000000  0.4838980000000  0.4536370000000 1.0
C      1  0.5305910000000  0.5819790000000  0.4870290000000 1.0
C      1  0.4903670000000  0.4935070000000  0.4126330000000 1.0
C      1  0.4226310000000  0.5333140000000  0.4575660000000 1.0
C      1  0.5076100000000  0.4792220000000  0.4812180000000 1.0
C      1  0.4794360000000  0.4915530000000  0.5894060000000 1.0
C      1  0.4290390000000  0.4710670000000  0.5093930000000 1.0
C      1  0.5574300000000  0.5745460000000  0.4829170000000 1.0
C      1  0.4927950000000  0.5271900000000  0.5034310000000 1.0
C      1  0.5088230000000  0.4110810000000  0.5149860000000 1.0
C      1  0.4242090000000  0.5091650000000  0.4425000000000 1.0
C      1  0.4958820000000  0.4280210000000  0.4715420000000 1.0
C      1  0.4384120000000  0.4852240000000  0.5333940000000 1.0
C      1  0.5025330000000  0.5458970000000  0.5758990000000 1.0
C      1  0.5078090000000  0.4263830000000  0.5620890000000 1.0
C      1  0.4874450000000  0.4833000000000  0.5249700000000 1.0
C      1  0.4302140000000  0.5534310000000  0.5267400000000 1.0
C      1  0.5203000000000  0.4303700000000  0.4543990000000 1.0
C      1  0.5258300000000  0.4705150000000  0.4313370000000 1.0
C      1  0.5043730000000  0.4681250000000  0.5427960000000 1.0
C      1  0.3968840000000  0.4836850000000  0.4736150000000 1.0
C      1  0.4917150000000  0.5166140000000  0.5759720000000 1.0
C      1  0.4808920000000  0.5456590000000  0.4185210000000 1.0
C      1  0.4881150000000  0.4483740000000  0.5601370000000 1.0
C      1  0.4617640000000  0.4969030000000  0.4844660000000 1.0
END
