TITL C-39227-6431-2 88.8466016855212 125000 -258.186288029761 0 0 39 (C1) n - 1
REM
REM in /rds/project/t2_vol4/rds-t2-cs072/BORA/CARBON/from-Arr/AIRSS/Generating-Clusters/GAP-ML-2020/Only-C1/SD-CG/HFTN-CG
REM
REM
REM
REM
REM
REM ./C.cell (11c1c37f851c82e70ff6c80c92926a4b)
REM AIRSS Version 0.9.1 bugfix July 2018 build 013d7b7c2542+ Fri, 06 Jul 2018 19:26:36 +0100
REM compiler GCC version 9.3.0
REM options -cpp -mtune=generic -march=x86-64 -g -O0
REM seed -1481248277 -1417822437 -1091540901 1417521721 -1987659835 -485485073 846354616 -2070582097 1310817638 84435824 -1148200722 -159439899 1418984652 -1165899291 414837100 -924113059 770450513 -320779154 1800893555 -528800114 1869494541 -1208633877 1756441270 -1211541706 1144371562 628087902 -1334276167 1413663975 -1751820395 -1103433929 -1169713445 -527316727 933565217
REM
CELL 1.54180   50.00000   50.00000   50.00000   90.00000   90.00000   90.00000
LATT -1
SFAC C  
C      1  0.5114400000000  0.4765320000000  0.4661970000000 1.0
C      1  0.4831310000000  0.4472360000000  0.4347680000000 1.0
C      1  0.4770880000000  0.4810910000000  0.5405380000000 1.0
C      1  0.4968080000000  0.5049150000000  0.4643670000000 1.0
C      1  0.5090830000000  0.5052420000000  0.5709360000000 1.0
C      1  0.5493360000000  0.4735580000000  0.4978350000000 1.0
C      1  0.4697390000000  0.4743830000000  0.4911780000000 1.0
C      1  0.5033800000000  0.4590560000000  0.4453840000000 1.0
C      1  0.5359770000000  0.4538760000000  0.5133150000000 1.0
C      1  0.4835680000000  0.5543060000000  0.5258760000000 1.0
C      1  0.5133090000000  0.5559300000000  0.5200190000000 1.0
C      1  0.5003500000000  0.4662220000000  0.5333620000000 1.0
C      1  0.4576420000000  0.4534410000000  0.4460660000000 1.0
C      1  0.4720390000000  0.5406830000000  0.4829950000000 1.0
C      1  0.5295560000000  0.4665400000000  0.5388990000000 1.0
C      1  0.5436500000000  0.4921270000000  0.5392270000000 1.0
C      1  0.5464890000000  0.5204880000000  0.4961100000000 1.0
C      1  0.4979170000000  0.4693560000000  0.4917360000000 1.0
C      1  0.5546510000000  0.4974300000000  0.5130060000000 1.0
C      1  0.4533460000000  0.5198260000000  0.4775740000000 1.0
C      1  0.4866170000000  0.5099970000000  0.5121320000000 1.0
C      1  0.4630440000000  0.4911120000000  0.5145230000000 1.0
C      1  0.5465350000000  0.5105260000000  0.4693710000000 1.0
C      1  0.5362090000000  0.5236260000000  0.4468250000000 1.0
C      1  0.4678610000000  0.4989770000000  0.4655790000000 1.0
C      1  0.5075360000000  0.4907160000000  0.5125330000000 1.0
C      1  0.5186810000000  0.5325660000000  0.5347140000000 1.0
C      1  0.4391130000000  0.5378580000000  0.5156960000000 1.0
C      1  0.4569720000000  0.4721420000000  0.4654310000000 1.0
C      1  0.4886420000000  0.5268060000000  0.5357780000000 1.0
C      1  0.5297870000000  0.5130560000000  0.5515110000000 1.0
C      1  0.4428370000000  0.5125720000000  0.5061660000000 1.0
C      1  0.5217090000000  0.5349250000000  0.5025160000000 1.0
C      1  0.5401870000000  0.4823800000000  0.4727140000000 1.0
C      1  0.4966690000000  0.5247220000000  0.4880440000000 1.0
C      1  0.5083400000000  0.4485130000000  0.5094920000000 1.0
C      1  0.5111380000000  0.5207820000000  0.4434040000000 1.0
C      1  0.4628980000000  0.5527460000000  0.5076980000000 1.0
C      1  0.4867270000000  0.5037400000000  0.5564840000000 1.0
END
