TITL C-39537-2505-3 2311.27325138333 125000 -463.934108706885 0 0 68 (C1) n - 1
REM
REM in /rds/project/t2_vol4/rds-t2-cs072/BORA/CARBON/from-Arr/AIRSS/Generating-Clusters/GAP-ML-2020/Only-C1/SD-CG/HFTN-CG
REM
REM
REM
REM
REM
REM ./C.cell (11c1c37f851c82e70ff6c80c92926a4b)
REM AIRSS Version 0.9.1 bugfix July 2018 build 013d7b7c2542+ Fri, 06 Jul 2018 19:26:36 +0100
REM compiler GCC version 9.3.0
REM options -cpp -mtune=generic -march=x86-64 -g -O0
REM seed -1911558586 1382371753 -1223119873 274812841 1957419819 -169904096 -513997542 -410255872 -134001193 909487582 1950577414 293882072 -1252464453 24477373 -1907331832 128077149 290046614 1704827115 207824473 49160572 -478909752 1116304461 1010117861 -1866098054 -1460161681 1101148768 307380343 -726574443 -618976797 36098935 -458304076 324883241 1426359716
REM
CELL 1.54180   50.00000   50.00000   50.00000   90.00000   90.00000   90.00000
LATT -1
SFAC C  
C      1  0.4557510000000  0.4487750000000  0.4883570000000 1.0
C      1  0.4579360000000  0.4789230000000  0.4868210000000 1.0
C      1  0.5123630000000  0.4775740000000  0.4713690000000 1.0
C      1  0.5523920000000  0.5140790000000  0.4959500000000 1.0
C      1  0.5065240000000  0.5555390000000  0.4553290000000 1.0
C      1  0.4386250000000  0.5351230000000  0.4816890000000 1.0
C      1  0.4415380000000  0.4413980000000  0.5107660000000 1.0
C      1  0.5357080000000  0.5580020000000  0.4952440000000 1.0
C      1  0.5345590000000  0.4859890000000  0.4283400000000 1.0
C      1  0.5235830000000  0.4329230000000  0.4652980000000 1.0
C      1  0.4740460000000  0.5240180000000  0.4258660000000 1.0
C      1  0.4708080000000  0.5042920000000  0.5582870000000 1.0
C      1  0.5618500000000  0.4703130000000  0.5402080000000 1.0
C      1  0.4976170000000  0.4269080000000  0.5039960000000 1.0
C      1  0.4795460000000  0.4336870000000  0.4816630000000 1.0
C      1  0.5399540000000  0.5190480000000  0.4681610000000 1.0
C      1  0.4591050000000  0.5538650000000  0.4869000000000 1.0
C      1  0.5307230000000  0.5482220000000  0.4689150000000 1.0
C      1  0.4515070000000  0.4654660000000  0.5415800000000 1.0
C      1  0.5657760000000  0.4640790000000  0.5118110000000 1.0
C      1  0.5708350000000  0.4933620000000  0.5079510000000 1.0
C      1  0.4899280000000  0.5540550000000  0.5527170000000 1.0
C      1  0.5341720000000  0.4677760000000  0.5453940000000 1.0
C      1  0.5224710000000  0.5318090000000  0.5802050000000 1.0
C      1  0.5555040000000  0.5413110000000  0.5072370000000 1.0
C      1  0.5699850000000  0.4974530000000  0.5369810000000 1.0
C      1  0.5126400000000  0.5060750000000  0.4654680000000 1.0
C      1  0.4846610000000  0.4977170000000  0.4220130000000 1.0
C      1  0.4289080000000  0.5163690000000  0.5008690000000 1.0
C      1  0.5257830000000  0.4255700000000  0.4923110000000 1.0
C      1  0.5338720000000  0.5100700000000  0.5679880000000 1.0
C      1  0.4800480000000  0.4598240000000  0.5448190000000 1.0
C      1  0.5560040000000  0.5177880000000  0.5495710000000 1.0
C      1  0.5506720000000  0.5020990000000  0.4451490000000 1.0
C      1  0.5510770000000  0.4738600000000  0.4470360000000 1.0
C      1  0.5197670000000  0.4847750000000  0.5628320000000 1.0
C      1  0.5184090000000  0.5679720000000  0.5182920000000 1.0
C      1  0.5431610000000  0.4499860000000  0.4999860000000 1.0
C      1  0.5540780000000  0.5426320000000  0.5352500000000 1.0
C      1  0.4951050000000  0.4640240000000  0.4470580000000 1.0
C      1  0.5161820000000  0.5522260000000  0.5630950000000 1.0
C      1  0.5370310000000  0.4597120000000  0.4688050000000 1.0
C      1  0.5205560000000  0.4583200000000  0.5205580000000 1.0
C      1  0.4860640000000  0.5468870000000  0.4389110000000 1.0
C      1  0.5084800000000  0.4797460000000  0.5013660000000 1.0
C      1  0.4484530000000  0.4945410000000  0.5439770000000 1.0
C      1  0.5091730000000  0.5234140000000  0.5181690000000 1.0
C      1  0.4870090000000  0.5172480000000  0.4748720000000 1.0
C      1  0.4816260000000  0.5465050000000  0.4680330000000 1.0
C      1  0.4326420000000  0.4947550000000  0.4820350000000 1.0
C      1  0.5266520000000  0.5032610000000  0.5109990000000 1.0
C      1  0.4702060000000  0.5336240000000  0.5548960000000 1.0
C      1  0.4720000000000  0.4810950000000  0.4416610000000 1.0
C      1  0.4897730000000  0.5661500000000  0.5267170000000 1.0
C      1  0.4965810000000  0.4422880000000  0.5281610000000 1.0
C      1  0.4328590000000  0.4447420000000  0.5348670000000 1.0
C      1  0.4911130000000  0.4824300000000  0.5595040000000 1.0
C      1  0.4806970000000  0.4878200000000  0.5063790000000 1.0
C      1  0.4453130000000  0.5221470000000  0.4329320000000 1.0
C      1  0.4405460000000  0.5148010000000  0.4590360000000 1.0
C      1  0.4644500000000  0.5587430000000  0.5145590000000 1.0
C      1  0.4657880000000  0.4975460000000  0.4641810000000 1.0
C      1  0.5332120000000  0.5603470000000  0.5417600000000 1.0
C      1  0.4956950000000  0.4370350000000  0.4580270000000 1.0
C      1  0.4858540000000  0.5155100000000  0.5040570000000 1.0
C      1  0.4514050000000  0.5403600000000  0.5343080000000 1.0
C      1  0.4361680000000  0.5166460000000  0.5282970000000 1.0
C      1  0.5074830000000  0.4793510000000  0.4241590000000 1.0
END
