TITL C-3971-7764-7 -31.484919271348 125000 -417.718180173168 0 0 62 (C1) n - 1
REM
REM in /rds/project/t2_vol4/rds-t2-cs072/BORA/CARBON/from-Arr/AIRSS/Generating-Clusters/GAP-ML-2020/Only-C1/SD-CG/HFTN-CG
REM
REM
REM
REM
REM
REM ./C.cell (11c1c37f851c82e70ff6c80c92926a4b)
REM AIRSS Version 0.9.1 bugfix July 2018 build 013d7b7c2542+ Fri, 06 Jul 2018 19:26:36 +0100
REM compiler GCC version 9.3.0
REM options -cpp -mtune=generic -march=x86-64 -g -O0
REM seed 455242653 -583723310 626758154 -472995484 -341784020 961307860 202146300 -2021055925 1842391764 -1649311327 1222399320 -831409835 -1746447352 1399193897 -1070492530 -311856996 1928211570 1876851768 -442561432 -1224558687 654730897 -1832047041 1603727703 -819546124 -1015024574 727315273 1584557578 -1460192955 -202262252 1206171062 370198812 687446930 -70115506
REM
CELL 1.54180   50.00000   50.00000   50.00000   90.00000   90.00000   90.00000
LATT -1
SFAC C  
C      1  0.4938860000000  0.4778230000000  0.4440340000000 1.0
C      1  0.5521480000000  0.5426520000000  0.4894690000000 1.0
C      1  0.5150090000000  0.4722750000000  0.4862560000000 1.0
C      1  0.4928410000000  0.5106680000000  0.5036290000000 1.0
C      1  0.5431800000000  0.4632110000000  0.4535600000000 1.0
C      1  0.5423700000000  0.4997380000000  0.5107170000000 1.0
C      1  0.5596040000000  0.4659110000000  0.4786350000000 1.0
C      1  0.4797420000000  0.5510320000000  0.4501000000000 1.0
C      1  0.4685360000000  0.4399350000000  0.5521520000000 1.0
C      1  0.4971780000000  0.5312840000000  0.4372130000000 1.0
C      1  0.5260070000000  0.5068910000000  0.5401350000000 1.0
C      1  0.4970820000000  0.4725360000000  0.5592900000000 1.0
C      1  0.5073110000000  0.4379640000000  0.5183310000000 1.0
C      1  0.5248320000000  0.5393690000000  0.4432910000000 1.0
C      1  0.5069440000000  0.5271160000000  0.4877270000000 1.0
C      1  0.4248300000000  0.4733380000000  0.5077210000000 1.0
C      1  0.4905920000000  0.5714040000000  0.4907900000000 1.0
C      1  0.4469940000000  0.5134640000000  0.5199250000000 1.0
C      1  0.4965640000000  0.5148180000000  0.5373550000000 1.0
C      1  0.5465560000000  0.5504300000000  0.5362990000000 1.0
C      1  0.4401000000000  0.5261910000000  0.4632560000000 1.0
C      1  0.4745260000000  0.4701860000000  0.5154200000000 1.0
C      1  0.4824580000000  0.5414360000000  0.5386100000000 1.0
C      1  0.5369210000000  0.5657300000000  0.4830660000000 1.0
C      1  0.4352370000000  0.4680030000000  0.5336380000000 1.0
C      1  0.4946480000000  0.4359140000000  0.4681990000000 1.0
C      1  0.4477350000000  0.4412740000000  0.5328740000000 1.0
C      1  0.5707990000000  0.4893380000000  0.4699690000000 1.0
C      1  0.4903020000000  0.4536070000000  0.5356770000000 1.0
C      1  0.5219340000000  0.5658270000000  0.5313520000000 1.0
C      1  0.5404580000000  0.4707970000000  0.5016410000000 1.0
C      1  0.4574880000000  0.5462100000000  0.4686390000000 1.0
C      1  0.4656650000000  0.5559860000000  0.4955650000000 1.0
C      1  0.5038730000000  0.5033470000000  0.4404750000000 1.0
C      1  0.4979960000000  0.5621550000000  0.5456180000000 1.0
C      1  0.5679930000000  0.5124410000000  0.5199730000000 1.0
C      1  0.4448720000000  0.4738930000000  0.4650170000000 1.0
C      1  0.4572460000000  0.4893840000000  0.5347660000000 1.0
C      1  0.5237650000000  0.5629040000000  0.4585050000000 1.0
C      1  0.4805590000000  0.4954350000000  0.5510910000000 1.0
C      1  0.5322970000000  0.5114010000000  0.4530990000000 1.0
C      1  0.4919310000000  0.4837340000000  0.4975480000000 1.0
C      1  0.5136450000000  0.4599460000000  0.4599070000000 1.0
C      1  0.5345280000000  0.4493830000000  0.5217070000000 1.0
C      1  0.4676940000000  0.4656650000000  0.4487060000000 1.0
C      1  0.4611230000000  0.4448170000000  0.5044710000000 1.0
C      1  0.4886910000000  0.4328240000000  0.4961680000000 1.0
C      1  0.5352330000000  0.5178330000000  0.4856450000000 1.0
C      1  0.5460640000000  0.5254310000000  0.5518010000000 1.0
C      1  0.4964580000000  0.5700700000000  0.4627170000000 1.0
C      1  0.5628210000000  0.5410560000000  0.5147400000000 1.0
C      1  0.4388750000000  0.4573170000000  0.4879920000000 1.0
C      1  0.5255480000000  0.4808430000000  0.5553090000000 1.0
C      1  0.5171670000000  0.5728000000000  0.5034370000000 1.0
C      1  0.5518700000000  0.4908800000000  0.4478850000000 1.0
C      1  0.4808460000000  0.4515590000000  0.5734130000000 1.0
C      1  0.4598580000000  0.5395890000000  0.5198850000000 1.0
C      1  0.5693390000000  0.5103650000000  0.5472490000000 1.0
C      1  0.4290040000000  0.5008530000000  0.5007810000000 1.0
C      1  0.5428550000000  0.4630110000000  0.5440330000000 1.0
C      1  0.4724330000000  0.4376590000000  0.4518430000000 1.0
C      1  0.4349380000000  0.5010460000000  0.4716850000000 1.0
END
