TITL C-39043-4939-10 0.0335765909940223 125000 -381.585646501647 0 0 57 (C1) n - 1
REM
REM in /rds/project/t2_vol4/rds-t2-cs072/BORA/CARBON/from-Arr/AIRSS/Generating-Clusters/GAP-ML-2020/Only-C1/SD-CG/HFTN-CG
REM
REM
REM
REM
REM
REM ./C.cell (11c1c37f851c82e70ff6c80c92926a4b)
REM AIRSS Version 0.9.1 bugfix July 2018 build 013d7b7c2542+ Fri, 06 Jul 2018 19:26:36 +0100
REM compiler GCC version 9.3.0
REM options -cpp -mtune=generic -march=x86-64 -g -O0
REM seed 1750500069 -303814345 863578339 -1766878459 27875147 -1417918062 -1049063306 1383876855 1611538248 2105007603 1108900921 -2105287057 -777207343 1006342806 1216236153 -1356265195 -1651642314 -365567633 808970353 -468549152 1524481505 -4963265 -1865574170 -1947922232 1042416676 -2058968669 -1535591321 817639085 727527150 -1176791454 172044182 1607543697 -942328442
REM
CELL 1.54180   50.00000   50.00000   50.00000   90.00000   90.00000   90.00000
LATT -1
SFAC C  
C      1  0.5458290000000  0.4696480000000  0.5416190000000 1.0
C      1  0.5443080000000  0.5535160000000  0.5140420000000 1.0
C      1  0.4351330000000  0.5024630000000  0.4998640000000 1.0
C      1  0.4793710000000  0.4994310000000  0.5668340000000 1.0
C      1  0.4970560000000  0.5419000000000  0.4959430000000 1.0
C      1  0.4621960000000  0.4773120000000  0.4266350000000 1.0
C      1  0.4991140000000  0.4402850000000  0.4793110000000 1.0
C      1  0.4355960000000  0.5165640000000  0.4763950000000 1.0
C      1  0.4502000000000  0.4568530000000  0.5163470000000 1.0
C      1  0.4898660000000  0.5596080000000  0.4564370000000 1.0
C      1  0.4712270000000  0.4960120000000  0.5383370000000 1.0
C      1  0.4626210000000  0.4759120000000  0.4740610000000 1.0
C      1  0.5327690000000  0.4878750000000  0.5606010000000 1.0
C      1  0.4623030000000  0.4332980000000  0.5092400000000 1.0
C      1  0.5658050000000  0.4811780000000  0.5267730000000 1.0
C      1  0.4540340000000  0.4903340000000  0.4487720000000 1.0
C      1  0.4825290000000  0.4562780000000  0.4631700000000 1.0
C      1  0.4893440000000  0.4345590000000  0.5065020000000 1.0
C      1  0.5365580000000  0.5265420000000  0.5241490000000 1.0
C      1  0.5216010000000  0.5025520000000  0.4808360000000 1.0
C      1  0.4722220000000  0.5375840000000  0.5122390000000 1.0
C      1  0.5006060000000  0.5174760000000  0.4311720000000 1.0
C      1  0.5276050000000  0.4859470000000  0.4563320000000 1.0
C      1  0.5493180000000  0.5436780000000  0.4863410000000 1.0
C      1  0.5178050000000  0.5550840000000  0.4465850000000 1.0
C      1  0.5051370000000  0.4875500000000  0.5018290000000 1.0
C      1  0.4412970000000  0.4740370000000  0.4951910000000 1.0
C      1  0.5319100000000  0.4485970000000  0.5265060000000 1.0
C      1  0.4764130000000  0.5796460000000  0.5045530000000 1.0
C      1  0.5617820000000  0.4905290000000  0.5007860000000 1.0
C      1  0.4960720000000  0.5197020000000  0.4770320000000 1.0
C      1  0.4604010000000  0.5113720000000  0.5145060000000 1.0
C      1  0.5043060000000  0.4426510000000  0.5302630000000 1.0
C      1  0.4984790000000  0.5530230000000  0.5410940000000 1.0
C      1  0.5432850000000  0.4446520000000  0.5007270000000 1.0
C      1  0.4523510000000  0.5186070000000  0.4552940000000 1.0
C      1  0.4955560000000  0.4757080000000  0.5699390000000 1.0
C      1  0.4875410000000  0.5219070000000  0.5794800000000 1.0
C      1  0.5268110000000  0.4411130000000  0.4769030000000 1.0
C      1  0.5167120000000  0.5381270000000  0.4235510000000 1.0
C      1  0.5083240000000  0.4892560000000  0.4361240000000 1.0
C      1  0.5390510000000  0.5537250000000  0.4640390000000 1.0
C      1  0.4881070000000  0.4563560000000  0.5496870000000 1.0
C      1  0.5031600000000  0.5322400000000  0.5595490000000 1.0
C      1  0.4792260000000  0.4977580000000  0.4907460000000 1.0
C      1  0.5221970000000  0.5122820000000  0.5459980000000 1.0
C      1  0.5414510000000  0.4630390000000  0.4637000000000 1.0
C      1  0.4893900000000  0.5687680000000  0.4832440000000 1.0
C      1  0.5192250000000  0.4795000000000  0.5835540000000 1.0
C      1  0.4874740000000  0.4689480000000  0.4372060000000 1.0
C      1  0.5442950000000  0.5144400000000  0.4967390000000 1.0
C      1  0.5168510000000  0.5491150000000  0.5190510000000 1.0
C      1  0.4811780000000  0.5300020000000  0.4530670000000 1.0
C      1  0.4641810000000  0.4681640000000  0.5385460000000 1.0
C      1  0.5014810000000  0.4984680000000  0.5279030000000 1.0
C      1  0.4738370000000  0.5625170000000  0.5270310000000 1.0
C      1  0.5575060000000  0.4663120000000  0.4876250000000 1.0
END
