TITL C-39557-1357-3 -0.0436809224328508 125000 -152.751450777072 0 0 24 (C1) n - 1
REM
REM in /rds/project/t2_vol4/rds-t2-cs072/BORA/CARBON/from-Arr/AIRSS/Generating-Clusters/GAP-ML-2020/Only-C1/SD-CG/HFTN-CG
REM
REM
REM
REM
REM
REM ./C.cell (11c1c37f851c82e70ff6c80c92926a4b)
REM AIRSS Version 0.9.1 bugfix July 2018 build 013d7b7c2542+ Fri, 06 Jul 2018 19:26:36 +0100
REM compiler GCC version 9.3.0
REM options -cpp -mtune=generic -march=x86-64 -g -O0
REM seed 170477416 1903833291 224115107 -492240488 1085754413 -1290591650 -85255484 -1436636334 2014384054 -179056639 -994485436 -1041122321 -2119041118 -1593691039 919856543 -558364135 -6536945 52900722 -187193715 2051075472 -1197869075 469079380 2114485485 -1603163494 1386428374 -1723296124 1456826241 645395560 1243381055 -1399761624 1911217759 -1340323255 2041917161
REM
CELL 1.54180   50.00000   50.00000   50.00000   90.00000   90.00000   90.00000
LATT -1
SFAC C  
C      1  0.5190310000000  0.5193770000000  0.5473010000000 1.0
C      1  0.5410210000000  0.5305950000000  0.5017480000000 1.0
C      1  0.4421820000000  0.4921100000000  0.5044300000000 1.0
C      1  0.5020770000000  0.4900780000000  0.4331240000000 1.0
C      1  0.4379700000000  0.4640990000000  0.5106620000000 1.0
C      1  0.5566300000000  0.5144850000000  0.4843640000000 1.0
C      1  0.5477400000000  0.4871330000000  0.4861050000000 1.0
C      1  0.5211760000000  0.4797510000000  0.4794570000000 1.0
C      1  0.4995030000000  0.5414640000000  0.4788430000000 1.0
C      1  0.4648570000000  0.5054510000000  0.5190090000000 1.0
C      1  0.4942810000000  0.5200580000000  0.5532130000000 1.0
C      1  0.4628870000000  0.4561140000000  0.5136680000000 1.0
C      1  0.5009840000000  0.4755970000000  0.5004820000000 1.0
C      1  0.4876990000000  0.4998910000000  0.5009050000000 1.0
C      1  0.4583660000000  0.5118820000000  0.4665460000000 1.0
C      1  0.5214770000000  0.5473710000000  0.4895810000000 1.0
C      1  0.4886090000000  0.4538170000000  0.5131590000000 1.0
C      1  0.4872820000000  0.5139980000000  0.4748840000000 1.0
C      1  0.4376900000000  0.5028620000000  0.4784510000000 1.0
C      1  0.4698000000000  0.5165550000000  0.5431390000000 1.0
C      1  0.5399090000000  0.5169890000000  0.5288550000000 1.0
C      1  0.5594090000000  0.4737720000000  0.5089990000000 1.0
C      1  0.5066530000000  0.4934800000000  0.4587020000000 1.0
C      1  0.5527670000000  0.4930710000000  0.5243710000000 1.0
END
