TITL C-39245-6459-6 0.160604320271039 125000 -525.324406073184 0 0 77 (C1) n - 1
REM
REM in /rds/project/t2_vol4/rds-t2-cs072/BORA/CARBON/from-Arr/AIRSS/Generating-Clusters/GAP-ML-2020/Only-C1/SD-CG/HFTN-CG
REM
REM
REM
REM
REM
REM ./C.cell (11c1c37f851c82e70ff6c80c92926a4b)
REM AIRSS Version 0.9.1 bugfix July 2018 build 013d7b7c2542+ Fri, 06 Jul 2018 19:26:36 +0100
REM compiler GCC version 9.3.0
REM options -cpp -mtune=generic -march=x86-64 -g -O0
REM seed 1512992189 1346463684 2032524852 -1167189785 873517867 860057204 -748569857 -7687796 773096378 -1894551830 -1442551045 -1482475506 570149547 1262560718 1463787602 -2070556719 1171667163 736228672 -240380956 -324575725 241657270 -1607248447 -1964509 -165768319 -1684740692 239168640 -992904396 -1376361682 872760161 1022078060 1241360207 1264317524 524805550
REM
CELL 1.54180   50.00000   50.00000   50.00000   90.00000   90.00000   90.00000
LATT -1
SFAC C  
C      1  0.5035670000000  0.4673610000000  0.5184500000000 1.0
C      1  0.5712960000000  0.5024260000000  0.4827530000000 1.0
C      1  0.5582700000000  0.4410970000000  0.4795710000000 1.0
C      1  0.4493260000000  0.4660470000000  0.5512180000000 1.0
C      1  0.5010430000000  0.5702560000000  0.4855200000000 1.0
C      1  0.4735820000000  0.5543330000000  0.5545560000000 1.0
C      1  0.4828340000000  0.4929790000000  0.4332470000000 1.0
C      1  0.4963090000000  0.4904750000000  0.5690750000000 1.0
C      1  0.4785420000000  0.4706710000000  0.5583590000000 1.0
C      1  0.4327750000000  0.4825530000000  0.4623570000000 1.0
C      1  0.4302780000000  0.5108830000000  0.4535850000000 1.0
C      1  0.5425710000000  0.5297610000000  0.4489450000000 1.0
C      1  0.4969650000000  0.5767230000000  0.5134020000000 1.0
C      1  0.5439130000000  0.4813710000000  0.4437810000000 1.0
C      1  0.5346210000000  0.4382580000000  0.4641390000000 1.0
C      1  0.4179660000000  0.4883120000000  0.4869400000000 1.0
C      1  0.5675580000000  0.4802060000000  0.4622870000000 1.0
C      1  0.4962320000000  0.4599370000000  0.4895380000000 1.0
C      1  0.4810360000000  0.4202340000000  0.5138920000000 1.0
C      1  0.5425960000000  0.5347070000000  0.5229090000000 1.0
C      1  0.5309870000000  0.5059140000000  0.4397720000000 1.0
C      1  0.4549800000000  0.4656460000000  0.4622050000000 1.0
C      1  0.4772210000000  0.5126330000000  0.4974640000000 1.0
C      1  0.5505300000000  0.4446130000000  0.5079390000000 1.0
C      1  0.4764310000000  0.4272540000000  0.5411930000000 1.0
C      1  0.4761970000000  0.4669630000000  0.4427220000000 1.0
C      1  0.5790170000000  0.4552650000000  0.4668680000000 1.0
C      1  0.5001630000000  0.5568970000000  0.4404480000000 1.0
C      1  0.5321660000000  0.5557860000000  0.5416610000000 1.0
C      1  0.4823200000000  0.4840880000000  0.5284950000000 1.0
C      1  0.4348960000000  0.4901140000000  0.5421990000000 1.0
C      1  0.4658260000000  0.4607510000000  0.4894300000000 1.0
C      1  0.4902590000000  0.5400010000000  0.4215570000000 1.0
C      1  0.5513020000000  0.5228650000000  0.4756100000000 1.0
C      1  0.5031800000000  0.5057010000000  0.4488110000000 1.0
C      1  0.4582760000000  0.4376950000000  0.5076160000000 1.0
C      1  0.5211970000000  0.5102230000000  0.5259760000000 1.0
C      1  0.4974240000000  0.5067120000000  0.4776880000000 1.0
C      1  0.4291090000000  0.5229760000000  0.4996080000000 1.0
C      1  0.4503620000000  0.5383040000000  0.5458380000000 1.0
C      1  0.5469870000000  0.5451440000000  0.4943750000000 1.0
C      1  0.5690150000000  0.4952190000000  0.5123900000000 1.0
C      1  0.4621290000000  0.4863490000000  0.5056040000000 1.0
C      1  0.5282370000000  0.4312330000000  0.5187100000000 1.0
C      1  0.5184220000000  0.4490870000000  0.5404890000000 1.0
C      1  0.5267970000000  0.5183580000000  0.5725670000000 1.0
C      1  0.4918780000000  0.5124100000000  0.5239830000000 1.0
C      1  0.4830030000000  0.5634590000000  0.4637670000000 1.0
C      1  0.4931350000000  0.5440730000000  0.5713110000000 1.0
C      1  0.5267810000000  0.5528920000000  0.4514300000000 1.0
C      1  0.4723410000000  0.5195270000000  0.4286670000000 1.0
C      1  0.5775640000000  0.5503580000000  0.4873720000000 1.0
C      1  0.5256340000000  0.4863620000000  0.5092820000000 1.0
C      1  0.5123640000000  0.4844810000000  0.4838150000000 1.0
C      1  0.4135330000000  0.5159040000000  0.4774870000000 1.0
C      1  0.5267730000000  0.5608490000000  0.4780390000000 1.0
C      1  0.5222760000000  0.5455950000000  0.5658410000000 1.0
C      1  0.4515030000000  0.5286370000000  0.4472770000000 1.0
C      1  0.5247720000000  0.4950660000000  0.5539710000000 1.0
C      1  0.5273630000000  0.4572570000000  0.4432170000000 1.0
C      1  0.5386400000000  0.4704200000000  0.5468400000000 1.0
C      1  0.4437160000000  0.5137340000000  0.5537520000000 1.0
C      1  0.4933100000000  0.4450860000000  0.5541140000000 1.0
C      1  0.4527300000000  0.5521830000000  0.5195640000000 1.0
C      1  0.5898000000000  0.5286760000000  0.4800290000000 1.0
C      1  0.4747930000000  0.5681010000000  0.5292510000000 1.0
C      1  0.4993580000000  0.4512160000000  0.4467230000000 1.0
C      1  0.4546650000000  0.5367110000000  0.4948750000000 1.0
C      1  0.5187360000000  0.5761190000000  0.5302190000000 1.0
C      1  0.4967220000000  0.5161340000000  0.5794590000000 1.0
C      1  0.5521660000000  0.4720850000000  0.5198030000000 1.0
C      1  0.5074330000000  0.4355430000000  0.4744130000000 1.0
C      1  0.4514170000000  0.4423670000000  0.5353280000000 1.0
C      1  0.5638670000000  0.5166750000000  0.5279990000000 1.0
C      1  0.4591390000000  0.5480950000000  0.4672790000000 1.0
C      1  0.4338670000000  0.4945560000000  0.5119270000000 1.0
C      1  0.5060090000000  0.4210500000000  0.5012050000000 1.0
END
