TITL C-3989-446-6 -13.8699655410766 125000 -552.419137215222 0 0 81 (C1) n - 1
REM
REM in /rds/project/t2_vol4/rds-t2-cs072/BORA/CARBON/from-Arr/AIRSS/Generating-Clusters/GAP-ML-2020/Only-C1/SD-CG/HFTN-CG
REM
REM
REM
REM
REM
REM ./C.cell (11c1c37f851c82e70ff6c80c92926a4b)
REM AIRSS Version 0.9.1 bugfix July 2018 build 013d7b7c2542+ Fri, 06 Jul 2018 19:26:36 +0100
REM compiler GCC version 9.3.0
REM options -cpp -mtune=generic -march=x86-64 -g -O0
REM seed 1423428348 -631571542 1283571830 -1307611874 -1114726661 2063959319 -766733339 -1118333692 -1978347721 -220378266 1325333287 -67949902 1172979094 1023431560 538887816 -1678005325 -507406148 -214492735 109179772 1095061288 1460006832 -657920299 -600753945 460104148 1137807080 1831692036 331121815 -762659915 1139068215 699359249 1909176885 -996868438 1201673609
REM
CELL 1.54180   50.00000   50.00000   50.00000   90.00000   90.00000   90.00000
LATT -1
SFAC C  
C      1  0.4978270000000  0.5115100000000  0.4851690000000 1.0
C      1  0.4683240000000  0.5278420000000  0.5530860000000 1.0
C      1  0.4238300000000  0.4934930000000  0.4815850000000 1.0
C      1  0.5249520000000  0.4580270000000  0.5248010000000 1.0
C      1  0.4487400000000  0.5067700000000  0.4864380000000 1.0
C      1  0.5433280000000  0.5116680000000  0.4382440000000 1.0
C      1  0.4918040000000  0.4234090000000  0.5166140000000 1.0
C      1  0.5263440000000  0.4981050000000  0.5700690000000 1.0
C      1  0.5052860000000  0.4772210000000  0.5737130000000 1.0
C      1  0.5007300000000  0.5443160000000  0.5654390000000 1.0
C      1  0.4984980000000  0.4889530000000  0.4375860000000 1.0
C      1  0.4447500000000  0.4900320000000  0.4371630000000 1.0
C      1  0.5486660000000  0.4397630000000  0.4681590000000 1.0
C      1  0.5722140000000  0.4987850000000  0.4711320000000 1.0
C      1  0.5349530000000  0.4209870000000  0.4843550000000 1.0
C      1  0.5723360000000  0.5270960000000  0.4729330000000 1.0
C      1  0.5228670000000  0.4899920000000  0.5236060000000 1.0
C      1  0.5096950000000  0.5750390000000  0.4714370000000 1.0
C      1  0.5469660000000  0.5599320000000  0.5012700000000 1.0
C      1  0.4939180000000  0.4871900000000  0.4687200000000 1.0
C      1  0.5155840000000  0.5123190000000  0.4320710000000 1.0
C      1  0.4961940000000  0.5467120000000  0.5155240000000 1.0
C      1  0.5084500000000  0.5196410000000  0.5782450000000 1.0
C      1  0.4216550000000  0.4808740000000  0.5067830000000 1.0
C      1  0.5696440000000  0.5251490000000  0.5228210000000 1.0
C      1  0.4640520000000  0.5042210000000  0.5671440000000 1.0
C      1  0.4432680000000  0.4389180000000  0.5168910000000 1.0
C      1  0.5350190000000  0.5567260000000  0.5291120000000 1.0
C      1  0.4293710000000  0.4552360000000  0.4987410000000 1.0
C      1  0.5364010000000  0.4645690000000  0.4555270000000 1.0
C      1  0.5553260000000  0.4351480000000  0.4963260000000 1.0
C      1  0.4500330000000  0.4844760000000  0.5531040000000 1.0
C      1  0.4877300000000  0.4991420000000  0.5815420000000 1.0
C      1  0.5257400000000  0.5184540000000  0.4868110000000 1.0
C      1  0.4931230000000  0.4552600000000  0.5599480000000 1.0
C      1  0.5066430000000  0.5601460000000  0.5404440000000 1.0
C      1  0.5152200000000  0.5601870000000  0.4461400000000 1.0
C      1  0.5645250000000  0.4855660000000  0.4948060000000 1.0
C      1  0.5408020000000  0.5036570000000  0.5451920000000 1.0
C      1  0.5073140000000  0.4558180000000  0.4998940000000 1.0
C      1  0.4939470000000  0.4984460000000  0.5153740000000 1.0
C      1  0.4774100000000  0.5709860000000  0.5405680000000 1.0
C      1  0.4652010000000  0.4599790000000  0.5547390000000 1.0
C      1  0.4494280000000  0.5187020000000  0.5150650000000 1.0
C      1  0.4823900000000  0.5347310000000  0.4736870000000 1.0
C      1  0.5687150000000  0.5398960000000  0.4985180000000 1.0
C      1  0.5124270000000  0.4609510000000  0.4366790000000 1.0
C      1  0.4608780000000  0.4569100000000  0.5276720000000 1.0
C      1  0.4617370000000  0.5737190000000  0.4930980000000 1.0
C      1  0.4317380000000  0.4773990000000  0.4575240000000 1.0
C      1  0.5072490000000  0.4260550000000  0.4908450000000 1.0
C      1  0.4814230000000  0.4717720000000  0.5079720000000 1.0
C      1  0.4467350000000  0.4571090000000  0.4750260000000 1.0
C      1  0.5429440000000  0.5592340000000  0.4532680000000 1.0
C      1  0.4780290000000  0.5228950000000  0.5247810000000 1.0
C      1  0.5010410000000  0.4372430000000  0.4427010000000 1.0
C      1  0.5535070000000  0.4517410000000  0.5189400000000 1.0
C      1  0.4675840000000  0.4804880000000  0.4834620000000 1.0
C      1  0.4425020000000  0.5539290000000  0.4847890000000 1.0
C      1  0.4743780000000  0.5285810000000  0.4452370000000 1.0
C      1  0.4887220000000  0.5613600000000  0.4876880000000 1.0
C      1  0.5052490000000  0.4395700000000  0.5387370000000 1.0
C      1  0.5685970000000  0.4973770000000  0.5334060000000 1.0
C      1  0.4536040000000  0.5310370000000  0.4710680000000 1.0
C      1  0.4648860000000  0.4246390000000  0.5052130000000 1.0
C      1  0.5718700000000  0.4735790000000  0.5193740000000 1.0
C      1  0.5192270000000  0.4733070000000  0.4796790000000 1.0
C      1  0.4358600000000  0.4949440000000  0.5286460000000 1.0
C      1  0.5477860000000  0.5331050000000  0.5388500000000 1.0
C      1  0.5540070000000  0.4889780000000  0.4506490000000 1.0
C      1  0.4735250000000  0.5529170000000  0.5632410000000 1.0
C      1  0.4896340000000  0.4280990000000  0.4658290000000 1.0
C      1  0.5354600000000  0.4924900000000  0.4964510000000 1.0
C      1  0.4700410000000  0.5011490000000  0.4363890000000 1.0
C      1  0.4400330000000  0.5472180000000  0.5127070000000 1.0
C      1  0.5382190000000  0.5737630000000  0.4782320000000 1.0
C      1  0.5560530000000  0.5353480000000  0.4511950000000 1.0
C      1  0.4568120000000  0.5699510000000  0.5216410000000 1.0
C      1  0.4641480000000  0.4325240000000  0.4773050000000 1.0
C      1  0.5011610000000  0.5363320000000  0.4384660000000 1.0
C      1  0.5237220000000  0.5391980000000  0.5067050000000 1.0
END
