TITL C-39554-955-5 -7.88518489231822 125000 -436.955229710479 0 0 65 (C1) n - 1
REM
REM in /rds/project/t2_vol4/rds-t2-cs072/BORA/CARBON/from-Arr/AIRSS/Generating-Clusters/GAP-ML-2020/Only-C1/SD-CG/HFTN-CG
REM
REM
REM
REM
REM
REM ./C.cell (11c1c37f851c82e70ff6c80c92926a4b)
REM AIRSS Version 0.9.1 bugfix July 2018 build 013d7b7c2542+ Fri, 06 Jul 2018 19:26:36 +0100
REM compiler GCC version 9.3.0
REM options -cpp -mtune=generic -march=x86-64 -g -O0
REM seed 914681876 -1852309146 -338514879 -1271885003 -1060861452 -1104268381 -692377664 326263399 1716126338 -945488110 390840361 520730414 1481602546 1344221911 -1793588279 -1475006401 -55173181 1307678384 1210146819 -535745536 -1395845344 1638983309 696134306 1389727267 -770321706 -1147328535 -1834475686 1555635375 -2025749483 -757662236 1412612468 788430654 -1187619862
REM
CELL 1.54180   50.00000   50.00000   50.00000   90.00000   90.00000   90.00000
LATT -1
SFAC C  
C      1  0.5339210000000  0.4502780000000  0.5465180000000 1.0
C      1  0.4909990000000  0.5480340000000  0.4184740000000 1.0
C      1  0.4545380000000  0.4919240000000  0.4443930000000 1.0
C      1  0.5030150000000  0.5042650000000  0.4895560000000 1.0
C      1  0.4942580000000  0.4394230000000  0.5295820000000 1.0
C      1  0.4734040000000  0.5510280000000  0.4789240000000 1.0
C      1  0.4347820000000  0.4590250000000  0.5042850000000 1.0
C      1  0.5049810000000  0.4775860000000  0.5623130000000 1.0
C      1  0.5396270000000  0.5498630000000  0.4712750000000 1.0
C      1  0.4513100000000  0.4977170000000  0.4906490000000 1.0
C      1  0.4756900000000  0.5308080000000  0.4332910000000 1.0
C      1  0.5160950000000  0.5606990000000  0.4601050000000 1.0
C      1  0.4317990000000  0.5025070000000  0.5169430000000 1.0
C      1  0.5699920000000  0.5276490000000  0.4975630000000 1.0
C      1  0.5182040000000  0.4556930000000  0.4654630000000 1.0
C      1  0.4952370000000  0.5690860000000  0.4778310000000 1.0
C      1  0.4527220000000  0.4667490000000  0.4832860000000 1.0
C      1  0.5244750000000  0.5187090000000  0.4407930000000 1.0
C      1  0.5062650000000  0.4477830000000  0.5566370000000 1.0
C      1  0.5726690000000  0.5122900000000  0.5472980000000 1.0
C      1  0.4576040000000  0.4959490000000  0.5561440000000 1.0
C      1  0.5511830000000  0.4742580000000  0.4455080000000 1.0
C      1  0.5692420000000  0.4816270000000  0.4640540000000 1.0
C      1  0.5103460000000  0.5437960000000  0.4373660000000 1.0
C      1  0.5257440000000  0.5233090000000  0.5339810000000 1.0
C      1  0.5143930000000  0.4301970000000  0.5094490000000 1.0
C      1  0.5645870000000  0.5105520000000  0.4733380000000 1.0
C      1  0.4194190000000  0.5265460000000  0.5086440000000 1.0
C      1  0.4841530000000  0.5453530000000  0.5322520000000 1.0
C      1  0.4452020000000  0.4696930000000  0.5512830000000 1.0
C      1  0.5469740000000  0.5259200000000  0.4568700000000 1.0
C      1  0.5013540000000  0.4815210000000  0.4713470000000 1.0
C      1  0.5458470000000  0.5065100000000  0.5490760000000 1.0
C      1  0.4869170000000  0.4985110000000  0.5536610000000 1.0
C      1  0.5723520000000  0.5111540000000  0.5200770000000 1.0
C      1  0.4993090000000  0.5244550000000  0.5455330000000 1.0
C      1  0.5649400000000  0.4696370000000  0.4905550000000 1.0
C      1  0.5163860000000  0.4790420000000  0.5209590000000 1.0
C      1  0.4291560000000  0.4737490000000  0.5262370000000 1.0
C      1  0.4795710000000  0.5017650000000  0.4317420000000 1.0
C      1  0.4448890000000  0.5159420000000  0.5418910000000 1.0
C      1  0.5405000000000  0.4382480000000  0.5201600000000 1.0
C      1  0.4845950000000  0.4613710000000  0.4877730000000 1.0
C      1  0.5251740000000  0.4687130000000  0.4406570000000 1.0
C      1  0.4691180000000  0.5368960000000  0.5038400000000 1.0
C      1  0.4580170000000  0.4467900000000  0.5576390000000 1.0
C      1  0.4811780000000  0.4317780000000  0.5551930000000 1.0
C      1  0.4764560000000  0.5078550000000  0.5025640000000 1.0
C      1  0.4464400000000  0.4681540000000  0.4539690000000 1.0
C      1  0.4483770000000  0.5118390000000  0.4648720000000 1.0
C      1  0.5531040000000  0.4952690000000  0.5010420000000 1.0
C      1  0.4406320000000  0.5435620000000  0.5109230000000 1.0
C      1  0.5018380000000  0.5825740000000  0.5019280000000 1.0
C      1  0.4540260000000  0.5423120000000  0.5367890000000 1.0
C      1  0.4905770000000  0.4657590000000  0.5163310000000 1.0
C      1  0.5047280000000  0.4390350000000  0.4834690000000 1.0
C      1  0.5484760000000  0.5473780000000  0.4979830000000 1.0
C      1  0.5066320000000  0.4937790000000  0.4426430000000 1.0
C      1  0.5305150000000  0.4799990000000  0.5478710000000 1.0
C      1  0.5615430000000  0.4462940000000  0.5040160000000 1.0
C      1  0.4803140000000  0.4902160000000  0.5255200000000 1.0
C      1  0.5246070000000  0.5028180000000  0.5085170000000 1.0
C      1  0.5309020000000  0.5493810000000  0.5210430000000 1.0
C      1  0.5062270000000  0.5638590000000  0.5215960000000 1.0
C      1  0.4624750000000  0.5355240000000  0.4585160000000 1.0
END
