TITL C-39043-4939-7 0.00301131683240973 125000 -292.999315682911 0 0 43 (C1) n - 1
REM
REM in /rds/project/t2_vol4/rds-t2-cs072/BORA/CARBON/from-Arr/AIRSS/Generating-Clusters/GAP-ML-2020/Only-C1/SD-CG/HFTN-CG
REM
REM
REM
REM
REM
REM ./C.cell (11c1c37f851c82e70ff6c80c92926a4b)
REM AIRSS Version 0.9.1 bugfix July 2018 build 013d7b7c2542+ Fri, 06 Jul 2018 19:26:36 +0100
REM compiler GCC version 9.3.0
REM options -cpp -mtune=generic -march=x86-64 -g -O0
REM seed -1635198806 1815272636 479905961 -1284679113 -1578234066 -1844929904 -1803482236 -1377711466 2110754570 -1807302893 1150906871 808182129 -1763337366 -1586611474 -788508004 877030213 1116556234 -1651123813 954482589 348634546 -1705261352 -1212721724 -516890232 21715086 643915103 -205150053 -441720771 -701084763 -972819279 -522927121 641426508 -1663205421 372771428
REM
CELL 1.54180   50.00000   50.00000   50.00000   90.00000   90.00000   90.00000
LATT -1
SFAC C  
C      1  0.5624510000000  0.4679350000000  0.5420070000000 1.0
C      1  0.5388890000000  0.5309220000000  0.5126290000000 1.0
C      1  0.5274790000000  0.5430660000000  0.4699550000000 1.0
C      1  0.5475050000000  0.4518060000000  0.4943050000000 1.0
C      1  0.4562720000000  0.5026820000000  0.4521920000000 1.0
C      1  0.5284940000000  0.5069100000000  0.5600560000000 1.0
C      1  0.4831970000000  0.4629280000000  0.4581680000000 1.0
C      1  0.5164740000000  0.4750520000000  0.5321060000000 1.0
C      1  0.5223990000000  0.5544280000000  0.5129260000000 1.0
C      1  0.4761580000000  0.5468340000000  0.5161280000000 1.0
C      1  0.5060040000000  0.4984310000000  0.5198030000000 1.0
C      1  0.5311060000000  0.4679120000000  0.4777670000000 1.0
C      1  0.4458650000000  0.5122100000000  0.4960460000000 1.0
C      1  0.5345730000000  0.4351590000000  0.5153830000000 1.0
C      1  0.4778590000000  0.5099640000000  0.4354300000000 1.0
C      1  0.4828390000000  0.5558930000000  0.4890410000000 1.0
C      1  0.4685750000000  0.4946900000000  0.5626400000000 1.0
C      1  0.5151890000000  0.5319840000000  0.4476310000000 1.0
C      1  0.4873590000000  0.5350140000000  0.4449860000000 1.0
C      1  0.5420100000000  0.5217310000000  0.4845890000000 1.0
C      1  0.4618940000000  0.4801160000000  0.5387220000000 1.0
C      1  0.4936270000000  0.4644860000000  0.4322240000000 1.0
C      1  0.4898080000000  0.4534870000000  0.5048110000000 1.0
C      1  0.4506130000000  0.5239050000000  0.4708480000000 1.0
C      1  0.4957020000000  0.5061190000000  0.4945130000000 1.0
C      1  0.4653320000000  0.4675280000000  0.5133860000000 1.0
C      1  0.5015160000000  0.4573300000000  0.4791010000000 1.0
C      1  0.5170530000000  0.5200210000000  0.5357390000000 1.0
C      1  0.5020240000000  0.5457310000000  0.5304070000000 1.0
C      1  0.4867320000000  0.4985250000000  0.5833510000000 1.0
C      1  0.4554090000000  0.5265120000000  0.5196890000000 1.0
C      1  0.5108140000000  0.4484550000000  0.5234940000000 1.0
C      1  0.4698850000000  0.5447980000000  0.4664250000000 1.0
C      1  0.5116910000000  0.5598630000000  0.4871680000000 1.0
C      1  0.5584080000000  0.4510360000000  0.5205400000000 1.0
C      1  0.4999810000000  0.4908090000000  0.4327620000000 1.0
C      1  0.4584730000000  0.4776930000000  0.4658680000000 1.0
C      1  0.4515020000000  0.4825190000000  0.4929150000000 1.0
C      1  0.4571430000000  0.5083680000000  0.5409320000000 1.0
C      1  0.5116760000000  0.5050610000000  0.5821690000000 1.0
C      1  0.5229630000000  0.5039370000000  0.4449950000000 1.0
C      1  0.5401990000000  0.4825180000000  0.5473090000000 1.0
C      1  0.5368560000000  0.4956330000000  0.4688450000000 1.0
END
