TITL C-39237-6441-1 2.66508200599501 125000 -60.5504536091815 0 0 10 (Cs) n - 1
REM
REM in /rds/project/t2_vol4/rds-t2-cs072/BORA/CARBON/from-Arr/AIRSS/Generating-Clusters/GAP-ML-2020/Only-C1/SD-CG/HFTN-CG
REM
REM
REM
REM
REM
REM ./C.cell (11c1c37f851c82e70ff6c80c92926a4b)
REM AIRSS Version 0.9.1 bugfix July 2018 build 013d7b7c2542+ Fri, 06 Jul 2018 19:26:36 +0100
REM compiler GCC version 9.3.0
REM options -cpp -mtune=generic -march=x86-64 -g -O0
REM seed -1436183827 1660487751 -1456021753 -1989471197 -733902871 -907251580 -374514240 -1507731854 1242975039 -1213561427 919092281 1785489581 -94418512 791451723 788684691 -1324599308 446602064 -1431989987 597337031 -630164149 -361140115 -1612456739 1828252222 -1571634260 1718320018 1120295629 -600579949 882875192 2043283400 -1286358052 -1103963956 -1185807049 1326624889
REM
CELL 1.54180   50.00000   50.00000   50.00000   90.00000   90.00000   90.00000
LATT -1
SFAC C  
C      1  0.4528790000000  0.5041240000000  0.4603240000000 1.0
C      1  0.5090450000000  0.4773740000000  0.5267610000000 1.0
C      1  0.4863310000000  0.4675320000000  0.5180090000000 1.0
C      1  0.4643100000000  0.4558460000000  0.5114040000000 1.0
C      1  0.4748310000000  0.5165810000000  0.4661990000000 1.0
C      1  0.5274480000000  0.4955010000000  0.5249510000000 1.0
C      1  0.5186330000000  0.5251760000000  0.4921840000000 1.0
C      1  0.5273370000000  0.5254670000000  0.5208950000000 1.0
C      1  0.4973500000000  0.5235470000000  0.4773250000000 1.0
C      1  0.5418370000000  0.5088530000000  0.5019470000000 1.0
END
