TITL C-39552-907-5 18.7153456414187 125000 -382.673756573292 0 0 56 (C1) n - 1
REM
REM in /rds/project/t2_vol4/rds-t2-cs072/BORA/CARBON/from-Arr/AIRSS/Generating-Clusters/GAP-ML-2020/Only-C1/SD-CG/HFTN-CG
REM
REM
REM
REM
REM
REM ./C.cell (11c1c37f851c82e70ff6c80c92926a4b)
REM AIRSS Version 0.9.1 bugfix July 2018 build 013d7b7c2542+ Fri, 06 Jul 2018 19:26:36 +0100
REM compiler GCC version 9.3.0
REM options -cpp -mtune=generic -march=x86-64 -g -O0
REM seed 1838859193 815320340 -1966854688 -428221817 -2137196014 954490872 1915433930 1413321968 925448361 -1658264524 -631043641 975585968 1869613972 -338883832 1572807776 -1824849387 24578858 -899648191 1779541522 1237152860 513749056 -1283079751 4658029 -539138377 -1975932221 1560885453 1464919589 -288239078 1704839463 -2059076880 1711724834 921932620 1881527288
REM
CELL 1.54180   50.00000   50.00000   50.00000   90.00000   90.00000   90.00000
LATT -1
SFAC C  
C      1  0.5619050000000  0.5178090000000  0.5198590000000 1.0
C      1  0.4534450000000  0.5312970000000  0.5285130000000 1.0
C      1  0.4872960000000  0.5080830000000  0.4338510000000 1.0
C      1  0.5597140000000  0.4855150000000  0.4764790000000 1.0
C      1  0.4892890000000  0.4868890000000  0.5145740000000 1.0
C      1  0.4680800000000  0.4625010000000  0.5246240000000 1.0
C      1  0.5226030000000  0.5112750000000  0.4773690000000 1.0
C      1  0.4877260000000  0.4399890000000  0.4579860000000 1.0
C      1  0.4484260000000  0.5001510000000  0.4675530000000 1.0
C      1  0.5124140000000  0.4431910000000  0.4481730000000 1.0
C      1  0.4620080000000  0.4528390000000  0.4958190000000 1.0
C      1  0.5245560000000  0.5429040000000  0.5412440000000 1.0
C      1  0.4604380000000  0.4730210000000  0.4726180000000 1.0
C      1  0.4649800000000  0.5457710000000  0.4566350000000 1.0
C      1  0.4857430000000  0.5672270000000  0.4844100000000 1.0
C      1  0.5678210000000  0.4763590000000  0.5010050000000 1.0
C      1  0.5139970000000  0.4683920000000  0.4890070000000 1.0
C      1  0.4426300000000  0.5049800000000  0.5332720000000 1.0
C      1  0.5310540000000  0.5533110000000  0.4956460000000 1.0
C      1  0.4789730000000  0.5365900000000  0.5400240000000 1.0
C      1  0.4909860000000  0.5588270000000  0.4571120000000 1.0
C      1  0.5586200000000  0.4719190000000  0.5275820000000 1.0
C      1  0.4591380000000  0.5553270000000  0.4837320000000 1.0
C      1  0.4964920000000  0.4688510000000  0.5601940000000 1.0
C      1  0.5190870000000  0.4817820000000  0.5149330000000 1.0
C      1  0.5140300000000  0.5455750000000  0.4490270000000 1.0
C      1  0.4937420000000  0.5151810000000  0.5095390000000 1.0
C      1  0.5184220000000  0.5207770000000  0.5581740000000 1.0
C      1  0.4875540000000  0.4828870000000  0.4846430000000 1.0
C      1  0.4925440000000  0.5118350000000  0.4797750000000 1.0
C      1  0.5240670000000  0.4728490000000  0.5596830000000 1.0
C      1  0.4889680000000  0.4490730000000  0.5402800000000 1.0
C      1  0.5054490000000  0.5631160000000  0.5042770000000 1.0
C      1  0.5410710000000  0.5371440000000  0.5183710000000 1.0
C      1  0.5239850000000  0.5099410000000  0.5076350000000 1.0
C      1  0.4926420000000  0.4809130000000  0.4368460000000 1.0
C      1  0.5003260000000  0.5540340000000  0.5312500000000 1.0
C      1  0.5358650000000  0.4989920000000  0.5581570000000 1.0
C      1  0.4318790000000  0.4959690000000  0.5099070000000 1.0
C      1  0.5309440000000  0.5387530000000  0.4709400000000 1.0
C      1  0.4788010000000  0.4908750000000  0.5606330000000 1.0
C      1  0.4820250000000  0.4344520000000  0.4860960000000 1.0
C      1  0.4899600000000  0.5173420000000  0.5588910000000 1.0
C      1  0.5079400000000  0.5254190000000  0.4312290000000 1.0
C      1  0.5689880000000  0.5041210000000  0.4952110000000 1.0
C      1  0.4576410000000  0.4837710000000  0.5430200000000 1.0
C      1  0.4675060000000  0.5175020000000  0.4544910000000 1.0
C      1  0.5068060000000  0.4398230000000  0.4985160000000 1.0
C      1  0.4364820000000  0.5131570000000  0.4890770000000 1.0
C      1  0.5319940000000  0.4843110000000  0.4672710000000 1.0
C      1  0.4728220000000  0.4624190000000  0.4484810000000 1.0
C      1  0.4477060000000  0.5374160000000  0.5010950000000 1.0
C      1  0.5332560000000  0.4594150000000  0.5352920000000 1.0
C      1  0.5579460000000  0.4980040000000  0.5398650000000 1.0
C      1  0.5190470000000  0.4701770000000  0.4438190000000 1.0
C      1  0.5121690000000  0.4399560000000  0.5262930000000 1.0
END
