TITL C-39233-7366-6 -48.962825183788 125000 -410.893656570856 0 0 61 (C1) n - 1
REM
REM in /rds/project/t2_vol4/rds-t2-cs072/BORA/CARBON/from-Arr/AIRSS/Generating-Clusters/GAP-ML-2020/Only-C1/SD-CG/HFTN-CG
REM
REM
REM
REM
REM
REM ./C.cell (11c1c37f851c82e70ff6c80c92926a4b)
REM AIRSS Version 0.9.1 bugfix July 2018 build 013d7b7c2542+ Fri, 06 Jul 2018 19:26:36 +0100
REM compiler GCC version 9.3.0
REM options -cpp -mtune=generic -march=x86-64 -g -O0
REM seed -720954420 979553677 731743579 -989677174 962194547 1318716632 758503409 1801072325 1938116573 -1375976020 1083972841 1453752893 -303657981 -1466387700 479799428 178041235 646245273 -464354808 -53557108 380186803 986455953 1221359897 -1040261428 -1891424075 902354308 1620797653 873033037 -781219142 1604622093 377629684 354409506 -2125716560 1481936630
REM
CELL 1.54180   50.00000   50.00000   50.00000   90.00000   90.00000   90.00000
LATT -1
SFAC C  
C      1  0.4392340000000  0.4401600000000  0.5138660000000 1.0
C      1  0.4632910000000  0.4480220000000  0.5586170000000 1.0
C      1  0.5315580000000  0.5469370000000  0.4975380000000 1.0
C      1  0.5651530000000  0.4993050000000  0.5298250000000 1.0
C      1  0.4964560000000  0.4717510000000  0.5823580000000 1.0
C      1  0.5127790000000  0.4480940000000  0.5239500000000 1.0
C      1  0.5716850000000  0.5247310000000  0.5196080000000 1.0
C      1  0.5107670000000  0.5439720000000  0.5251970000000 1.0
C      1  0.4903240000000  0.4934920000000  0.4332650000000 1.0
C      1  0.4461860000000  0.5235720000000  0.5174700000000 1.0
C      1  0.4576720000000  0.5590320000000  0.4449260000000 1.0
C      1  0.4818270000000  0.4644880000000  0.4879890000000 1.0
C      1  0.4848350000000  0.4559040000000  0.5169700000000 1.0
C      1  0.5117310000000  0.4478880000000  0.5518060000000 1.0
C      1  0.4894290000000  0.4450830000000  0.5699140000000 1.0
C      1  0.5630020000000  0.5173810000000  0.4744450000000 1.0
C      1  0.5424520000000  0.5246450000000  0.4553610000000 1.0
C      1  0.4456810000000  0.5560810000000  0.4919130000000 1.0
C      1  0.5486960000000  0.4698450000000  0.4652380000000 1.0
C      1  0.4848730000000  0.5103910000000  0.5009270000000 1.0
C      1  0.5244070000000  0.5491980000000  0.4510060000000 1.0
C      1  0.4746280000000  0.5381310000000  0.4405920000000 1.0
C      1  0.5094080000000  0.5134000000000  0.5196640000000 1.0
C      1  0.5181420000000  0.4751600000000  0.5615580000000 1.0
C      1  0.5656630000000  0.4909570000000  0.5569810000000 1.0
C      1  0.5044060000000  0.4699400000000  0.4429220000000 1.0
C      1  0.4619890000000  0.4981480000000  0.5131380000000 1.0
C      1  0.5029940000000  0.5390860000000  0.4348530000000 1.0
C      1  0.4612950000000  0.4413110000000  0.5300350000000 1.0
C      1  0.5258250000000  0.4993130000000  0.4990670000000 1.0
C      1  0.5161500000000  0.4353060000000  0.4720870000000 1.0
C      1  0.4957480000000  0.4514770000000  0.4641400000000 1.0
C      1  0.4775950000000  0.4818340000000  0.5331740000000 1.0
C      1  0.5095130000000  0.5129070000000  0.4259760000000 1.0
C      1  0.4651630000000  0.4772090000000  0.5597330000000 1.0
C      1  0.5584040000000  0.5340740000000  0.4984150000000 1.0
C      1  0.4364230000000  0.4571770000000  0.4948150000000 1.0
C      1  0.5619010000000  0.4889430000000  0.4809860000000 1.0
C      1  0.4914270000000  0.5668770000000  0.4858670000000 1.0
C      1  0.4874950000000  0.5588610000000  0.5128270000000 1.0
C      1  0.5324740000000  0.4779120000000  0.4437650000000 1.0
C      1  0.4487950000000  0.4990120000000  0.4658950000000 1.0
C      1  0.5035930000000  0.4968670000000  0.5428870000000 1.0
C      1  0.5362690000000  0.4563780000000  0.5095180000000 1.0
C      1  0.4956530000000  0.5159480000000  0.5646810000000 1.0
C      1  0.4654510000000  0.5617710000000  0.4716470000000 1.0
C      1  0.5005710000000  0.4871500000000  0.4876400000000 1.0
C      1  0.5360320000000  0.4500790000000  0.4821400000000 1.0
C      1  0.4720810000000  0.5090230000000  0.4508850000000 1.0
C      1  0.5217650000000  0.5219710000000  0.4781960000000 1.0
C      1  0.5348640000000  0.5050390000000  0.4350600000000 1.0
C      1  0.4598040000000  0.5499060000000  0.5156430000000 1.0
C      1  0.5500730000000  0.4836790000000  0.5084200000000 1.0
C      1  0.5047710000000  0.5387450000000  0.5535010000000 1.0
C      1  0.5185270000000  0.5623170000000  0.4766220000000 1.0
C      1  0.4299970000000  0.5312090000000  0.4938610000000 1.0
C      1  0.4934510000000  0.5117760000000  0.4732530000000 1.0
C      1  0.4295970000000  0.5174250000000  0.4707810000000 1.0
C      1  0.4547800000000  0.4790580000000  0.4882710000000 1.0
C      1  0.5459680000000  0.4810090000000  0.5696510000000 1.0
C      1  0.4792780000000  0.4936440000000  0.5786660000000 1.0
END
