TITL C-3964-8933-1 0.0144716896292386 125000 -793.001008280825 0 0 113 (C1) n - 1
REM
REM in /rds/project/t2_vol4/rds-t2-cs072/BORA/CARBON/from-Arr/AIRSS/Generating-Clusters/GAP-ML-2020/Only-C1/SD-CG/HFTN-CG
REM
REM
REM
REM
REM
REM ./C.cell (11c1c37f851c82e70ff6c80c92926a4b)
REM AIRSS Version 0.9.1 bugfix July 2018 build 013d7b7c2542+ Fri, 06 Jul 2018 19:26:36 +0100
REM compiler GCC version 9.3.0
REM options -cpp -mtune=generic -march=x86-64 -g -O0
REM seed 1679558118 788705083 -912755008 144364417 -731421512 -549537839 -1446426684 -327746483 276469413 -872657047 -829380169 1152238846 1730555823 -1711740943 1986078567 -2013894684 -1633958228 -210529172 -1503241741 -1021063405 -1388032581 -267420164 -618217916 -1945686375 -378994545 1054078977 330354441 1212907190 197599993 1711137641 722008447 386389506 -1170300347
REM
CELL 1.54180   50.00000   50.00000   50.00000   90.00000   90.00000   90.00000
LATT -1
SFAC C  
C      1  0.4585000000000  0.5214490000000  0.5104510000000 1.0
C      1  0.4231460000000  0.5146690000000  0.5398290000000 1.0
C      1  0.4887530000000  0.4032940000000  0.4570860000000 1.0
C      1  0.5018550000000  0.5415200000000  0.5089900000000 1.0
C      1  0.4124380000000  0.4685770000000  0.4963960000000 1.0
C      1  0.5471930000000  0.5030200000000  0.4836840000000 1.0
C      1  0.5157420000000  0.5558920000000  0.5626550000000 1.0
C      1  0.4926910000000  0.4189400000000  0.5082590000000 1.0
C      1  0.5750310000000  0.4960580000000  0.4460690000000 1.0
C      1  0.5532400000000  0.4365220000000  0.4976470000000 1.0
C      1  0.5157190000000  0.4720460000000  0.4500980000000 1.0
C      1  0.4151520000000  0.5210890000000  0.4798870000000 1.0
C      1  0.4893870000000  0.4286150000000  0.4455650000000 1.0
C      1  0.5763790000000  0.5210650000000  0.4427060000000 1.0
C      1  0.5602870000000  0.5380050000000  0.5529020000000 1.0
C      1  0.5217270000000  0.5956250000000  0.4946760000000 1.0
C      1  0.4802270000000  0.5869200000000  0.4636720000000 1.0
C      1  0.5042420000000  0.5340360000000  0.4310340000000 1.0
C      1  0.4661400000000  0.4589070000000  0.5738970000000 1.0
C      1  0.5225020000000  0.5939760000000  0.5232750000000 1.0
C      1  0.4696020000000  0.5215600000000  0.4807940000000 1.0
C      1  0.4703730000000  0.5552260000000  0.5459620000000 1.0
C      1  0.4684320000000  0.4180560000000  0.5507450000000 1.0
C      1  0.5333120000000  0.4598540000000  0.4977320000000 1.0
C      1  0.5263890000000  0.5308160000000  0.5173650000000 1.0
C      1  0.5235260000000  0.4579130000000  0.5837500000000 1.0
C      1  0.5519050000000  0.5119560000000  0.5614550000000 1.0
C      1  0.5186930000000  0.4054030000000  0.5182110000000 1.0
C      1  0.4397050000000  0.5674470000000  0.4871370000000 1.0
C      1  0.4629410000000  0.4619990000000  0.4212150000000 1.0
C      1  0.4465860000000  0.5622750000000  0.5327250000000 1.0
C      1  0.5154660000000  0.4420720000000  0.4458200000000 1.0
C      1  0.5105640000000  0.4834600000000  0.4225550000000 1.0
C      1  0.4438690000000  0.4827570000000  0.4253770000000 1.0
C      1  0.5465980000000  0.5832620000000  0.4843010000000 1.0
C      1  0.5406510000000  0.4300250000000  0.4528150000000 1.0
C      1  0.5401350000000  0.4765710000000  0.4707640000000 1.0
C      1  0.4225650000000  0.5451270000000  0.4954260000000 1.0
C      1  0.5040380000000  0.5111760000000  0.4154370000000 1.0
C      1  0.4523290000000  0.5788340000000  0.5107050000000 1.0
C      1  0.5806200000000  0.5521160000000  0.5088640000000 1.0
C      1  0.5389460000000  0.4137430000000  0.5362090000000 1.0
C      1  0.4842440000000  0.5551540000000  0.4307710000000 1.0
C      1  0.5780120000000  0.4427210000000  0.5377700000000 1.0
C      1  0.4434990000000  0.4866140000000  0.4541650000000 1.0
C      1  0.5326370000000  0.4261200000000  0.5611320000000 1.0
C      1  0.4802110000000  0.4636360000000  0.4847680000000 1.0
C      1  0.4421220000000  0.5288680000000  0.4351650000000 1.0
C      1  0.4776540000000  0.5032050000000  0.4060000000000 1.0
C      1  0.5438560000000  0.4174640000000  0.4785420000000 1.0
C      1  0.5783660000000  0.5075800000000  0.5234210000000 1.0
C      1  0.5086370000000  0.4342650000000  0.5758320000000 1.0
C      1  0.5834570000000  0.5360710000000  0.4859970000000 1.0
C      1  0.5608310000000  0.4907610000000  0.5412610000000 1.0
C      1  0.5450620000000  0.5799110000000  0.5323930000000 1.0
C      1  0.5412550000000  0.5460270000000  0.4992150000000 1.0
C      1  0.5634120000000  0.4448660000000  0.4447490000000 1.0
C      1  0.4547670000000  0.5720320000000  0.4626030000000 1.0
C      1  0.5334790000000  0.4819010000000  0.5241840000000 1.0
C      1  0.5120830000000  0.4826360000000  0.5758220000000 1.0
C      1  0.5671640000000  0.5427270000000  0.4611600000000 1.0
C      1  0.5275380000000  0.5037670000000  0.5061370000000 1.0
C      1  0.4565980000000  0.5536090000000  0.4397230000000 1.0
C      1  0.5591550000000  0.5711210000000  0.5080900000000 1.0
C      1  0.4789810000000  0.4826830000000  0.5090020000000 1.0
C      1  0.5508160000000  0.5701680000000  0.4590900000000 1.0
C      1  0.4649940000000  0.4203940000000  0.5238110000000 1.0
C      1  0.4932610000000  0.5961860000000  0.4874350000000 1.0
C      1  0.5759210000000  0.5089600000000  0.4949050000000 1.0
C      1  0.4961470000000  0.5308340000000  0.4828610000000 1.0
C      1  0.4777210000000  0.5924840000000  0.5111870000000 1.0
C      1  0.4420270000000  0.4368240000000  0.5150910000000 1.0
C      1  0.5644210000000  0.4708460000000  0.4530170000000 1.0
C      1  0.5279230000000  0.5082740000000  0.5763630000000 1.0
C      1  0.4921070000000  0.5139370000000  0.5493240000000 1.0
C      1  0.5427280000000  0.5613350000000  0.5538770000000 1.0
C      1  0.5093450000000  0.4842680000000  0.5421180000000 1.0
C      1  0.4801270000000  0.4333050000000  0.5706440000000 1.0
C      1  0.5241360000000  0.5661050000000  0.4508310000000 1.0
C      1  0.4658340000000  0.4454100000000  0.4436170000000 1.0
C      1  0.5476300000000  0.4497760000000  0.5692900000000 1.0
C      1  0.4855930000000  0.4748960000000  0.4103320000000 1.0
C      1  0.4327680000000  0.4486670000000  0.4893960000000 1.0
C      1  0.4075170000000  0.4986080000000  0.4956700000000 1.0
C      1  0.4322290000000  0.5383960000000  0.5226580000000 1.0
C      1  0.4299790000000  0.4533110000000  0.5363900000000 1.0
C      1  0.4944520000000  0.4657280000000  0.5263940000000 1.0
C      1  0.4520500000000  0.4574880000000  0.4682280000000 1.0
C      1  0.4440570000000  0.4669470000000  0.5573020000000 1.0
C      1  0.4462900000000  0.4960510000000  0.5506260000000 1.0
C      1  0.4548120000000  0.4946860000000  0.5187660000000 1.0
C      1  0.4928280000000  0.5709330000000  0.5533090000000 1.0
C      1  0.4702350000000  0.5000790000000  0.4601860000000 1.0
C      1  0.5673690000000  0.4630300000000  0.5528650000000 1.0
C      1  0.5015680000000  0.5007100000000  0.4914740000000 1.0
C      1  0.4804730000000  0.5321550000000  0.5287840000000 1.0
C      1  0.4277850000000  0.5135890000000  0.4554840000000 1.0
C      1  0.4972740000000  0.4029760000000  0.4824120000000 1.0
C      1  0.5794100000000  0.5347470000000  0.5319390000000 1.0
C      1  0.4818050000000  0.4818840000000  0.5800140000000 1.0
C      1  0.5106850000000  0.5284990000000  0.5674890000000 1.0
C      1  0.5618840000000  0.4266790000000  0.5231940000000 1.0
C      1  0.4517770000000  0.5088500000000  0.4160980000000 1.0
C      1  0.5253300000000  0.3992860000000  0.4905500000000 1.0
C      1  0.4064910000000  0.4978220000000  0.5249540000000 1.0
C      1  0.4934080000000  0.4832360000000  0.4677900000000 1.0
C      1  0.5165680000000  0.5372210000000  0.4590880000000 1.0
C      1  0.5027180000000  0.4486230000000  0.5022300000000 1.0
C      1  0.4959990000000  0.5907840000000  0.5335520000000 1.0
C      1  0.4982820000000  0.5764040000000  0.4440860000000 1.0
C      1  0.4100450000000  0.4693030000000  0.5248690000000 1.0
C      1  0.5425950000000  0.5306050000000  0.4726070000000 1.0
C      1  0.4699710000000  0.5030900000000  0.5657640000000 1.0
END
